# generated using pymatgen
data_V3Zn3O8
_symmetry_space_group_name_H-M   'P 1'
_cell_length_a   17.09014494
_cell_length_b   17.08868868
_cell_length_c   17.08933803
_cell_angle_alpha   90.00794762
_cell_angle_beta   90.00177871
_cell_angle_gamma   90.00353865
_symmetry_Int_Tables_number   1
_chemical_formula_structural   V3Zn3O8
_chemical_formula_sum   'V96 Zn96 O256'
_cell_volume   4990.90977729
_cell_formula_units_Z   32
loop_
 _symmetry_equiv_pos_site_id
 _symmetry_equiv_pos_as_xyz
  1  'x, y, z'
loop_
 _atom_site_type_symbol
 _atom_site_label
 _atom_site_symmetry_multiplicity
 _atom_site_fract_x
 _atom_site_fract_y
 _atom_site_fract_z
 _atom_site_occupancy
  V  V0  1  0.62513370  0.00048232  0.12494444  1
  V  V1  1  0.12452329  -0.00050505  0.12438734  1
  V  V2  1  0.75019809  0.87595286  0.62329707  1
  V  V3  1  0.25022178  0.24922525  0.50103606  1
  V  V4  1  -0.00094638  -0.00052158  0.00018699  1
  V  V5  1  0.00058229  0.00005508  0.49896576  1
  V  V6  1  0.12353407  0.50058804  0.62270309  1
  V  V7  1  0.87531262  0.12535329  0.25075269  1
  V  V8  1  0.49978238  0.25019316  0.75153724  1
  V  V9  1  0.62593397  0.00107865  0.62459059  1
  V  V10  1  0.37453806  0.37512926  0.00148494  1
  V  V11  1  0.87376840  0.62361092  0.74919227  1
  V  V12  1  0.62461478  0.37437886  0.25089073  1
  V  V13  1  0.24938222  0.12399591  0.87605717  1
  V  V14  1  0.75084884  0.00198550  0.74972070  1
  V  V15  1  0.25067811  0.49916404  0.25181879  1
  V  V16  1  0.12522323  0.24934926  0.87657853  1
  V  V17  1  0.49978469  -0.00044634  0.49971055  1
  V  V18  1  0.87409876  0.87550111  -0.00152493  1
  V  V19  1  0.24607109  0.74724601  -0.00094312  1
  V  V20  1  0.25042430  0.62436890  0.37492941  1
  V  V21  1  -0.00007164  0.37664537  0.87644069  1
  V  V22  1  0.87512315  0.25093698  0.12596944  1
  V  V23  1  0.50013957  0.62560097  0.62495829  1
  V  V24  1  0.50014472  0.75047084  0.24870090  1
  V  V25  1  0.74942755  0.87539247  0.12384046  1
  V  V26  1  0.62468653  0.87486041  0.24942825  1
  V  V27  1  0.62552189  0.25051291  0.37619751  1
  V  V28  1  -0.00078136  0.74964529  0.24914731  1
  V  V29  1  0.49938797  0.12540670  0.12631795  1
  V  V30  1  0.24949413  -0.00056012  0.75092565  1
  V  V31  1  0.25142210  0.00050923  0.25086370  1
  V  V32  1  0.37491559  0.49973677  0.37461200  1
  V  V33  1  0.74970869  0.25006163  0.00074807  1
  V  V34  1  0.87395287  0.75091647  0.62345578  1
  V  V35  1  0.37510376  0.74922950  0.12545755  1
  V  V36  1  0.37573789  0.87583087  0.49949943  1
  V  V37  1  0.74930299  0.62451815  0.87245182  1
  V  V38  1  0.12515584  0.87479261  0.25007065  1
  V  V39  1  0.87550747  0.25061846  0.62587896  1
  V  V40  1  0.12511132  0.00061995  0.62562659  1
  V  V41  1  0.62290943  0.62388225  -0.00081678  1
  V  V42  1  0.50082390  0.50058592  0.49956861  1
  V  V43  1  0.24905190  0.24785124  0.00135107  1
  V  V44  1  -0.00005639  0.12617550  0.62550629  1
  V  V45  1  0.62410975  0.74987662  0.87301677  1
  V  V46  1  0.37587231  0.37483187  0.50078118  1
  V  V47  1  0.87499964  0.62592985  0.24823679  1
  V  V48  1  0.50077257  0.12507009  0.62646718  1
  V  V49  1  0.50136273  0.37448286  0.37554119  1
  V  V50  1  0.12333077  0.50286679  0.12311535  1
  V  V51  1  0.49935228  -0.00004871  -0.00013884  1
  V  V52  1  0.37483425  0.24983482  0.62640921  1
  V  V53  1  0.12535664  0.74957640  0.37479771  1
  V  V54  1  0.62381933  0.50044147  0.12324958  1
  V  V55  1  -0.00046699  0.37621387  0.37492061  1
  V  V56  1  0.74958386  0.50043811  0.24931659  1
  V  V57  1  0.12505276  0.87393186  0.75035403  1
  V  V58  1  0.00012329  0.24997148  0.25033796  1
  V  V59  1  0.74990596  0.62600114  0.37417211  1
  V  V60  1  0.37469801  0.12340536  0.75168204  1
  V  V61  1  0.24931098  0.87455464  0.12510662  1
  V  V62  1  0.74892144  0.75042098  -0.00171590  1
  V  V63  1  0.87454899  0.74940339  0.12389885  1
  V  V64  1  0.62451274  0.75102125  0.37300899  1
  V  V65  1  0.87538660  0.37637657  -0.00067369  1
  V  V66  1  0.25050294  0.37404104  0.62611972  1
  V  V67  1  0.00034969  0.12432805  0.12508375  1
  V  V68  1  0.37528800  0.24775993  0.12744389  1
  V  V69  1  0.25151978  0.12349247  0.37524752  1
  V  V70  1  0.37432824  0.62442848  0.75099313  1
  V  V71  1  0.12544873  0.25024850  0.37569293  1
  V  V72  1  0.75035950  0.12560841  0.87569783  1
  V  V73  1  0.12548173  0.37333748  0.75106153  1
  V  V74  1  0.75038120  0.00029738  0.24968505  1
  V  V75  1  0.75000638  0.12596182  0.37582488  1
  V  V76  1  0.74984055  0.37537191  0.12482218  1
  V  V77  1  0.12504012  0.37452960  0.25058517  1
  V  V78  1  0.25032815  0.75005202  0.50063558  1
  V  V79  1  0.62599977  0.37655690  0.74963135  1
  V  V80  1  0.62583814  0.12593493  0.50007480  1
  V  V81  1  0.87464199  0.00060244  0.87472903  1
  V  V82  1  0.62469875  0.87507145  0.74878803  1
  V  V83  1  0.62579754  0.12596913  0.00051459  1
  V  V84  1  0.62457191  0.62507210  0.49931986  1
  V  V85  1  0.25159113  0.49927299  0.75130561  1
  V  V86  1  0.24992095  0.37348831  0.12617046  1
  V  V87  1  0.75042138  0.75098541  0.49912264  1
  V  V88  1  0.00019568  0.75060653  0.74902756  1
  V  V89  1  0.12559431  0.12514168  0.50074918  1
  V  V90  1  0.87417443  0.37678153  0.50100060  1
  V  V91  1  0.49801813  0.37618048  0.87755058  1
  V  V92  1  0.49925074  0.87635901  0.87455213  1
  V  V93  1  0.87545955  0.50062615  0.37460896  1
  V  V94  1  0.87640088  0.00031599  0.37484732  1
  V  V95  1  0.00025067  0.87566948  0.37483482  1
  Zn  Zn96  1  0.87569780  0.87495015  0.49903806  1
  Zn  Zn97  1  0.37207675  0.50189108  0.88046006  1
  Zn  Zn98  1  0.37334756  -0.00096602  0.87640958  1
  Zn  Zn99  1  0.37292431  0.87527912  -0.00192905  1
  Zn  Zn100  1  0.12444486  0.12323880  -0.00005204  1
  Zn  Zn101  1  0.62873092  0.49928141  0.62460453  1
  Zn  Zn102  1  -0.00228449  0.50422492  0.00004776  1
  Zn  Zn103  1  0.62589935  0.25077359  0.87620533  1
  Zn  Zn104  1  0.12308640  0.62500926  0.49988931  1
  Zn  Zn105  1  0.87420868  0.50046790  0.87529725  1
  Zn  Zn106  1  0.25145941  0.87438548  0.62604390  1
  Zn  Zn107  1  0.37414120  0.75030985  0.62556486  1
  Zn  Zn108  1  0.75095500  0.49794388  0.74885090  1
  Zn  Zn109  1  0.87578130  0.12613522  0.75023583  1
  Zn  Zn110  1  0.12099248  0.62338484  -0.00776456  1
  Zn  Zn111  1  0.49650128  0.50174186  0.00261507  1
  Zn  Zn112  1  0.49893865  0.24744812  0.25204748  1
  Zn  Zn113  1  -0.00046946  0.62450337  0.62187126  1
  Zn  Zn114  1  -0.00089651  0.87542288  0.87507766  1
  Zn  Zn115  1  0.50000148  0.87685321  0.37382906  1
  Zn  Zn116  1  0.49914988  0.62342978  0.12395999  1
  Zn  Zn117  1  0.37738623  0.62426576  0.25033574  1
  Zn  Zn118  1  -0.00024951  0.62594332  0.12059769  1
  Zn  Zn119  1  -0.00026652  0.24818335  0.75188555  1
  Zn  Zn120  1  0.74957512  0.37593843  0.62668100  1
  Zn  Zn121  1  0.00094028  0.50408475  0.49844515  1
  Zn  Zn122  1  0.74957520  0.25094352  0.50164517  1
  Zn  Zn123  1  0.49765407  0.75092893  0.74862815  1
  Zn  Zn124  1  0.37733999  0.00144565  0.37344423  1
  Zn  Zn125  1  0.24834178  0.62406232  0.87509175  1
  Zn  Zn126  1  0.12478383  0.74692448  0.87381595  1
  Zn  Zn127  1  0.37716177  0.12365392  0.25251044  1
  Zn  Zn128  1  0.18798468  0.18487407  0.18850542  1
  Zn  Zn129  1  0.18710552  0.18705902  0.69005906  1
  Zn  Zn130  1  0.18881789  0.68560262  0.18904749  1
  Zn  Zn131  1  0.18841191  0.68581900  0.68584791  1
  Zn  Zn132  1  0.68646083  0.18825339  0.18885717  1
  Zn  Zn133  1  0.68883316  0.19045658  0.68872369  1
  Zn  Zn134  1  0.68669955  0.68698917  0.18525236  1
  Zn  Zn135  1  0.68678038  0.68901428  0.68643606  1
  Zn  Zn136  1  0.31378456  0.31100178  0.31250517  1
  Zn  Zn137  1  0.31246249  0.31150870  0.81456534  1
  Zn  Zn138  1  0.31377737  0.81383595  0.31333247  1
  Zn  Zn139  1  0.31275119  0.81065627  0.81337873  1
  Zn  Zn140  1  0.81124521  0.31272334  0.31352249  1
  Zn  Zn141  1  0.81304017  0.31106395  0.81319715  1
  Zn  Zn142  1  0.81291622  0.81341566  0.31194862  1
  Zn  Zn143  1  0.81167190  0.81328450  0.81142058  1
  Zn  Zn144  1  0.18879635  0.43638439  0.43871469  1
  Zn  Zn145  1  0.18862042  0.43725296  0.93822994  1
  Zn  Zn146  1  0.18855371  0.93725665  0.43690279  1
  Zn  Zn147  1  0.18641694  0.93514848  0.93703439  1
  Zn  Zn148  1  0.68875843  0.43856511  0.43794642  1
  Zn  Zn149  1  0.68759104  0.43971459  0.93536656  1
  Zn  Zn150  1  0.68738598  0.93769774  0.43673759  1
  Zn  Zn151  1  0.68680332  0.93910092  0.93665491  1
  Zn  Zn152  1  0.31412978  0.06182406  0.06218938  1
  Zn  Zn153  1  0.31266750  0.06110307  0.56449511  1
  Zn  Zn154  1  0.31051806  0.56320694  0.06389465  1
  Zn  Zn155  1  0.31198005  0.56236346  0.56294345  1
  Zn  Zn156  1  0.81337858  0.06312608  0.06215895  1
  Zn  Zn157  1  0.81386121  0.06351862  0.56102512  1
  Zn  Zn158  1  0.81124953  0.56244347  0.05996888  1
  Zn  Zn159  1  0.81003613  0.56130540  0.56489901  1
  Zn  Zn160  1  0.43861736  0.43603612  0.18814256  1
  Zn  Zn161  1  0.43910757  0.43972340  0.68830123  1
  Zn  Zn162  1  0.43657332  0.93682173  0.18669787  1
  Zn  Zn163  1  0.43647722  0.93804071  0.68620194  1
  Zn  Zn164  1  0.93814288  0.43842285  0.18730802  1
  Zn  Zn165  1  0.94026738  0.43665227  0.68899821  1
  Zn  Zn166  1  0.93719218  0.93633804  0.18699240  1
  Zn  Zn167  1  0.93697420  0.93802475  0.68672310  1
  Zn  Zn168  1  0.06466665  0.06267289  0.31208022  1
  Zn  Zn169  1  0.06094124  0.06322477  0.81283495  1
  Zn  Zn170  1  0.06259996  0.56402095  0.31109448  1
  Zn  Zn171  1  0.06386795  0.56282743  0.81071317  1
  Zn  Zn172  1  0.56197732  0.06260561  0.31324987  1
  Zn  Zn173  1  0.56440923  0.06258482  0.81383211  1
  Zn  Zn174  1  0.56139272  0.56372528  0.31014752  1
  Zn  Zn175  1  0.56053111  0.55997713  0.81317482  1
  Zn  Zn176  1  0.43806372  0.18701439  0.43802899  1
  Zn  Zn177  1  0.43642500  0.18789656  0.93891131  1
  Zn  Zn178  1  0.43743775  0.68834774  0.43538959  1
  Zn  Zn179  1  0.43697400  0.68865377  0.93792464  1
  Zn  Zn180  1  0.93810232  0.18866414  0.43917429  1
  Zn  Zn181  1  0.93715168  0.18757340  0.93881905  1
  Zn  Zn182  1  0.93864973  0.68665297  0.43819729  1
  Zn  Zn183  1  0.93844785  0.68731548  0.93564996  1
  Zn  Zn184  1  0.06276332  0.31334391  0.06142609  1
  Zn  Zn185  1  0.06057388  0.31395410  0.56214509  1
  Zn  Zn186  1  0.06143928  0.81278972  0.06238856  1
  Zn  Zn187  1  0.06283793  0.81365826  0.56309237  1
  Zn  Zn188  1  0.56163128  0.31165250  0.06364919  1
  Zn  Zn189  1  0.56249648  0.31177647  0.56372300  1
  Zn  Zn190  1  0.56166736  0.81211093  0.06088945  1
  Zn  Zn191  1  0.56223417  0.81160534  0.56159336  1
  O  O192  1  0.11746679  0.11739583  0.12493560  1
  O  O193  1  0.12037493  0.12083892  0.61953661  1
  O  O194  1  0.12440093  0.61152435  0.12764721  1
  O  O195  1  0.12508630  0.61142958  0.62429601  1
  O  O196  1  0.62094224  0.11930290  0.12019858  1
  O  O197  1  0.62026924  0.12079087  0.62066684  1
  O  O198  1  0.62534203  0.61854609  0.11683172  1
  O  O199  1  0.61571776  0.62479072  0.61865826  1
  O  O200  1  0.38042197  0.37934051  0.38190411  1
  O  O201  1  0.38295994  0.37417830  0.88197414  1
  O  O202  1  0.37715737  0.87748567  0.38782540  1
  O  O203  1  0.38802248  0.87623536  0.87497956  1
  O  O204  1  0.87943844  0.38001086  0.38152532  1
  O  O205  1  0.88467475  0.37449305  0.87986604  1
  O  O206  1  0.88201102  0.88250299  0.37467254  1
  O  O207  1  0.87393189  0.88231668  0.88122084  1
  O  O208  1  0.24999702  0.00645778  0.36904057  1
  O  O209  1  0.25030955  0.00509418  0.86865021  1
  O  O210  1  0.25537630  0.50332168  0.37127344  1
  O  O211  1  0.25250860  0.50070406  0.86620802  1
  O  O212  1  0.75564997  0.00582834  0.36881940  1
  O  O213  1  0.75464109  0.00601255  0.86976788  1
  O  O214  1  0.75553055  0.50650884  0.36866693  1
  O  O215  1  0.75306909  0.50917099  0.86947287  1
  O  O216  1  0.24265790  0.49291985  0.13204841  1
  O  O217  1  0.24338274  0.49272642  0.62996475  1
  O  O218  1  0.24415961  0.99415630  0.12970982  1
  O  O219  1  0.24195913  0.99893310  0.63258656  1
  O  O220  1  0.74455904  0.49405830  0.13046636  1
  O  O221  1  0.74606245  0.49442839  0.63096806  1
  O  O222  1  0.74535593  0.99534029  0.13024683  1
  O  O223  1  0.74502688  0.99619152  0.62911091  1
  O  O224  1  0.00458868  0.36847910  0.25551123  1
  O  O225  1  0.00654423  0.37203005  0.76057491  1
  O  O226  1  0.00551440  0.86991349  0.25500521  1
  O  O227  1  0.00753836  0.86752326  0.74896427  1
  O  O228  1  0.50763320  0.37326771  0.25849307  1
  O  O229  1  0.50468288  0.37010855  0.75783954  1
  O  O230  1  0.50772001  0.86903775  0.25021624  1
  O  O231  1  0.50594278  0.87528883  0.75759889  1
  O  O232  1  0.49900779  0.12620328  0.24184195  1
  O  O233  1  0.49580442  0.12967024  0.74587482  1
  O  O234  1  0.49788035  0.63458874  0.24562070  1
  O  O235  1  0.49232757  0.62408860  0.74119319  1
  O  O236  1  0.99478306  0.13056082  0.24558993  1
  O  O237  1  0.99707573  0.12780588  0.74129667  1
  O  O238  1  0.99221916  0.63271019  0.24814882  1
  O  O239  1  0.99105885  0.63425294  0.74717938  1
  O  O240  1  0.36805918  0.25497519  0.00760649  1
  O  O241  1  0.37009409  0.25524709  0.50725187  1
  O  O242  1  0.36594323  0.75157715  0.00921352  1
  O  O243  1  0.36624996  0.75791477  0.49878187  1
  O  O244  1  0.86941588  0.25598821  0.00768198  1
  O  O245  1  0.87546827  0.25950015  0.50772823  1
  O  O246  1  0.86809600  0.75580119  0.00356597  1
  O  O247  1  0.86794662  0.75154651  0.50501372  1
  O  O248  1  0.13056091  0.24563710  0.49544294  1
  O  O249  1  0.13183996  0.24788953  0.99504268  1
  O  O250  1  0.13535700  0.75193777  0.49376265  1
  O  O251  1  0.13469951  0.74937129  1.00025333  1
  O  O252  1  0.62698690  0.24390047  0.49496661  1
  O  O253  1  0.63265904  0.24368985  1.00069919  1
  O  O254  1  0.63060105  0.74458634  0.49327918  1
  O  O255  1  0.63052526  0.74502197  0.99331451  1
  O  O256  1  0.49355257  0.24319933  0.12673388  1
  O  O257  1  0.49352842  0.24399292  0.63103218  1
  O  O258  1  0.49019670  0.75102944  0.12905822  1
  O  O259  1  0.49815839  0.73694286  0.62518968  1
  O  O260  1  0.99480798  0.24548550  0.13104697  1
  O  O261  1  0.99149270  0.24493444  0.62481283  1
  O  O262  1  0.99199162  0.75031447  0.13203115  1
  O  O263  1  0.99421826  0.75011626  0.63443386  1
  O  O264  1  0.00591800  0.25526084  0.36958069  1
  O  O265  1  0.00567543  0.25964048  0.87613954  1
  O  O266  1  0.00504967  0.75606462  0.36887941  1
  O  O267  1  0.00023091  0.75372042  0.85980096  1
  O  O268  1  0.50730703  0.25690825  0.37595012  1
  O  O269  1  0.50008838  0.26014694  0.87018639  1
  O  O270  1  0.50725397  0.75233786  0.36775974  1
  O  O271  1  0.50591346  0.76079209  0.87320279  1
  O  O272  1  0.24445411  0.13032108  0.49677552  1
  O  O273  1  0.24809604  0.13015824  0.99421338  1
  O  O274  1  0.24985440  0.63483083  0.49399914  1
  O  O275  1  0.24654613  0.63590779  1.00007807  1
  O  O276  1  0.74346430  0.12586718  0.49301315  1
  O  O277  1  0.74527173  0.13024208  0.99646663  1
  O  O278  1  0.74468731  0.63087907  0.49372186  1
  O  O279  1  0.74405805  0.63192857  0.99230614  1
  O  O280  1  0.25485219  0.36759263  0.00697896  1
  O  O281  1  0.25659749  0.36807709  0.50597342  1
  O  O282  1  0.25003537  0.86550524  0.00686819  1
  O  O283  1  0.25774209  0.86696676  0.50031039  1
  O  O284  1  0.75495758  0.36988957  0.00530172  1
  O  O285  1  0.76320114  0.37381694  0.50027450  1
  O  O286  1  0.75363047  0.87038350  0.00471725  1
  O  O287  1  0.75102426  0.86921702  0.50553880  1
  O  O288  1  0.13055941  0.49305722  0.24407510  1
  O  O289  1  0.13143864  0.49266563  0.74128782  1
  O  O290  1  0.13028800  0.99379146  0.24428254  1
  O  O291  1  0.12873415  0.99234848  0.74530248  1
  O  O292  1  0.63125924  0.49442878  0.24510872  1
  O  O293  1  0.62367281  0.48721486  0.74892589  1
  O  O294  1  0.63164360  0.99513939  0.24430273  1
  O  O295  1  0.63098411  0.99537918  0.74342617  1
  O  O296  1  0.36648111  0.00063825  0.25212083  1
  O  O297  1  0.36788682  0.00641210  0.75040952  1
  O  O298  1  0.36822987  0.49880182  0.25686743  1
  O  O299  1  0.36931707  0.50881825  0.74962420  1
  O  O300  1  0.87007278  0.00586709  0.25469418  1
  O  O301  1  0.86784088  0.00165640  0.75549020  1
  O  O302  1  0.86852757  0.50499088  0.25449879  1
  O  O303  1  0.87680165  0.51336640  0.75080014  1
  O  O304  1  0.12033071  0.36941413  0.37034626  1
  O  O305  1  0.11845116  0.36931451  0.87139833  1
  O  O306  1  0.11978323  0.86970364  0.36884528  1
  O  O307  1  0.12179203  0.87216526  0.86061350  1
  O  O308  1  0.62103057  0.37073903  0.37107871  1
  O  O309  1  0.61516472  0.37295906  0.86852102  1
  O  O310  1  0.62529492  0.86866010  0.36701395  1
  O  O311  1  0.61777186  0.87118170  0.86903267  1
  O  O312  1  0.38190905  0.13101205  0.12599976  1
  O  O313  1  0.38083190  0.13043267  0.63125263  1
  O  O314  1  0.37481432  0.63800604  0.12816241  1
  O  O315  1  0.38424708  0.62479513  0.63178730  1
  O  O316  1  0.87998208  0.13082043  0.13176684  1
  O  O317  1  0.88127025  0.13528972  0.62282207  1
  O  O318  1  0.87325583  0.63207729  0.13086109  1
  O  O319  1  0.87447177  0.63235349  0.63418406  1
  O  O320  1  0.25385164  0.25441856  0.12136594  1
  O  O321  1  0.25533999  0.25428546  0.62048616  1
  O  O322  1  0.25592736  0.75455621  0.12012990  1
  O  O323  1  0.25102392  0.75125485  0.61148238  1
  O  O324  1  0.75606017  0.25567419  0.12134569  1
  O  O325  1  0.76227654  0.25299537  0.62234465  1
  O  O326  1  0.75434612  0.75634448  0.11799809  1
  O  O327  1  0.75403928  0.75659424  0.61841254  1
  O  O328  1  0.24427905  0.24534994  0.38185997  1
  O  O329  1  0.24463425  0.24432258  0.88151671  1
  O  O330  1  0.24523027  0.74567554  0.38201803  1
  O  O331  1  0.24939145  0.74946389  0.88779553  1
  O  O332  1  0.74438135  0.24311992  0.37691294  1
  O  O333  1  0.74987433  0.24343568  0.88360965  1
  O  O334  1  0.74488253  0.74509931  0.37871547  1
  O  O335  1  0.74336886  0.74573148  0.87918664  1
  O  O336  1  0.00019684  0.11797748  0.00830836  1
  O  O337  1  0.00722819  0.11989381  0.50421383  1
  O  O338  1  0.00332332  0.62228348  0.00285780  1
  O  O339  1  0.00482705  0.62180939  0.50420695  1
  O  O340  1  0.50609918  0.11982276  0.00535069  1
  O  O341  1  0.50582411  0.12013110  0.50753194  1
  O  O342  1  0.50739406  0.62290266  0.00148257  1
  O  O343  1  0.50408941  0.62071026  0.50602927  1
  O  O344  1  0.49508618  0.38043521  0.49562094  1
  O  O345  1  0.49403068  0.37381286  0.99187672  1
  O  O346  1  0.49191520  0.88024273  0.50005792  1
  O  O347  1  0.50125740  0.88073142  0.98911361  1
  O  O348  1  0.98992120  0.37737288  0.49299163  1
  O  O349  1  0.99416426  0.37575562  0.99144775  1
  O  O350  1  0.99988598  0.88206152  0.49257525  1
  O  O351  1  0.99178548  0.88086694  0.99844562  1
  O  O352  1  0.49503400  0.49470472  0.38021604  1
  O  O353  1  0.49564156  0.48625215  0.87758548  1
  O  O354  1  0.49883480  0.99766060  0.38433840  1
  O  O355  1  0.50124045  0.99071836  0.88034321  1
  O  O356  1  0.99320028  0.49347177  0.37351362  1
  O  O357  1  1.00055842  0.48641692  0.87579530  1
  O  O358  1  0.99627537  0.99579442  0.37900439  1
  O  O359  1  0.99268244  0.99887171  0.88186876  1
  O  O360  1  0.00411022  0.00461156  0.12082171  1
  O  O361  1  0.00527641  0.00585304  0.61870745  1
  O  O362  1  0.01136568  0.50040678  0.12484328  1
  O  O363  1  0.01330401  0.49894072  0.62415093  1
  O  O364  1  0.50655017  0.00421629  0.11951486  1
  O  O365  1  0.50688192  0.00622970  0.62040454  1
  O  O366  1  0.50843654  0.50119837  0.12371016  1
  O  O367  1  0.50164655  0.51056013  0.61794220  1
  O  O368  1  0.24387608  0.37902566  0.24615963  1
  O  O369  1  0.24583503  0.37855481  0.74464607  1
  O  O370  1  0.24371878  0.87961126  0.24541078  1
  O  O371  1  0.24138135  0.87883993  0.74855277  1
  O  O372  1  0.74506109  0.38094636  0.24491880  1
  O  O373  1  0.73769597  0.37390424  0.75194715  1
  O  O374  1  0.74509289  0.88087154  0.24334053  1
  O  O375  1  0.74384185  0.88148131  0.74339489  1
  O  O376  1  0.25027169  0.11769510  0.25757835  1
  O  O377  1  0.25502539  0.11961359  0.75622535  1
  O  O378  1  0.25272640  0.61708564  0.25789468  1
  O  O379  1  0.26062553  0.61871726  0.74731347  1
  O  O380  1  0.75588443  0.11953374  0.25509934  1
  O  O381  1  0.75090032  0.11919840  0.75677622  1
  O  O382  1  0.75477391  0.62020909  0.25487389  1
  O  O383  1  0.75946068  0.62802692  0.75418533  1
  O  O384  1  0.36667338  0.12296011  0.37519180  1
  O  O385  1  0.36841768  0.12377232  0.86857613  1
  O  O386  1  0.36889539  0.61728660  0.37373410  1
  O  O387  1  0.37481805  0.62313300  0.86277153  1
  O  O388  1  0.87120080  0.12053155  0.36954605  1
  O  O389  1  0.86814891  0.11886576  0.87468856  1
  O  O390  1  0.86886446  0.62069434  0.36829853  1
  O  O391  1  0.86860567  0.62696096  0.86361425  1
  O  O392  1  0.13012189  0.38126464  0.13152266  1
  O  O393  1  0.13080108  0.38013462  0.62998762  1
  O  O394  1  0.12945718  0.88005023  0.13185097  1
  O  O395  1  0.12596956  0.88186665  0.63523950  1
  O  O396  1  0.63121702  0.37941809  0.13059501  1
  O  O397  1  0.62416485  0.37531763  0.63672602  1
  O  O398  1  0.63081333  0.88067624  0.12902580  1
  O  O399  1  0.63001261  0.88101149  0.62873051  1
  O  O400  1  0.11968366  0.25488866  0.25581164  1
  O  O401  1  0.12420220  0.25667587  0.75778372  1
  O  O402  1  0.12018219  0.75559806  0.25492421  1
  O  O403  1  0.11713367  0.75784546  0.74557455  1
  O  O404  1  0.62434246  0.25718555  0.25773588  1
  O  O405  1  0.61760224  0.25882164  0.75261273  1
  O  O406  1  0.62087413  0.75572245  0.25310662  1
  O  O407  1  0.62286832  0.75752615  0.75538524  1
  O  O408  1  0.37731512  0.24683556  0.24262772  1
  O  O409  1  0.37951766  0.24400193  0.74482432  1
  O  O410  1  0.38004615  0.75119529  0.24106842  1
  O  O411  1  0.37592967  0.73869244  0.74590275  1
  O  O412  1  0.88028499  0.24534055  0.24566656  1
  O  O413  1  0.87761744  0.24930600  0.73765425  1
  O  O414  1  0.87882425  0.74573903  0.24382763  1
  O  O415  1  0.88132470  0.74460040  0.74406483  1
  O  O416  1  0.38006889  0.49358402  0.49484447  1
  O  O417  1  0.37513114  0.49102479  1.00096428  1
  O  O418  1  0.38035670  0.99115466  0.50133575  1
  O  O419  1  0.38347829  0.99557719  0.99751823  1
  O  O420  1  0.87590045  0.49232201  0.49372047  1
  O  O421  1  0.87651900  0.49159793  0.99680852  1
  O  O422  1  0.88269752  0.99925540  0.49239962  1
  O  O423  1  0.87905060  0.99441903  0.99551852  1
  O  O424  1  0.11751099  -0.00095045  0.00706889  1
  O  O425  1  0.12037717  0.00559319  0.50499444  1
  O  O426  1  0.12535866  0.49918445  0.01316099  1
  O  O427  1  0.12577450  0.49912463  0.51113866  1
  O  O428  1  0.62063354  0.00608667  0.00650555  1
  O  O429  1  0.62046958  0.00586521  0.50577609  1
  O  O430  1  0.62450868  0.50629087  0.00608742  1
  O  O431  1  0.61854418  0.50747893  0.49958951  1
  O  O432  1  0.36883038  0.36828516  0.12139539  1
  O  O433  1  0.37090335  0.36966089  0.62064254  1
  O  O434  1  0.36813755  0.86418018  0.12323639  1
  O  O435  1  0.37319572  0.87169940  0.61328266  1
  O  O436  1  0.86933380  0.36979266  0.12107329  1
  O  O437  1  0.87759005  0.36794924  0.61717781  1
  O  O438  1  0.86801128  0.86983860  0.11924940  1
  O  O439  1  0.86761762  0.86946029  0.62270991  1
  O  O440  1  0.13018947  0.13121948  0.38129685  1
  O  O441  1  0.13119863  0.13113603  0.87674489  1
  O  O442  1  0.13231307  0.63190903  0.37597961  1
  O  O443  1  0.13030877  0.62955632  0.87384558  1
  O  O444  1  0.63066728  0.13031720  0.38057723  1
  O  O445  1  0.63179089  0.12716503  0.88283946  1
  O  O446  1  0.63088728  0.63098906  0.37909177  1
  O  O447  1  0.62871460  0.63035973  0.87805460  1
