# generated using pymatgen
data_V3Zn3O8
_symmetry_space_group_name_H-M   'P 1'
_cell_length_a   17.08911270
_cell_length_b   17.08731192
_cell_length_c   17.08808445
_cell_angle_alpha   90.00794116
_cell_angle_beta   90.00441066
_cell_angle_gamma   89.98947863
_symmetry_Int_Tables_number   1
_chemical_formula_structural   V3Zn3O8
_chemical_formula_sum   'V96 Zn96 O256'
_cell_volume   4989.84011337
_cell_formula_units_Z   32
loop_
 _symmetry_equiv_pos_site_id
 _symmetry_equiv_pos_as_xyz
  1  'x, y, z'
loop_
 _atom_site_type_symbol
 _atom_site_label
 _atom_site_symmetry_multiplicity
 _atom_site_fract_x
 _atom_site_fract_y
 _atom_site_fract_z
 _atom_site_occupancy
  V  V0  1  -0.00051866  0.37664605  0.87415610  1
  V  V1  1  0.87579329  0.12598622  0.75059078  1
  V  V2  1  0.87455255  0.87450368  0.00060522  1
  V  V3  1  0.62449607  0.37474538  0.25133107  1
  V  V4  1  -0.00022446  0.87531872  0.37433314  1
  V  V5  1  0.74961551  0.37462549  0.12464531  1
  V  V6  1  0.12462450  0.62483111  0.49951660  1
  V  V7  1  0.25095605  0.75074322  0.49992630  1
  V  V8  1  -0.00008610  0.25098679  0.75024807  1
  V  V9  1  0.87592972  0.62513243  0.24921611  1
  V  V10  1  0.12501040  0.00041434  0.62567116  1
  V  V11  1  0.62321315  0.12397207  0.00071688  1
  V  V12  1  0.49952472  0.62491901  0.12645086  1
  V  V13  1  -0.00081799  0.25021736  0.24849928  1
  V  V14  1  0.24938006  0.12386477  0.37457158  1
  V  V15  1  0.50059249  0.62550204  0.62473987  1
  V  V16  1  0.12677643  0.74939109  0.87460889  1
  V  V17  1  0.50066679  0.75135312  0.75142273  1
  V  V18  1  0.24946791  0.87508376  0.62456569  1
  V  V19  1  0.87485293  0.00105000  0.87511263  1
  V  V20  1  0.74868956  0.25044706  -0.00175971  1
  V  V21  1  0.49929424  0.49836523  0.00105406  1
  V  V22  1  0.75000710  0.87517548  0.12520773  1
  V  V23  1  0.24967707  -0.00080989  0.24957703  1
  V  V24  1  0.87465666  0.37556962  0.49973411  1
  V  V25  1  0.62635006  0.62462242  -0.00045664  1
  V  V26  1  -0.00036520  0.49958009  0.49898680  1
  V  V27  1  0.49956800  -0.00129885  0.50014459  1
  V  V28  1  0.87462129  0.49879256  0.37480563  1
  V  V29  1  0.37517753  -0.00090958  0.37532271  1
  V  V30  1  0.74989324  0.37648656  0.62577722  1
  V  V31  1  0.37474773  0.24936604  0.62487259  1
  V  V32  1  0.37494928  -0.00047076  0.87589835  1
  V  V33  1  0.37474472  0.24853159  0.12619948  1
  V  V34  1  0.75083537  0.25061529  0.49930188  1
  V  V35  1  0.24931592  0.37446567  0.12587904  1
  V  V36  1  0.37379368  0.62401821  0.75179212  1
  V  V37  1  0.50005206  0.12369070  0.62524106  1
  V  V38  1  0.87272848  0.62448293  0.75086874  1
  V  V39  1  0.87455628  0.00058850  0.37408302  1
  V  V40  1  0.75021629  0.12453106  0.37414429  1
  V  V41  1  -0.00090624  0.12519749  0.12403463  1
  V  V42  1  0.50067346  0.25047932  0.74972482  1
  V  V43  1  0.37540072  0.37480021  0.49997179  1
  V  V44  1  -0.00069217  0.50006301  -0.00117751  1
  V  V45  1  0.75052665  0.74847852  -0.00188890  1
  V  V46  1  0.62494153  0.75022766  0.37546176  1
  V  V47  1  0.37613869  0.37560220  0.00031483  1
  V  V48  1  0.62474116  0.49986099  0.12591383  1
  V  V49  1  -0.00029288  0.00035177  0.00091656  1
  V  V50  1  0.00005275  0.74866849  0.24904553  1
  V  V51  1  0.37489414  0.12458630  0.24942252  1
  V  V52  1  0.00089654  0.87558884  0.87513991  1
  V  V53  1  0.37533606  0.12492938  0.75023576  1
  V  V54  1  0.62546588  0.12447579  0.50018918  1
  V  V55  1  0.37465426  0.49891769  0.37579887  1
  V  V56  1  0.50152156  0.87550386  0.87584770  1
  V  V57  1  0.37585786  0.74965640  0.12564252  1
  V  V58  1  0.00032755  0.00000193  0.49964953  1
  V  V59  1  0.49991588  0.87544698  0.37562289  1
  V  V60  1  0.12392328  -0.00031348  0.12412265  1
  V  V61  1  0.12406484  0.37395927  0.25017236  1
  V  V62  1  -0.00111878  0.62602195  0.62464894  1
  V  V63  1  0.12678363  0.62419138  0.00017470  1
  V  V64  1  0.62411698  0.37497525  0.75022706  1
  V  V65  1  0.62608041  0.87508249  0.24961784  1
  V  V66  1  0.24970685  0.24928951  0.49979910  1
  V  V67  1  0.12432147  0.87398880  0.24906442  1
  V  V68  1  0.25011446  0.25048529  -0.00010679  1
  V  V69  1  0.00016101  0.12608314  0.62585365  1
  V  V70  1  0.87513439  0.87453916  0.50007116  1
  V  V71  1  0.62479418  0.62571947  0.50055122  1
  V  V72  1  0.24973402  0.50027135  0.25202220  1
  V  V73  1  0.12484812  0.12457684  0.49999573  1
  V  V74  1  0.74936765  -0.00053788  0.24976354  1
  V  V75  1  0.75120882  0.00113617  0.74990121  1
  V  V76  1  0.25097179  0.50024169  0.74918619  1
  V  V77  1  0.24969192  0.37488787  0.62506055  1
  V  V78  1  0.75124496  0.87639917  0.62527447  1
  V  V79  1  0.37484840  0.87450497  0.00040450  1
  V  V80  1  0.12573973  0.74973060  0.37467906  1
  V  V81  1  0.75010159  0.50024964  0.25066853  1
  V  V82  1  0.12339478  0.24925677  0.37415172  1
  V  V83  1  0.12449955  0.87509109  0.75097941  1
  V  V84  1  0.25066354  0.87352116  0.12436977  1
  V  V85  1  0.87468388  0.25068237  0.12426855  1
  V  V86  1  0.25000038  0.12590881  0.87583871  1
  V  V87  1  0.24963006  0.00009177  0.75059167  1
  V  V88  1  0.62581432  -0.00031451  0.62623960  1
  V  V89  1  0.12590853  0.25090664  0.87564678  1
  V  V90  1  0.49886810  0.24834159  0.25045934  1
  V  V91  1  0.62495262  0.24983891  0.37508011  1
  V  V92  1  0.49926670  0.37467868  0.37662907  1
  V  V93  1  0.50043611  0.74977221  0.24987186  1
  V  V94  1  0.12584170  0.37663798  0.74899728  1
  V  V95  1  0.75031172  0.75112937  0.50065723  1
  Zn  Zn96  1  0.87363102  0.12511865  0.24893435  1
  Zn  Zn97  1  0.25189965  0.74743830  0.00058303  1
  Zn  Zn98  1  0.74855681  0.12568144  0.87371344  1
  Zn  Zn99  1  0.37475002  0.62552335  0.25255378  1
  Zn  Zn100  1  0.87128584  0.49946300  0.87421955  1
  Zn  Zn101  1  0.49895610  0.12166527  0.12450940  1
  Zn  Zn102  1  0.37548707  0.49899305  0.87692011  1
  Zn  Zn103  1  0.37544044  0.87476762  0.50153517  1
  Zn  Zn104  1  0.12458253  0.50025739  0.12602288  1
  Zn  Zn105  1  0.62224389  -0.00012912  0.12489642  1
  Zn  Zn106  1  0.87499771  0.75171966  0.62549663  1
  Zn  Zn107  1  0.00186360  0.62468323  0.12493747  1
  Zn  Zn108  1  0.25173918  0.62517444  0.37581947  1
  Zn  Zn109  1  0.87358948  0.37711766  -0.00283480  1
  Zn  Zn110  1  -0.00106121  0.37369759  0.37482563  1
  Zn  Zn111  1  0.50074638  0.00071585  0.00225279  1
  Zn  Zn112  1  0.74845989  0.62232819  0.87299742  1
  Zn  Zn113  1  0.50006240  0.50027066  0.49988127  1
  Zn  Zn114  1  -0.00092836  0.75052935  0.74848594  1
  Zn  Zn115  1  0.49962606  0.37534357  0.87520960  1
  Zn  Zn116  1  0.12463851  0.12578462  -0.00022324  1
  Zn  Zn117  1  0.62791165  0.87557207  0.75153428  1
  Zn  Zn118  1  0.62626526  0.74860761  0.87454898  1
  Zn  Zn119  1  0.25106248  0.62320161  0.87553701  1
  Zn  Zn120  1  0.62451710  0.50073870  0.62488941  1
  Zn  Zn121  1  0.87650701  0.25114689  0.62525274  1
  Zn  Zn122  1  0.74779576  0.50123774  0.75249314  1
  Zn  Zn123  1  0.12548678  0.50021224  0.62409984  1
  Zn  Zn124  1  0.87769825  0.74876892  0.12371780  1
  Zn  Zn125  1  0.74897187  0.62535715  0.37573863  1
  Zn  Zn126  1  0.37410041  0.75249594  0.62474885  1
  Zn  Zn127  1  0.62298302  0.24924967  0.87449780  1
  Zn  Zn128  1  0.18595677  0.18655794  0.18658057  1
  Zn  Zn129  1  0.18697579  0.18819863  0.68885034  1
  Zn  Zn130  1  0.18850762  0.68611186  0.18657201  1
  Zn  Zn131  1  0.18620895  0.68752603  0.68595895  1
  Zn  Zn132  1  0.68666892  0.18626387  0.18587500  1
  Zn  Zn133  1  0.68892962  0.18881729  0.68639316  1
  Zn  Zn134  1  0.68895923  0.68790992  0.18571973  1
  Zn  Zn135  1  0.68786114  0.69055810  0.68686017  1
  Zn  Zn136  1  0.31192757  0.31250842  0.31327887  1
  Zn  Zn137  1  0.31404709  0.31419600  0.81397386  1
  Zn  Zn138  1  0.31381508  0.81325999  0.31223448  1
  Zn  Zn139  1  0.31275602  0.81180485  0.81302579  1
  Zn  Zn140  1  0.81329855  0.31281936  0.31182002  1
  Zn  Zn141  1  0.81332687  0.31276273  0.81374166  1
  Zn  Zn142  1  0.81215495  0.81132183  0.31351382  1
  Zn  Zn143  1  0.81497375  0.81152093  0.81179148  1
  Zn  Zn144  1  0.18578782  0.43626947  0.43721068  1
  Zn  Zn145  1  0.18942236  0.43870126  0.93471124  1
  Zn  Zn146  1  0.18693652  0.93651677  0.43716415  1
  Zn  Zn147  1  0.18807813  0.93720407  0.93936592  1
  Zn  Zn148  1  0.68746861  0.44005049  0.43781796  1
  Zn  Zn149  1  0.68674390  0.43850707  0.93470579  1
  Zn  Zn150  1  0.68761659  0.93753995  0.43751178  1
  Zn  Zn151  1  0.68816688  0.93848486  0.93718317  1
  Zn  Zn152  1  0.31232228  0.06171327  0.06156129  1
  Zn  Zn153  1  0.31277262  0.06151808  0.56217792  1
  Zn  Zn154  1  0.31274798  0.56218266  0.06539973  1
  Zn  Zn155  1  0.31335075  0.56279310  0.56337418  1
  Zn  Zn156  1  0.81092061  0.06338531  0.06381725  1
  Zn  Zn157  1  0.81427664  0.06299518  0.56304779  1
  Zn  Zn158  1  0.81339572  0.56243007  0.06323128  1
  Zn  Zn159  1  0.81226583  0.56193415  0.56357768  1
  Zn  Zn160  1  0.43638742  0.43646396  0.18808721  1
  Zn  Zn161  1  0.43789670  0.43882258  0.68598077  1
  Zn  Zn162  1  0.43920749  0.93775824  0.18624736  1
  Zn  Zn163  1  0.43551179  0.93684158  0.68721972  1
  Zn  Zn164  1  0.93789030  0.43713523  0.18427278  1
  Zn  Zn165  1  0.93660145  0.44028080  0.68704906  1
  Zn  Zn166  1  0.93554801  0.93698115  0.18703880  1
  Zn  Zn167  1  0.93740027  0.93847233  0.68799652  1
  Zn  Zn168  1  0.06130487  0.06366312  0.31004521  1
  Zn  Zn169  1  0.06262071  0.06384186  0.81409962  1
  Zn  Zn170  1  0.06257033  0.56200048  0.31495993  1
  Zn  Zn171  1  0.06185676  0.56241994  0.81146625  1
  Zn  Zn172  1  0.56291520  0.06164947  0.31237026  1
  Zn  Zn173  1  0.56415414  0.06303164  0.81396093  1
  Zn  Zn174  1  0.56138055  0.56251065  0.31373908  1
  Zn  Zn175  1  0.56345382  0.55949793  0.81596927  1
  Zn  Zn176  1  0.43720303  0.18607122  0.43702590  1
  Zn  Zn177  1  0.43900186  0.18983816  0.93649783  1
  Zn  Zn178  1  0.43567721  0.68733135  0.43562085  1
  Zn  Zn179  1  0.43867827  0.68660972  0.93868251  1
  Zn  Zn180  1  0.93645755  0.18784119  0.43686057  1
  Zn  Zn181  1  0.93674028  0.18817505  0.93784968  1
  Zn  Zn182  1  0.93657563  0.68733068  0.43586522  1
  Zn  Zn183  1  0.93888948  0.68697190  0.93493206  1
  Zn  Zn184  1  0.06286708  0.31408289  0.06202824  1
  Zn  Zn185  1  0.06234127  0.31295088  0.56298908  1
  Zn  Zn186  1  0.06158443  0.81061392  0.06289714  1
  Zn  Zn187  1  0.06330027  0.81182801  0.56246292  1
  Zn  Zn188  1  0.56149990  0.31101769  0.06464785  1
  Zn  Zn189  1  0.56270546  0.31141842  0.56327063  1
  Zn  Zn190  1  0.56400854  0.81158517  0.06286898  1
  Zn  Zn191  1  0.56411740  0.81329337  0.56396031  1
  O  O192  1  0.11822040  0.11745162  0.12313460  1
  O  O193  1  0.12066098  0.11969509  0.61997565  1
  O  O194  1  0.12400651  0.62326630  0.11255836  1
  O  O195  1  0.11474502  0.62399876  0.61879451  1
  O  O196  1  0.62236182  0.12386186  0.11419403  1
  O  O197  1  0.61977210  0.11977781  0.61905164  1
  O  O198  1  0.61969924  0.61888758  0.12026675  1
  O  O199  1  0.61582279  0.62695976  0.61822136  1
  O  O200  1  0.37983406  0.37819453  0.38123322  1
  O  O201  1  0.37805986  0.37714770  0.88452701  1
  O  O202  1  0.38211406  0.88209191  0.37652674  1
  O  O203  1  0.38190955  0.87938464  0.87948664  1
  O  O204  1  0.87547982  0.38136735  0.38160735  1
  O  O205  1  0.88439158  0.37797474  0.87700236  1
  O  O206  1  0.88085046  0.88097678  0.38026606  1
  O  O207  1  0.88168536  0.88110013  0.88072708  1
  O  O208  1  0.25402630  0.00430102  0.36936898  1
  O  O209  1  0.25471957  0.00492771  0.86955225  1
  O  O210  1  0.25574106  0.49794847  0.36659891  1
  O  O211  1  0.25473977  0.50323848  0.86447095  1
  O  O212  1  0.75503091  0.00484456  0.37039683  1
  O  O213  1  0.75782365  0.00121985  0.86820795  1
  O  O214  1  0.75580217  0.50207600  0.36800323  1
  O  O215  1  0.75376756  0.50390222  0.87109067  1
  O  O216  1  0.24921464  0.49303110  0.13640759  1
  O  O217  1  0.24904181  0.49257827  0.63071119  1
  O  O218  1  0.24456914  0.99385048  0.13074849  1
  O  O219  1  0.24382383  0.99631096  0.63059175  1
  O  O220  1  0.74423098  0.49451466  0.13054588  1
  O  O221  1  0.74708116  0.48659214  0.62598614  1
  O  O222  1  0.74840305  0.99274635  0.13211562  1
  O  O223  1  0.74557325  0.99589806  0.62966378  1
  O  O224  1  0.00617558  0.36839482  0.25013960  1
  O  O225  1  0.00582034  0.37122746  0.75339780  1
  O  O226  1  0.00500597  0.86986669  0.25509631  1
  O  O227  1  0.00685104  0.87454147  0.75651898  1
  O  O228  1  0.50505923  0.36841567  0.25658245  1
  O  O229  1  0.50905947  0.36899442  0.74507937  1
  O  O230  1  0.50610506  0.86932750  0.25607540  1
  O  O231  1  0.49781928  0.86678992  0.75823127  1
  O  O232  1  0.49258198  0.13109734  0.25144898  1
  O  O233  1  0.49455437  0.12904072  0.74404279  1
  O  O234  1  0.50013370  0.63195838  0.24380887  1
  O  O235  1  0.49427898  0.63201303  0.74436903  1
  O  O236  1  0.99786840  0.13178838  0.24197450  1
  O  O237  1  0.99626225  0.13052157  0.74519537  1
  O  O238  1  0.99210697  0.62912504  0.25008653  1
  O  O239  1  0.99334722  0.62542285  0.73981229  1
  O  O240  1  0.36929978  0.25501155  0.00638199  1
  O  O241  1  0.36901242  0.25373093  0.50509152  1
  O  O242  1  0.37383319  0.75557671  0.00690134  1
  O  O243  1  0.36246385  0.75165989  0.50072046  1
  O  O244  1  0.86435310  0.25129328  0.00546974  1
  O  O245  1  0.86841440  0.25656222  0.50130341  1
  O  O246  1  0.86749987  0.75488036  0.00004675  1
  O  O247  1  0.86861166  0.75720133  0.49949588  1
  O  O248  1  0.13033016  0.24364010  0.49492352  1
  O  O249  1  0.13235535  0.24990508  0.99318631  1
  O  O250  1  0.13252759  0.74593705  0.49425657  1
  O  O251  1  0.12528889  0.74140968  0.99146732  1
  O  O252  1  0.63034298  0.24392769  0.49449561  1
  O  O253  1  0.63333108  0.24327707  1.00103400  1
  O  O254  1  0.62981176  0.74400476  0.49531983  1
  O  O255  1  0.63479134  0.74360641  0.99987974  1
  O  O256  1  0.49202144  0.24797304  0.13389428  1
  O  O257  1  0.49372919  0.24242984  0.62896002  1
  O  O258  1  0.49561179  0.74518987  0.13082538  1
  O  O259  1  0.49856735  0.74323920  0.63430133  1
  O  O260  1  0.99485678  0.24550434  0.12819077  1
  O  O261  1  1.00003413  0.24345987  0.63203588  1
  O  O262  1  0.99766920  0.74689259  0.13337830  1
  O  O263  1  0.99881460  0.73812791  0.62427673  1
  O  O264  1  0.00619677  0.24968833  0.36789332  1
  O  O265  1  0.00613476  0.25598198  0.87011438  1
  O  O266  1  0.00587556  0.75639735  0.36990262  1
  O  O267  1  0.01212159  0.75696850  0.87422107  1
  O  O268  1  0.50528404  0.25459067  0.37065497  1
  O  O269  1  0.50181706  0.25407434  0.86440632  1
  O  O270  1  0.50522566  0.75578509  0.37007244  1
  O  O271  1  0.49917305  0.75876228  0.86704605  1
  O  O272  1  0.24441585  0.12925888  0.49465588  1
  O  O273  1  0.24882826  0.13200752  0.99316213  1
  O  O274  1  0.24400827  0.63479113  0.50092340  1
  O  O275  1  0.23984220  0.62510487  0.99760156  1
  O  O276  1  0.74472794  0.12979079  0.49495031  1
  O  O277  1  0.74200132  0.13497939  1.00027632  1
  O  O278  1  0.74096243  0.63135998  0.50078149  1
  O  O279  1  0.74579144  0.63425640  1.00153580  1
  O  O280  1  0.25511358  0.37025311  0.00593979  1
  O  O281  1  0.25509897  0.36794778  0.50473831  1
  O  O282  1  0.25647531  0.87279321  0.00718986  1
  O  O283  1  0.24821471  0.86626669  0.50548197  1
  O  O284  1  0.74761722  0.36571067  0.00642176  1
  O  O285  1  0.75316845  0.37048812  0.50704149  1
  O  O286  1  0.75464890  0.86754460  0.00451735  1
  O  O287  1  0.75561108  0.87165126  0.50527107  1
  O  O288  1  0.13386019  0.49379618  0.25126467  1
  O  O289  1  0.13233003  0.49395998  0.74762552  1
  O  O290  1  0.12996037  0.99360345  0.24466116  1
  O  O291  1  0.13048042  0.99544714  0.74537750  1
  O  O292  1  0.62973866  0.49435455  0.24587673  1
  O  O293  1  0.62508360  0.48840508  0.74581895  1
  O  O294  1  0.63206771  0.99236146  0.25092386  1
  O  O295  1  0.63223344  0.99995068  0.74323218  1
  O  O296  1  0.36870601  0.00420429  0.25568530  1
  O  O297  1  0.36868638  0.00575029  0.75531886  1
  O  O298  1  0.36499005  0.49769021  0.25704994  1
  O  O299  1  0.37085287  0.51008960  0.74916712  1
  O  O300  1  0.86803287  0.00064712  0.25732618  1
  O  O301  1  0.87103047  0.00628512  0.75545126  1
  O  O302  1  0.87054720  0.50613255  0.25421012  1
  O  O303  1  0.87256511  0.51234854  0.74994781  1
  O  O304  1  0.12292172  0.36606104  0.36878985  1
  O  O305  1  0.12034958  0.36958006  0.86811961  1
  O  O306  1  0.11894213  0.87023473  0.36844728  1
  O  O307  1  0.12093888  0.86853869  0.87096424  1
  O  O308  1  0.62000798  0.36929423  0.37075546  1
  O  O309  1  0.62313403  0.37167241  0.86134221  1
  O  O310  1  0.61938983  0.86978298  0.37019199  1
  O  O311  1  0.61289343  0.87370589  0.87309127  1
  O  O312  1  0.37369614  0.13099523  0.13234881  1
  O  O313  1  0.37990660  0.12924570  0.63047245  1
  O  O314  1  0.38223963  0.63146602  0.12825507  1
  O  O315  1  0.38409106  0.62854932  0.63392779  1
  O  O316  1  0.88107996  0.13206888  0.12642886  1
  O  O317  1  0.88314745  0.12647341  0.63134243  1
  O  O318  1  0.87783812  0.62535915  0.13868312  1
  O  O319  1  0.88364205  0.62662170  0.63075230  1
  O  O320  1  0.25500904  0.25471793  0.12068504  1
  O  O321  1  0.25540815  0.25390637  0.61944538  1
  O  O322  1  0.25712710  0.75659726  0.12502524  1
  O  O323  1  0.24813220  0.75641937  0.61531273  1
  O  O324  1  0.75404351  0.25508592  0.11764159  1
  O  O325  1  0.75172822  0.26034120  0.61760310  1
  O  O326  1  0.75270211  0.75563563  0.11408649  1
  O  O327  1  0.75110922  0.75909072  0.61767602  1
  O  O328  1  0.24423666  0.24323211  0.38041348  1
  O  O329  1  0.24563608  0.24548423  0.87987509  1
  O  O330  1  0.24423527  0.75062894  0.38336947  1
  O  O331  1  0.23777191  0.74906742  0.87713407  1
  O  O332  1  0.74391846  0.24514598  0.37957533  1
  O  O333  1  0.74799368  0.24937457  0.88748160  1
  O  O334  1  0.74219507  0.74870455  0.38239230  1
  O  O335  1  0.74868906  0.75035520  0.88772681  1
  O  O336  1  0.00139919  0.11822379  0.00601952  1
  O  O337  1  0.00577476  0.11959427  0.50494644  1
  O  O338  1  0.00937975  0.61725839  -0.00084571  1
  O  O339  1  0.00322348  0.62039810  0.50640818  1
  O  O340  1  0.51011671  0.12515555  0.00027953  1
  O  O341  1  0.50547317  0.11933581  0.50526499  1
  O  O342  1  0.50585916  0.61940802  0.00746326  1
  O  O343  1  0.50659246  0.62930389  0.50986927  1
  O  O344  1  0.49353076  0.37472186  0.49479541  1
  O  O345  1  0.49429685  0.38060266  1.00211959  1
  O  O346  1  0.49944077  0.88088793  0.49419265  1
  O  O347  1  0.49463301  0.87389529  0.98967006  1
  O  O348  1  0.99302259  0.38116159  0.50009839  1
  O  O349  1  1.00131684  0.38507318  0.99311795  1
  O  O350  1  0.99633376  0.88084450  0.49420428  1
  O  O351  1  0.99463592  0.88043268  0.99515692  1
  O  O352  1  0.49287427  0.49201139  0.37606872  1
  O  O353  1  0.49663940  0.49659601  0.88539855  1
  O  O354  1  0.49509520  0.99512945  0.38065448  1
  O  O355  1  0.49329608  0.98975513  0.87406837  1
  O  O356  1  0.99273020  0.49734555  0.38199886  1
  O  O357  1  1.00059516  0.49446059  0.88375661  1
  O  O358  1  0.99575301  0.99529708  0.38005885  1
  O  O359  1  0.99545067  0.99507245  0.88091777  1
  O  O360  1  0.00438793  0.00422804  0.12038323  1
  O  O361  1  0.00632102  0.00582318  0.61938495  1
  O  O362  1  0.00437258  0.50131967  0.11275387  1
  O  O363  1  0.00139474  0.51083546  0.61793023  1
  O  O364  1  0.50358619  0.00340755  0.12052957  1
  O  O365  1  0.50472384  0.00480977  0.62044264  1
  O  O366  1  0.50582070  0.50463130  0.12224385  1
  O  O367  1  0.50117402  0.51465419  0.62243875  1
  O  O368  1  0.24474408  0.38144566  0.24644207  1
  O  O369  1  0.24627653  0.37952707  0.74395577  1
  O  O370  1  0.24394111  0.88012170  0.24480924  1
  O  O371  1  0.24435850  0.88087981  0.74535152  1
  O  O372  1  0.74375913  0.38021440  0.24507417  1
  O  O373  1  0.74183348  0.37212779  0.74056925  1
  O  O374  1  0.74529025  0.87892661  0.24585065  1
  O  O375  1  0.75073923  0.88211579  0.74395703  1
  O  O376  1  0.25431977  0.11884217  0.25569792  1
  O  O377  1  0.25570126  0.12000831  0.75532761  1
  O  O378  1  0.25074689  0.61236020  0.25229020  1
  O  O379  1  0.25988739  0.62062570  0.74694878  1
  O  O380  1  0.74984077  0.11881652  0.25699324  1
  O  O381  1  0.75723537  0.11982006  0.75003996  1
  O  O382  1  0.75857966  0.61929997  0.25116724  1
  O  O383  1  0.75937853  0.62519676  0.74806717  1
  O  O384  1  0.36837240  0.11918439  0.36967394  1
  O  O385  1  0.36990073  0.11996429  0.86920912  1
  O  O386  1  0.37194511  0.61578405  0.37253846  1
  O  O387  1  0.37431901  0.62488344  0.86267848  1
  O  O388  1  0.86786909  0.11835636  0.37384779  1
  O  O389  1  0.87436423  0.11834245  0.86854379  1
  O  O390  1  0.87304410  0.61872621  0.36454027  1
  O  O391  1  0.87487948  0.62461290  0.86193382  1
  O  O392  1  0.13270909  0.37568348  0.13236791  1
  O  O393  1  0.13246987  0.37545659  0.63110135  1
  O  O394  1  0.12994553  0.87966292  0.13024004  1
  O  O395  1  0.12910479  0.88154093  0.63072364  1
  O  O396  1  0.62980334  0.38019418  0.13268210  1
  O  O397  1  0.63314195  0.37464531  0.63165928  1
  O  O398  1  0.63225134  0.87514842  0.13232009  1
  O  O399  1  0.63208281  0.88271024  0.62741695  1
  O  O400  1  0.11973488  0.25410774  0.25494227  1
  O  O401  1  0.12023922  0.25620854  0.75594621  1
  O  O402  1  0.12064725  0.75471737  0.25498938  1
  O  O403  1  0.12407553  0.75587497  0.75885880  1
  O  O404  1  0.61992919  0.25517546  0.25601929  1
  O  O405  1  0.61913748  0.25819922  0.74817525  1
  O  O406  1  0.62085148  0.75504352  0.25553467  1
  O  O407  1  0.61198573  0.75230493  0.75249554  1
  O  O408  1  0.37879221  0.24425566  0.24663622  1
  O  O409  1  0.37949176  0.24437856  0.74353555  1
  O  O410  1  0.38254929  0.74903935  0.24437098  1
  O  O411  1  0.38352294  0.74194300  0.74886584  1
  O  O412  1  0.88052028  0.24915551  0.24256550  1
  O  O413  1  0.88279539  0.24416639  0.74880588  1
  O  O414  1  0.88039503  0.74048939  0.25116987  1
  O  O415  1  0.87917624  0.74040558  0.74615001  1
  O  O416  1  0.37592741  0.49270115  0.49402203  1
  O  O417  1  0.38153017  0.49343540  1.00270304  1
  O  O418  1  0.38135259  0.99929838  0.49322333  1
  O  O419  1  0.37616837  0.99313278  0.99256354  1
  O  O420  1  0.87890360  0.49534030  0.49415707  1
  O  O421  1  0.88750768  0.50064698  0.99824694  1
  O  O422  1  0.88125706  0.99478062  0.49392692  1
  O  O423  1  0.87966048  0.99457504  0.99517111  1
  O  O424  1  0.11801814  0.00063474  0.00671851  1
  O  O425  1  0.11999515  0.00517285  0.50526313  1
  O  O426  1  0.11820512  0.50882382  -0.00165432  1
  O  O427  1  0.11876296  0.50653282  0.50070101  1
  O  O428  1  0.62511591  0.01120834  0.00105126  1
  O  O429  1  0.61958952  0.00573720  0.50538222  1
  O  O430  1  0.62003940  0.50425076  0.00782292  1
  O  O431  1  0.62155747  0.51220047  0.50176836  1
  O  O432  1  0.36855296  0.36779482  0.12105565  1
  O  O433  1  0.36994384  0.36840070  0.61973794  1
  O  O434  1  0.37027533  0.86945938  0.12037348  1
  O  O435  1  0.36574891  0.87276119  0.62216582  1
  O  O436  1  0.86683267  0.36908613  0.12100545  1
  O  O437  1  0.86542273  0.37451966  0.61934497  1
  O  O438  1  0.86807037  0.87259047  0.11804876  1
  O  O439  1  0.87016541  0.87562775  0.61749338  1
  O  O440  1  0.13028254  0.12858969  0.38034953  1
  O  O441  1  0.13236739  0.13244555  0.87575333  1
  O  O442  1  0.12690505  0.63269795  0.38215182  1
  O  O443  1  0.12553742  0.63384381  0.88152942  1
  O  O444  1  0.63020995  0.13021388  0.38119866  1
  O  O445  1  0.62801306  0.12851771  0.88547480  1
  O  O446  1  0.62415221  0.63186003  0.38442557  1
  O  O447  1  0.62679278  0.62834125  0.88392398  1
