# generated using pymatgen
data_V3Zn3O8
_symmetry_space_group_name_H-M   'P 1'
_cell_length_a   17.08791605
_cell_length_b   17.08924799
_cell_length_c   17.08927300
_cell_angle_alpha   90.00585245
_cell_angle_beta   90.00836946
_cell_angle_gamma   89.99862746
_symmetry_Int_Tables_number   1
_chemical_formula_structural   V3Zn3O8
_chemical_formula_sum   'V96 Zn96 O256'
_cell_volume   4990.40318179
_cell_formula_units_Z   32
loop_
 _symmetry_equiv_pos_site_id
 _symmetry_equiv_pos_as_xyz
  1  'x, y, z'
loop_
 _atom_site_type_symbol
 _atom_site_label
 _atom_site_symmetry_multiplicity
 _atom_site_fract_x
 _atom_site_fract_y
 _atom_site_fract_z
 _atom_site_occupancy
  V  V0  1  0.62445929  0.25082685  0.37488817  1
  V  V1  1  0.24997652  0.74983812  -0.00209363  1
  V  V2  1  0.25028025  0.00029402  0.75075398  1
  V  V3  1  0.62603528  0.74915935  0.87509157  1
  V  V4  1  0.75057625  0.62539594  0.37417288  1
  V  V5  1  0.75050104  0.25007991  0.50127675  1
  V  V6  1  0.37520805  0.62506106  0.24905628  1
  V  V7  1  0.37336253  0.37547772  0.49932101  1
  V  V8  1  0.37505895  0.87459136  0.00017518  1
  V  V9  1  0.12498865  0.25030147  0.87582160  1
  V  V10  1  0.00026857  0.24915792  0.75141290  1
  V  V11  1  0.37595848  0.74951851  0.12362925  1
  V  V12  1  0.87531796  0.49933238  0.87412874  1
  V  V13  1  0.74983760  0.12484392  0.37641815  1
  V  V14  1  0.50040270  0.75133766  0.74842438  1
  V  V15  1  0.24868310  0.12475462  0.37582067  1
  V  V16  1  0.12564631  0.37468536  0.25067158  1
  V  V17  1  0.00001739  -0.00065310  0.00133370  1
  V  V18  1  0.50104293  0.62559008  0.62337634  1
  V  V19  1  0.74969972  0.75017541  0.49839608  1
  V  V20  1  0.49985289  0.37541643  0.37490211  1
  V  V21  1  0.74897391  0.49844848  0.74866982  1
  V  V22  1  0.87632876  0.62475765  0.24861613  1
  V  V23  1  0.87531877  -0.00024659  0.87624743  1
  V  V24  1  0.87539128  0.25073734  0.12592339  1
  V  V25  1  0.75037225  0.87386629  0.12418605  1
  V  V26  1  0.25007768  0.37476841  0.12509546  1
  V  V27  1  0.87493988  0.37494411  0.49974175  1
  V  V28  1  0.49933833  0.12504226  0.12649126  1
  V  V29  1  0.49946302  0.00048869  0.50005994  1
  V  V30  1  0.74921035  0.87579663  0.62544907  1
  V  V31  1  0.12545720  0.62573436  -0.00076823  1
  V  V32  1  0.62623471  0.12543975  0.00142058  1
  V  V33  1  0.00022845  0.75019175  0.75052060  1
  V  V34  1  0.87493084  0.12515639  0.25140032  1
  V  V35  1  0.25021472  0.62616491  0.37455604  1
  V  V36  1  0.87306880  0.87356919  0.00130152  1
  V  V37  1  0.37522209  -0.00057961  0.37439017  1
  V  V38  1  0.24872426  0.24961364  -0.00019633  1
  V  V39  1  0.87548212  0.49915287  0.37447668  1
  V  V40  1  0.50052807  0.87581083  0.87432080  1
  V  V41  1  0.25004265  0.12519197  0.87622334  1
  V  V42  1  0.75005609  0.37529892  0.62505547  1
  V  V43  1  0.62418315  0.12434630  0.50198003  1
  V  V44  1  0.87625687  0.12480875  0.75159132  1
  V  V45  1  0.62481109  0.37473180  0.25062668  1
  V  V46  1  0.25163279  0.50209718  0.75062480  1
  V  V47  1  0.62345926  0.25145468  0.87442873  1
  V  V48  1  0.50062046  0.75008337  0.24922962  1
  V  V49  1  0.25069303  0.87533429  0.62426911  1
  V  V50  1  0.12424803  0.12450286  0.50118956  1
  V  V51  1  0.12574005  0.62699475  0.49825748  1
  V  V52  1  -0.00000910  0.37515315  0.37617879  1
  V  V53  1  0.49971519  0.00003475  0.00038875  1
  V  V54  1  0.37425678  0.12489723  0.24986118  1
  V  V55  1  0.74947995  -0.00007341  0.75039812  1
  V  V56  1  0.00018831  0.87401272  0.37530547  1
  V  V57  1  0.75024435  0.49932960  0.24936625  1
  V  V58  1  0.87591870  0.37454205  0.00155020  1
  V  V59  1  0.37702477  0.37722404  -0.00362004  1
  V  V60  1  0.62489417  0.00036228  0.12591676  1
  V  V61  1  0.62506944  0.50026977  0.62435570  1
  V  V62  1  0.00046072  0.37503214  0.87376477  1
  V  V63  1  0.00016724  0.74982568  0.24980685  1
  V  V64  1  0.00001928  0.12394442  0.12602685  1
  V  V65  1  0.37544715  0.50045494  0.37411174  1
  V  V66  1  0.12375910  -0.00062500  0.12599977  1
  V  V67  1  0.62460669  0.87439416  0.24975656  1
  V  V68  1  0.74879774  0.62522074  0.87484035  1
  V  V69  1  0.00020012  -0.00022103  0.50230535  1
  V  V70  1  0.87507195  0.87455820  0.50024653  1
  V  V71  1  0.74955366  -0.00037403  0.25092569  1
  V  V72  1  0.25051905  0.37247583  0.62300195  1
  V  V73  1  0.37458787  0.24941990  0.12560919  1
  V  V74  1  0.50087940  0.62340675  0.12291210  1
  V  V75  1  0.62437881  0.49894134  0.12248498  1
  V  V76  1  0.00020485  0.62518884  0.12484082  1
  V  V77  1  0.37522294  0.62531216  0.74901307  1
  V  V78  1  0.00040488  0.12432764  0.62685665  1
  V  V79  1  0.37474745  0.00205890  0.87565188  1
  V  V80  1  0.12392835  0.87488984  0.25053056  1
  V  V81  1  0.50031755  0.50174904  0.49977121  1
  V  V82  1  0.12300532  0.50125868  0.62427229  1
  V  V83  1  0.87432961  0.62450250  0.74870799  1
  V  V84  1  0.24870247  -0.00104468  0.24940557  1
  V  V85  1  0.37538980  0.75178820  0.62332835  1
  V  V86  1  0.12515277  0.50072241  0.12453095  1
  V  V87  1  0.87464578  -0.00015797  0.37620861  1
  V  V88  1  0.62533874  0.87674953  0.74966702  1
  V  V89  1  0.00026411  0.24963779  0.25114523  1
  V  V90  1  0.87428349  0.74916917  0.62458934  1
  V  V91  1  0.25064260  0.50008507  0.24982703  1
  V  V92  1  0.00003730  0.87401823  0.87529295  1
  V  V93  1  0.12529549  0.24938330  0.37674767  1
  V  V94  1  0.75042561  0.12513311  0.87717313  1
  V  V95  1  0.62539495  0.74988175  0.37333748  1
  Zn  Zn96  1  0.12483258  -0.00159467  0.62715193  1
  Zn  Zn97  1  -0.00125594  0.50085572  0.49981667  1
  Zn  Zn98  1  0.62477165  0.62437567  -0.00198671  1
  Zn  Zn99  1  0.25073018  0.62474912  0.87398338  1
  Zn  Zn100  1  0.37584883  0.87441688  0.49670144  1
  Zn  Zn101  1  0.49786867  0.12741851  0.62892200  1
  Zn  Zn102  1  0.75030017  0.24933418  0.00293434  1
  Zn  Zn103  1  0.37924905  0.50187838  0.87398030  1
  Zn  Zn104  1  0.62523855  0.62612016  0.49845595  1
  Zn  Zn105  1  0.74941283  0.74714280  0.00141703  1
  Zn  Zn106  1  0.50042900  0.50058870  -0.00451640  1
  Zn  Zn107  1  0.38045378  0.24986874  0.62421360  1
  Zn  Zn108  1  0.50164458  0.37712304  0.87156056  1
  Zn  Zn109  1  0.12603341  0.74918029  0.87368876  1
  Zn  Zn110  1  0.62313513  0.00180720  0.62620441  1
  Zn  Zn111  1  0.49707554  0.25139101  0.74732516  1
  Zn  Zn112  1  0.49830689  0.87381027  0.37427441  1
  Zn  Zn113  1  0.74968367  0.37304483  0.12584973  1
  Zn  Zn114  1  0.62278096  0.37334455  0.74991763  1
  Zn  Zn115  1  0.12556427  0.87335179  0.75161410  1
  Zn  Zn116  1  0.25128854  0.24776631  0.50118317  1
  Zn  Zn117  1  0.25183799  0.75321923  0.49717813  1
  Zn  Zn118  1  0.87502259  0.25054307  0.62669348  1
  Zn  Zn119  1  0.49943096  0.24967810  0.25111706  1
  Zn  Zn120  1  0.87324041  0.74844260  0.12337243  1
  Zn  Zn121  1  0.00112202  0.50249848  -0.00188159  1
  Zn  Zn122  1  -0.00128375  0.62504383  0.62271473  1
  Zn  Zn123  1  0.37544443  0.13141044  0.74683387  1
  Zn  Zn124  1  0.12677801  0.75104588  0.37489119  1
  Zn  Zn125  1  0.24890817  0.87511460  0.12514401  1
  Zn  Zn126  1  0.12458458  0.12409256  0.00140552  1
  Zn  Zn127  1  0.12445308  0.37594653  0.74963737  1
  Zn  Zn128  1  0.18716989  0.18665215  0.18779963  1
  Zn  Zn129  1  0.18559054  0.18637670  0.68979239  1
  Zn  Zn130  1  0.18719295  0.68900478  0.18619643  1
  Zn  Zn131  1  0.18732518  0.68849128  0.68522044  1
  Zn  Zn132  1  0.68826450  0.18859885  0.18833426  1
  Zn  Zn133  1  0.68674628  0.18732768  0.68802237  1
  Zn  Zn134  1  0.68814039  0.68660753  0.18626701  1
  Zn  Zn135  1  0.68678973  0.68715973  0.68749489  1
  Zn  Zn136  1  0.31208263  0.31100179  0.31354419  1
  Zn  Zn137  1  0.31173288  0.31249842  0.81039259  1
  Zn  Zn138  1  0.31185132  0.81277097  0.31198720  1
  Zn  Zn139  1  0.31474128  0.81356962  0.81183108  1
  Zn  Zn140  1  0.81130612  0.31280894  0.31332778  1
  Zn  Zn141  1  0.81074655  0.31101271  0.81353648  1
  Zn  Zn142  1  0.81347417  0.81161154  0.31087194  1
  Zn  Zn143  1  0.81229886  0.81226248  0.81345546  1
  Zn  Zn144  1  0.18732215  0.43926169  0.43798534  1
  Zn  Zn145  1  0.18801320  0.43732402  0.93695035  1
  Zn  Zn146  1  0.18673525  0.93873455  0.43827070  1
  Zn  Zn147  1  0.18520375  0.93583322  0.93732023  1
  Zn  Zn148  1  0.68739259  0.43825994  0.43837398  1
  Zn  Zn149  1  0.69075784  0.43598436  0.93802436  1
  Zn  Zn150  1  0.68546730  0.93636072  0.43719310  1
  Zn  Zn151  1  0.68741161  0.93714220  0.93796871  1
  Zn  Zn152  1  0.31077783  0.06244536  0.06273719  1
  Zn  Zn153  1  0.31460788  0.06385609  0.56296942  1
  Zn  Zn154  1  0.31227491  0.56241753  0.06234749  1
  Zn  Zn155  1  0.31225056  0.56360872  0.56232123  1
  Zn  Zn156  1  0.81292394  0.06171038  0.06366573  1
  Zn  Zn157  1  0.81320929  0.06281303  0.56521571  1
  Zn  Zn158  1  0.81159352  0.56149103  0.06093725  1
  Zn  Zn159  1  0.81152356  0.56239088  0.56103924  1
  Zn  Zn160  1  0.43892021  0.43607392  0.18660874  1
  Zn  Zn161  1  0.43946880  0.43435674  0.68814827  1
  Zn  Zn162  1  0.43673898  0.93633327  0.18718911  1
  Zn  Zn163  1  0.43610547  0.94038605  0.68597366  1
  Zn  Zn164  1  0.93982789  0.43840793  0.18725669  1
  Zn  Zn165  1  0.93709029  0.43605016  0.68728173  1
  Zn  Zn166  1  0.93646415  0.93642565  0.18748084  1
  Zn  Zn167  1  0.93629462  0.93700506  0.68807174  1
  Zn  Zn168  1  0.06203343  0.06136260  0.31408578  1
  Zn  Zn169  1  0.06494132  0.06211476  0.81468394  1
  Zn  Zn170  1  0.06247131  0.56205268  0.31251755  1
  Zn  Zn171  1  0.06285440  0.56503892  0.81313290  1
  Zn  Zn172  1  0.56140989  0.06292558  0.31410555  1
  Zn  Zn173  1  0.56173065  0.06650912  0.81203993  1
  Zn  Zn174  1  0.56329217  0.56289764  0.31096896  1
  Zn  Zn175  1  0.56188927  0.56090175  0.81163155  1
  Zn  Zn176  1  0.43653839  0.18853330  0.43957317  1
  Zn  Zn177  1  0.43762710  0.18810465  0.93720326  1
  Zn  Zn178  1  0.43745644  0.68887660  0.43754701  1
  Zn  Zn179  1  0.43830428  0.68494505  0.93524483  1
  Zn  Zn180  1  0.93769118  0.18805903  0.43970101  1
  Zn  Zn181  1  0.93896409  0.18762244  0.93891254  1
  Zn  Zn182  1  0.93907127  0.68687874  0.43633541  1
  Zn  Zn183  1  0.93558744  0.68762467  0.93785630  1
  Zn  Zn184  1  0.06167332  0.31248688  0.06203266  1
  Zn  Zn185  1  0.06189614  0.31126333  0.56325640  1
  Zn  Zn186  1  0.06149091  0.81217969  0.06390346  1
  Zn  Zn187  1  0.06447930  0.81226360  0.56447427  1
  Zn  Zn188  1  0.56097427  0.31121201  0.06190136  1
  Zn  Zn189  1  0.56227042  0.31342112  0.56301641  1
  Zn  Zn190  1  0.56406350  0.81115706  0.06105497  1
  Zn  Zn191  1  0.56358233  0.81485593  0.56077693  1
  O  O192  1  0.11696839  0.11807806  0.12569152  1
  O  O193  1  0.11830743  0.12216811  0.61924014  1
  O  O194  1  0.12051497  0.61956533  0.11931006  1
  O  O195  1  0.12579803  0.61699325  0.61521095  1
  O  O196  1  0.62010457  0.11922133  0.12200265  1
  O  O197  1  0.62545052  0.12177277  0.61395588  1
  O  O198  1  0.61970095  0.61397352  0.12556593  1
  O  O199  1  0.61860619  0.61929267  0.62245806  1
  O  O200  1  0.37902150  0.38197260  0.37863783  1
  O  O201  1  0.37274199  0.37566753  0.88788688  1
  O  O202  1  0.37680753  0.88390170  0.37521126  1
  O  O203  1  0.38183480  0.88117200  0.88085294  1
  O  O204  1  0.88036389  0.37969644  0.37952401  1
  O  O205  1  0.88019539  0.37884456  0.88281861  1
  O  O206  1  0.87965591  0.88066207  0.38075772  1
  O  O207  1  0.87975352  0.88126924  0.88067357  1
  O  O208  1  0.25444172  0.00587180  0.36886675  1
  O  O209  1  0.25453031  0.00333877  0.86957047  1
  O  O210  1  0.25605181  0.50537449  0.36832945  1
  O  O211  1  0.25068477  0.50027237  0.85996040  1
  O  O212  1  0.75549855  0.00493197  0.37053876  1
  O  O213  1  0.75574922  0.00489910  0.87015135  1
  O  O214  1  0.75549769  0.50528412  0.36894030  1
  O  O215  1  0.75582248  0.50460939  0.86836068  1
  O  O216  1  0.24463817  0.49449947  0.13138564  1
  O  O217  1  0.24198140  0.49400089  0.63068939  1
  O  O218  1  0.24246422  0.99868438  0.13172009  1
  O  O219  1  0.25081998  0.99174223  0.63457636  1
  O  O220  1  0.74066738  0.49830573  0.13140376  1
  O  O221  1  0.74507615  0.49531416  0.62909085  1
  O  O222  1  0.74406097  0.99540598  0.13227661  1
  O  O223  1  0.74982745  0.99288772  0.63255203  1
  O  O224  1  0.00637082  0.36894683  0.25584640  1
  O  O225  1  0.00112813  0.36789715  0.75633795  1
  O  O226  1  0.00373553  0.87052731  0.25617720  1
  O  O227  1  -0.00164520  0.86503109  0.75551062  1
  O  O228  1  0.50615360  0.37356066  0.25760263  1
  O  O229  1  0.50564726  0.37065504  0.75396347  1
  O  O230  1  0.50711893  0.86774743  0.24928692  1
  O  O231  1  0.50474666  0.87157241  0.75493216  1
  O  O232  1  0.49259977  0.12533595  0.24393389  1
  O  O233  1  0.49494518  0.12882338  0.74811253  1
  O  O234  1  0.49408080  0.63014342  0.24341487  1
  O  O235  1  0.49501514  0.63174449  0.74223176  1
  O  O236  1  0.99386386  0.12995118  0.24682145  1
  O  O237  1  0.99553248  0.12845463  0.74708282  1
  O  O238  1  0.99581574  0.62958720  0.24508265  1
  O  O239  1  0.99308954  0.63489771  0.74833399  1
  O  O240  1  0.36843513  0.25749685  0.00610141  1
  O  O241  1  0.36995200  0.26110469  0.50022962  1
  O  O242  1  0.36847250  0.75422300  0.00366068  1
  O  O243  1  0.37284138  0.75349320  0.50772293  1
  O  O244  1  0.87660054  0.25886788  0.00697507  1
  O  O245  1  0.86777595  0.25652999  0.50097052  1
  O  O246  1  0.87132144  0.75849057  0.00216952  1
  O  O247  1  0.86989508  0.75553530  0.50403032  1
  O  O248  1  0.12576762  0.24267692  0.49329061  1
  O  O249  1  0.13113810  0.24915191  0.99469139  1
  O  O250  1  0.12786419  0.73851433  0.49913696  1
  O  O251  1  0.13455044  0.74389985  1.00124961  1
  O  O252  1  0.63153329  0.24413557  0.49316595  1
  O  O253  1  0.62814030  0.24286589  0.99467104  1
  O  O254  1  0.63230473  0.74982202  0.49203568  1
  O  O255  1  0.62762534  0.74754073  0.99018005  1
  O  O256  1  0.49265453  0.24219953  0.12739170  1
  O  O257  1  0.49950700  0.24682610  0.62609798  1
  O  O258  1  0.49552426  0.74367022  0.12953485  1
  O  O259  1  0.49608708  0.74661657  0.62966295  1
  O  O260  1  0.99550376  0.24446197  0.13239229  1
  O  O261  1  0.99848005  0.24292784  0.63323166  1
  O  O262  1  0.99783572  0.74255002  0.13233554  1
  O  O263  1  0.99291302  0.75013838  0.63466693  1
  O  O264  1  0.00535505  0.25479200  0.36970697  1
  O  O265  1  0.00530400  0.25473053  0.87072434  1
  O  O266  1  0.00180980  0.75704659  0.36816593  1
  O  O267  1  -0.00248357  0.75509782  0.86408797  1
  O  O268  1  0.50668384  0.25750467  0.37473196  1
  O  O269  1  0.51399944  0.25091333  0.87786496  1
  O  O270  1  0.50644851  0.75016295  0.36660238  1
  O  O271  1  0.50488942  0.75644502  0.86773593  1
  O  O272  1  0.24197435  0.12458929  0.49295565  1
  O  O273  1  0.24764608  0.13191562  0.99495354  1
  O  O274  1  0.24128030  0.62542642  0.49350047  1
  O  O275  1  0.24462032  0.63423753  0.99978976  1
  O  O276  1  0.74519961  0.12892684  0.49485126  1
  O  O277  1  0.74422591  0.12401910  0.99489892  1
  O  O278  1  0.74964874  0.63270055  0.49168828  1
  O  O279  1  0.74747364  0.62564162  0.99002841  1
  O  O280  1  0.25657423  0.36969253  0.00636387  1
  O  O281  1  0.25471059  0.37700565  0.50800750  1
  O  O282  1  0.25580044  0.86600539  0.00154746  1
  O  O283  1  0.25197130  0.87624293  0.51160488  1
  O  O284  1  0.76595845  0.37309261  0.00294488  1
  O  O285  1  0.75559010  0.36962060  0.50420040  1
  O  O286  1  0.75597731  0.87590004  0.00684853  1
  O  O287  1  0.75591898  0.87014625  0.50453571  1
  O  O288  1  0.13142460  0.49405744  0.24505587  1
  O  O289  1  0.13331861  0.50297199  0.73969724  1
  O  O290  1  0.12872085  0.99466180  0.24587992  1
  O  O291  1  0.13832904  0.99680682  0.75052583  1
  O  O292  1  0.63013220  0.49459166  0.24216203  1
  O  O293  1  0.63284985  0.49910513  0.74184468  1
  O  O294  1  0.63029610  0.99541235  0.24554480  1
  O  O295  1  0.63200217  0.99406357  0.75042505  1
  O  O296  1  0.36892229  0.00550185  0.25365521  1
  O  O297  1  0.36354278  -0.00057722  0.75772107  1
  O  O298  1  0.37003271  0.50520319  0.25406725  1
  O  O299  1  0.36474998  0.50645273  0.74602143  1
  O  O300  1  0.86952550  0.00548309  0.25661849  1
  O  O301  1  0.86965150  0.00474816  0.75747296  1
  O  O302  1  0.87040206  0.50447224  0.25503596  1
  O  O303  1  0.86913434  0.50486143  0.75428428  1
  O  O304  1  0.12068080  0.37031603  0.36980493  1
  O  O305  1  0.11825696  0.36933561  0.87367760  1
  O  O306  1  0.11755235  0.87479815  0.36916423  1
  O  O307  1  0.11542576  0.86980396  0.87289517  1
  O  O308  1  0.61953859  0.37083482  0.37057402  1
  O  O309  1  0.62766157  0.36249816  0.87682170  1
  O  O310  1  0.62471884  0.86755056  0.36620687  1
  O  O311  1  0.61935271  0.87043097  0.86896455  1
  O  O312  1  0.37932797  0.12953878  0.13000812  1
  O  O313  1  0.37658086  0.13094256  0.62681756  1
  O  O314  1  0.38042290  0.62955393  0.13032225  1
  O  O315  1  0.38105488  0.63149048  0.62924543  1
  O  O316  1  0.88051729  0.12954211  0.13266375  1
  O  O317  1  0.88209863  0.12619169  0.63369270  1
  O  O318  1  0.88160661  0.62357850  0.13124741  1
  O  O319  1  0.87558103  0.63118667  0.63042272  1
  O  O320  1  0.25429284  0.25543220  0.12056881  1
  O  O321  1  0.24406885  0.26567820  0.62417524  1
  O  O322  1  0.25700436  0.75106286  0.11445634  1
  O  O323  1  0.25670803  0.76020647  0.62554185  1
  O  O324  1  0.75950399  0.25255749  0.12395484  1
  O  O325  1  0.75161406  0.25649677  0.61863319  1
  O  O326  1  0.75152071  0.75830701  0.12333653  1
  O  O327  1  0.75490303  0.75578118  0.61927042  1
  O  O328  1  0.24201687  0.24258669  0.37550766  1
  O  O329  1  0.24379079  0.24529785  0.88062936  1
  O  O330  1  0.24746665  0.74159242  0.37635723  1
  O  O331  1  0.25014284  0.74957777  0.88688092  1
  O  O332  1  0.74469674  0.24397240  0.38086588  1
  O  O333  1  0.74285517  0.24211293  0.87954016  1
  O  O334  1  0.74575627  0.74499886  0.37861879  1
  O  O335  1  0.74333162  0.74294983  0.87337738  1
  O  O336  1  0.00019950  0.11724117  0.00824466  1
  O  O337  1  0.00371593  0.11920076  0.50629519  1
  O  O338  1  0.00775220  0.62503212  0.00575897  1
  O  O339  1  0.01098315  0.62256415  0.50124953  1
  O  O340  1  0.50538407  0.11847290  0.00696533  1
  O  O341  1  0.50791488  0.11534151  0.49682129  1
  O  O342  1  0.50250616  0.62185968  0.00825307  1
  O  O343  1  0.50123070  0.61918733  0.50564116  1
  O  O344  1  0.49380020  0.38318637  0.49350875  1
  O  O345  1  0.48671685  0.37593413  1.00011993  1
  O  O346  1  0.49943167  0.88704881  0.49599919  1
  O  O347  1  0.49515266  0.88051891  0.99429917  1
  O  O348  1  0.99372686  0.37622557  0.49334626  1
  O  O349  1  0.99075356  0.37713758  0.99388010  1
  O  O350  1  0.99445976  0.87915353  0.49611531  1
  O  O351  1  0.99326259  0.87992227  0.99563426  1
  O  O352  1  0.49445084  0.49603074  0.37898186  1
  O  O353  1  0.49704496  0.49563821  0.87837732  1
  O  O354  1  0.49378849  0.99867596  0.38255909  1
  O  O355  1  0.49527806  0.99500663  0.88167478  1
  O  O356  1  0.99345438  0.49217692  0.37459733  1
  O  O357  1  0.99316641  0.49380433  0.87459290  1
  O  O358  1  0.99320053  0.99442826  0.38162052  1
  O  O359  1  0.99437843  0.99451383  0.88084647  1
  O  O360  1  0.00374018  0.00519462  0.12142825  1
  O  O361  1  0.00095889  0.00518550  0.62017236  1
  O  O362  1  0.00857256  0.50693429  0.12399512  1
  O  O363  1  0.01191054  0.50169373  0.62466647  1
  O  O364  1  0.50538087  0.00501194  0.11978050  1
  O  O365  1  0.50153667  0.00192326  0.61200933  1
  O  O366  1  0.51007734  0.50520071  0.12530344  1
  O  O367  1  0.50504615  0.50592972  0.61870549  1
  O  O368  1  0.24499778  0.38030653  0.24502979  1
  O  O369  1  0.24722721  0.38616460  0.73973053  1
  O  O370  1  0.24237944  0.88144944  0.24801975  1
  O  O371  1  0.25006319  0.88262994  0.74300928  1
  O  O372  1  0.74334547  0.38203389  0.24959828  1
  O  O373  1  0.74966337  0.38141035  0.74323901  1
  O  O374  1  0.74497486  0.88111933  0.24495807  1
  O  O375  1  0.74548860  0.88051836  0.74546110  1
  O  O376  1  0.25431343  0.11854463  0.25568515  1
  O  O377  1  0.25001936  0.11459470  0.75721003  1
  O  O378  1  0.25570927  0.61947165  0.25354237  1
  O  O379  1  0.25592535  0.61727527  0.74694708  1
  O  O380  1  0.75536749  0.11910448  0.25683318  1
  O  O381  1  0.75630130  0.11900890  0.75680290  1
  O  O382  1  0.75652224  0.61903036  0.25479764  1
  O  O383  1  0.75582390  0.61893630  0.75432268  1
  O  O384  1  0.36850577  0.11983153  0.36936485  1
  O  O385  1  0.36673554  0.11805962  0.87689267  1
  O  O386  1  0.37060496  0.61935858  0.36827707  1
  O  O387  1  0.37151853  0.62296464  0.86448641  1
  O  O388  1  0.86989118  0.11952465  0.37081818  1
  O  O389  1  0.87099778  0.11863068  0.87160758  1
  O  O390  1  0.87040012  0.61902555  0.36855630  1
  O  O391  1  0.86950418  0.61858671  0.86833757  1
  O  O392  1  0.12998187  0.37966793  0.13109058  1
  O  O393  1  0.13206873  0.38617621  0.62365687  1
  O  O394  1  0.12448118  0.88223210  0.13288982  1
  O  O395  1  0.13682967  0.87658590  0.62894633  1
  O  O396  1  0.62505204  0.38281807  0.13108297  1
  O  O397  1  0.63372426  0.38323791  0.62391185  1
  O  O398  1  0.62964165  0.88157429  0.13015209  1
  O  O399  1  0.63229703  0.87705843  0.63202705  1
  O  O400  1  0.11954849  0.25525271  0.25591877  1
  O  O401  1  0.11811764  0.25219385  0.75823682  1
  O  O402  1  0.11834715  0.75633036  0.25101832  1
  O  O403  1  0.11207784  0.74925920  0.75053208  1
  O  O404  1  0.62390810  0.25615305  0.25747082  1
  O  O405  1  0.62712985  0.24985580  0.76427217  1
  O  O406  1  0.62009825  0.75471477  0.25359956  1
  O  O407  1  0.61922937  0.75703529  0.75459154  1
  O  O408  1  0.37493723  0.24296614  0.24363728  1
  O  O409  1  0.37599327  0.24988611  0.74460741  1
  O  O410  1  0.38015562  0.74417749  0.24329316  1
  O  O411  1  0.38174851  0.74589226  0.74344936  1
  O  O412  1  0.88099119  0.24471926  0.24695834  1
  O  O413  1  0.88194770  0.24180484  0.75136031  1
  O  O414  1  0.88207250  0.74240990  0.24826268  1
  O  O415  1  0.88154571  0.74506309  0.74444129  1
  O  O416  1  0.38005828  0.49618470  0.49304625  1
  O  O417  1  0.37346442  0.48869168  0.99928143  1
  O  O418  1  0.38438193  1.00017840  0.49214688  1
  O  O419  1  0.38016423  0.99427133  0.99614347  1
  O  O420  1  0.87594408  0.49367112  0.49221552  1
  O  O421  1  0.87768888  0.49082846  0.99351730  1
  O  O422  1  0.87999936  0.99428983  0.49538534  1
  O  O423  1  0.88082685  0.99413431  0.99535109  1
  O  O424  1  0.11738182  0.00004977  0.00756139  1
  O  O425  1  0.11665295  0.00678303  0.50167266  1
  O  O426  1  0.12592235  0.50787637  0.00645920  1
  O  O427  1  0.12452559  0.50931173  0.50787179  1
  O  O428  1  0.61900924  0.00497377  0.00621662  1
  O  O429  1  0.61676491  0.00666956  0.49861104  1
  O  O430  1  0.62541489  0.49875408  0.01288989  1
  O  O431  1  0.61820141  0.50309169  0.50531665  1
  O  O432  1  0.36890654  0.36974473  0.11863717  1
  O  O433  1  0.36350611  0.37864136  0.61676668  1
  O  O434  1  0.37390852  0.86763550  0.11766245  1
  O  O435  1  0.36567116  0.86995358  0.62430648  1
  O  O436  1  0.87747545  0.36997681  0.11717378  1
  O  O437  1  0.86823828  0.37394649  0.61764786  1
  O  O438  1  0.86786294  0.87494505  0.11916526  1
  O  O439  1  0.86874917  0.86905817  0.61927288  1
  O  O440  1  0.12847636  0.12968287  0.38040068  1
  O  O441  1  0.13171352  0.13178374  0.87919429  1
  O  O442  1  0.13123958  0.62364167  0.38338526  1
  O  O443  1  0.12900345  0.62817319  0.88429700  1
  O  O444  1  0.63133694  0.13026353  0.38103604  1
  O  O445  1  0.63135048  0.13097282  0.88280259  1
  O  O446  1  0.63286904  0.63173501  0.37387563  1
  O  O447  1  0.63144727  0.63142902  0.87333128  1
