# generated using pymatgen
data_V3Zn3O8
_symmetry_space_group_name_H-M   'P 1'
_cell_length_a   17.09001051
_cell_length_b   17.08890961
_cell_length_c   17.08875713
_cell_angle_alpha   90.00205408
_cell_angle_beta   90.01382642
_cell_angle_gamma   89.98717593
_symmetry_Int_Tables_number   1
_chemical_formula_structural   V3Zn3O8
_chemical_formula_sum   'V96 Zn96 O256'
_cell_volume   4990.76517885
_cell_formula_units_Z   32
loop_
 _symmetry_equiv_pos_site_id
 _symmetry_equiv_pos_as_xyz
  1  'x, y, z'
loop_
 _atom_site_type_symbol
 _atom_site_label
 _atom_site_symmetry_multiplicity
 _atom_site_fract_x
 _atom_site_fract_y
 _atom_site_fract_z
 _atom_site_occupancy
  V  V0  1  -0.00032632  0.25085340  0.75123474  1
  V  V1  1  0.00009712  0.74990334  0.24968991  1
  V  V2  1  0.74935276  0.37522320  0.62485712  1
  V  V3  1  0.00007348  -0.00021868  0.00003117  1
  V  V4  1  -0.00097315  0.62599130  0.12515224  1
  V  V5  1  0.37396530  0.75037521  0.12433090  1
  V  V6  1  0.12375102  0.37511057  0.75001992  1
  V  V7  1  0.87497507  0.49981628  0.37439813  1
  V  V8  1  0.87405152  -0.00068631  0.37431785  1
  V  V9  1  0.12502775  0.12577775  0.00123464  1
  V  V10  1  0.24954483  0.37572806  0.12638420  1
  V  V11  1  0.12364793  0.62543035  0.00001013  1
  V  V12  1  0.12664355  0.62449837  0.49935800  1
  V  V13  1  -0.00007970  0.87456395  0.37480445  1
  V  V14  1  0.12574947  0.74987919  0.87543456  1
  V  V15  1  0.50016147  0.62447728  0.12423594  1
  V  V16  1  0.87526392  0.74995276  0.12526026  1
  V  V17  1  0.49937812  0.87563579  0.87490945  1
  V  V18  1  0.12491612  0.87510855  0.75007053  1
  V  V19  1  0.62443094  0.87353103  0.24963333  1
  V  V20  1  0.37470680  0.87496051  0.50040547  1
  V  V21  1  0.62443999  -0.00033654  0.12382768  1
  V  V22  1  0.12611898  0.37480202  0.25075736  1
  V  V23  1  0.75003149  0.62514096  0.37513724  1
  V  V24  1  0.12552919  0.12567731  0.49972758  1
  V  V25  1  0.74971055  0.87478511  0.12411514  1
  V  V26  1  0.75021338  -0.00034727  0.24924434  1
  V  V27  1  0.75073461  0.49971119  0.25012773  1
  V  V28  1  -0.00017242  0.12488535  0.62564354  1
  V  V29  1  0.49694624  0.12860794  0.62663464  1
  V  V30  1  0.87530014  0.37589929  -0.00077487  1
  V  V31  1  -0.00010177  0.24982252  0.25040182  1
  V  V32  1  0.12348911  0.25106473  0.87513486  1
  V  V33  1  0.49910312  -0.00110794  -0.00028393  1
  V  V34  1  0.50019206  -0.00104029  0.50051907  1
  V  V35  1  0.37484161  0.62521448  0.24978548  1
  V  V36  1  0.74827256  0.24918778  -0.00065316  1
  V  V37  1  0.12571420  0.24849012  0.37657825  1
  V  V38  1  0.87517126  0.37405349  0.49977361  1
  V  V39  1  0.75056377  -0.00002022  0.75015015  1
  V  V40  1  0.87418120  0.12409518  0.25057873  1
  V  V41  1  0.87570655  0.87583491  0.49911255  1
  V  V42  1  0.37425701  0.00097486  0.87546053  1
  V  V43  1  0.12600655  0.49878906  0.62531120  1
  V  V44  1  0.74871582  0.12477678  0.87545571  1
  V  V45  1  0.37567807  0.37283868  0.50146797  1
  V  V46  1  0.24907346  0.74968582  0.00059662  1
  V  V47  1  0.62573419  0.50000860  0.12484879  1
  V  V48  1  0.12625780  -0.00001513  0.12635914  1
  V  V49  1  0.00096202  0.12495842  0.12548650  1
  V  V50  1  0.00112743  0.49939752  0.49961556  1
  V  V51  1  0.24993647  0.49995263  0.24989634  1
  V  V52  1  -0.00004582  0.87554287  0.87552271  1
  V  V53  1  0.24973911  0.87512092  0.62562539  1
  V  V54  1  0.12395636  0.00081181  0.62518914  1
  V  V55  1  0.62456360  0.87462366  0.75049339  1
  V  V56  1  0.75168350  0.50099312  0.75016064  1
  V  V57  1  0.00041534  0.37469706  0.37492755  1
  V  V58  1  0.75027387  0.87491651  0.62479925  1
  V  V59  1  0.62480788  0.50061984  0.62409993  1
  V  V60  1  0.62442172  -0.00044529  0.62447383  1
  V  V61  1  0.25063103  0.62562149  0.37558940  1
  V  V62  1  0.50036604  0.87321695  0.37481755  1
  V  V63  1  0.87581174  0.75104356  0.62417125  1
  V  V64  1  0.74910098  0.24858643  0.49915104  1
  V  V65  1  0.75015542  0.74929341  0.49852088  1
  V  V66  1  0.37502158  0.12520588  0.25114902  1
  V  V67  1  0.87417304  0.24981043  0.62537811  1
  V  V68  1  0.12487727  0.87537926  0.25083653  1
  V  V69  1  0.24954724  0.12502087  0.87522455  1
  V  V70  1  0.62568855  0.62522907  -0.00211698  1
  V  V71  1  0.87553414  0.87532467  -0.00034230  1
  V  V72  1  0.87436481  0.12524795  0.75010764  1
  V  V73  1  0.24962147  0.00156024  0.75138663  1
  V  V74  1  0.74941491  0.75000958  -0.00124403  1
  V  V75  1  -0.00062163  0.50018800  -0.00000995  1
  V  V76  1  0.37651675  0.49976909  0.37476311  1
  V  V77  1  0.87547524  0.24929599  0.12472568  1
  V  V78  1  0.49982636  0.12532179  0.12504686  1
  V  V79  1  0.00104089  0.62520808  0.62378716  1
  V  V80  1  0.49956730  0.75137648  0.75062025  1
  V  V81  1  0.24972424  0.49962336  0.75055073  1
  V  V82  1  0.00069420  0.75024573  0.74931006  1
  V  V83  1  0.50019245  0.74989828  0.25003590  1
  V  V84  1  0.50285923  0.37443873  0.37394895  1
  V  V85  1  0.24976190  0.74912954  0.50039366  1
  V  V86  1  0.37480433  0.00005298  0.37499227  1
  V  V87  1  0.62556973  0.37514465  0.24934035  1
  V  V88  1  0.62573464  0.12508115  0.49852791  1
  V  V89  1  0.37523933  0.74960169  0.62645250  1
  V  V90  1  0.37557536  0.37576953  0.00028836  1
  V  V91  1  0.49978211  0.62477382  0.62549099  1
  V  V92  1  0.24980470  0.87513180  0.12611002  1
  V  V93  1  0.24884661  0.25128963  0.00122599  1
  V  V94  1  0.37588197  0.49962064  0.87556627  1
  V  V95  1  0.87489225  0.62552236  0.74880747  1
  Zn  Zn96  1  0.37387683  0.12885179  0.74987103  1
  Zn  Zn97  1  -0.00083460  -0.00049767  0.49993604  1
  Zn  Zn98  1  0.62407039  0.62717690  0.49805486  1
  Zn  Zn99  1  0.50376889  0.37087008  0.87450152  1
  Zn  Zn100  1  0.24913175  -0.00005008  0.25226973  1
  Zn  Zn101  1  0.62496056  0.74977367  0.87398776  1
  Zn  Zn102  1  0.37553603  0.25131756  0.12679673  1
  Zn  Zn103  1  0.12504288  0.75057894  0.37497215  1
  Zn  Zn104  1  0.25073118  0.12487434  0.37494655  1
  Zn  Zn105  1  0.37430112  0.87440734  0.00033480  1
  Zn  Zn106  1  0.25259798  0.24957534  0.50084957  1
  Zn  Zn107  1  0.62248673  0.12618828  -0.00171752  1
  Zn  Zn108  1  0.87576845  -0.00070090  0.87483930  1
  Zn  Zn109  1  0.62731311  0.24747009  0.37202505  1
  Zn  Zn110  1  0.74821091  0.12511351  0.37403762  1
  Zn  Zn111  1  0.50263524  0.25055579  0.24847627  1
  Zn  Zn112  1  0.87438353  0.50260624  0.87446809  1
  Zn  Zn113  1  0.50097521  0.50103805  0.50012898  1
  Zn  Zn114  1  0.37398711  0.62533847  0.75268012  1
  Zn  Zn115  1  0.25008675  0.62604817  0.87586301  1
  Zn  Zn116  1  0.62357678  0.25299161  0.87122620  1
  Zn  Zn117  1  0.87582357  0.62451325  0.25004520  1
  Zn  Zn118  1  0.37264098  0.25121554  0.62898616  1
  Zn  Zn119  1  0.62513033  0.74835693  0.37545745  1
  Zn  Zn120  1  0.74870978  0.37448907  0.12561077  1
  Zn  Zn121  1  0.62120430  0.37230813  0.75185780  1
  Zn  Zn122  1  0.25090065  0.37220266  0.62335885  1
  Zn  Zn123  1  -0.00095588  0.37662458  0.87403933  1
  Zn  Zn124  1  0.12444607  0.50067017  0.12600330  1
  Zn  Zn125  1  0.49867352  0.25181507  0.75522824  1
  Zn  Zn126  1  0.50237725  0.49869886  -0.00208744  1
  Zn  Zn127  1  0.75042940  0.62734238  0.87283303  1
  Zn  Zn128  1  0.18980375  0.18845438  0.18858037  1
  Zn  Zn129  1  0.18948419  0.19048861  0.68618604  1
  Zn  Zn130  1  0.18570833  0.68797676  0.18688644  1
  Zn  Zn131  1  0.18801237  0.68591583  0.68775583  1
  Zn  Zn132  1  0.68695293  0.18792939  0.18694230  1
  Zn  Zn133  1  0.68419833  0.18830636  0.68746825  1
  Zn  Zn134  1  0.68806068  0.68675753  0.18786085  1
  Zn  Zn135  1  0.68634697  0.68821184  0.68600672  1
  Zn  Zn136  1  0.31294217  0.30948884  0.31497014  1
  Zn  Zn137  1  0.31335342  0.31136286  0.81157337  1
  Zn  Zn138  1  0.31192125  0.81238326  0.31255572  1
  Zn  Zn139  1  0.31323521  0.81370607  0.81382497  1
  Zn  Zn140  1  0.81070847  0.31196698  0.31333076  1
  Zn  Zn141  1  0.81129929  0.31400866  0.81331320  1
  Zn  Zn142  1  0.81292433  0.81161120  0.31182850  1
  Zn  Zn143  1  0.81235292  0.81170245  0.81358836  1
  Zn  Zn144  1  0.19004257  0.43711185  0.43660852  1
  Zn  Zn145  1  0.18683379  0.43742998  0.93665099  1
  Zn  Zn146  1  0.18764298  0.93936143  0.43677502  1
  Zn  Zn147  1  0.18767607  0.93703856  0.93922859  1
  Zn  Zn148  1  0.68753744  0.43859841  0.43812414  1
  Zn  Zn149  1  0.68809327  0.43773297  0.93510237  1
  Zn  Zn150  1  0.68725450  0.93697208  0.43596386  1
  Zn  Zn151  1  0.68585115  0.93848093  0.93689033  1
  Zn  Zn152  1  0.31284071  0.06130098  0.06278797  1
  Zn  Zn153  1  0.31157748  0.06194131  0.56231090  1
  Zn  Zn154  1  0.31025298  0.56280907  0.06283379  1
  Zn  Zn155  1  0.31453747  0.55979322  0.56272497  1
  Zn  Zn156  1  0.81366674  0.06199567  0.06256205  1
  Zn  Zn157  1  0.81196376  0.06226665  0.56163459  1
  Zn  Zn158  1  0.81148094  0.56315808  0.06429622  1
  Zn  Zn159  1  0.81294002  0.56331232  0.56124184  1
  Zn  Zn160  1  0.43890030  0.43938491  0.18670015  1
  Zn  Zn161  1  0.43879830  0.43516955  0.69005080  1
  Zn  Zn162  1  0.43641141  0.93775350  0.18781622  1
  Zn  Zn163  1  0.43626295  0.94006042  0.68900505  1
  Zn  Zn164  1  0.93683016  0.43691734  0.18641490  1
  Zn  Zn165  1  0.93755039  0.43720476  0.68601512  1
  Zn  Zn166  1  0.93815174  0.93701598  0.18735504  1
  Zn  Zn167  1  0.93735471  0.93874093  0.68780059  1
  Zn  Zn168  1  0.06067840  0.06097953  0.31348866  1
  Zn  Zn169  1  0.06275939  0.06336484  0.81354817  1
  Zn  Zn170  1  0.06343194  0.56303757  0.31244032  1
  Zn  Zn171  1  0.06194021  0.56319278  0.81415340  1
  Zn  Zn172  1  0.56252927  0.06049393  0.31253352  1
  Zn  Zn173  1  0.56268738  0.06314153  0.81164192  1
  Zn  Zn174  1  0.56422497  0.56192230  0.31212790  1
  Zn  Zn175  1  0.56183871  0.56091834  0.81202279  1
  Zn  Zn176  1  0.44111801  0.18908710  0.43717482  1
  Zn  Zn177  1  0.43604663  0.18858146  0.93736799  1
  Zn  Zn178  1  0.43735982  0.68803301  0.43859835  1
  Zn  Zn179  1  0.43720867  0.68716734  0.93718186  1
  Zn  Zn180  1  0.93719469  0.18605271  0.43714986  1
  Zn  Zn181  1  0.93675239  0.18721627  0.93654816  1
  Zn  Zn182  1  0.93717746  0.68756339  0.43606644  1
  Zn  Zn183  1  0.93617632  0.68740939  0.93537258  1
  Zn  Zn184  1  0.06288703  0.31385364  0.06411001  1
  Zn  Zn185  1  0.06279933  0.31159296  0.56410104  1
  Zn  Zn186  1  0.06308066  0.81274003  0.06341620  1
  Zn  Zn187  1  0.06323434  0.81267283  0.56084612  1
  Zn  Zn188  1  0.56189342  0.31264712  0.06197698  1
  Zn  Zn189  1  0.56326017  0.31219168  0.56164845  1
  Zn  Zn190  1  0.56134437  0.81184025  0.06178802  1
  Zn  Zn191  1  0.56390385  0.81088942  0.56216558  1
  O  O192  1  0.12003143  0.12097868  0.12073000  1
  O  O193  1  0.11923855  0.12094440  0.61862097  1
  O  O194  1  0.11664074  0.62348047  0.11783661  1
  O  O195  1  0.11997913  0.61897202  0.61915925  1
  O  O196  1  0.61482229  0.11828646  0.12490763  1
  O  O197  1  0.61729082  0.11764864  0.61842649  1
  O  O198  1  0.62031657  0.62072748  0.11690532  1
  O  O199  1  0.61625492  0.61807705  0.62383355  1
  O  O200  1  0.38408153  0.38004841  0.37976838  1
  O  O201  1  0.37049621  0.38430133  0.88647846  1
  O  O202  1  0.38069655  0.87927043  0.38083986  1
  O  O203  1  0.38152732  0.88291638  0.87658727  1
  O  O204  1  0.88132753  0.37957063  0.38079189  1
  O  O205  1  0.87722062  0.37725726  0.88818154  1
  O  O206  1  0.87981571  0.87992693  0.37965362  1
  O  O207  1  0.88242872  0.87592591  0.88128070  1
  O  O208  1  0.25940545  0.00341151  0.37311223  1
  O  O209  1  0.25299954  0.00500188  0.87121227  1
  O  O210  1  0.25660052  0.50636243  0.36891015  1
  O  O211  1  0.25652390  0.50139020  0.86686566  1
  O  O212  1  0.75647316  -0.00000783  0.36654592  1
  O  O213  1  0.75245210  0.00822819  0.86965762  1
  O  O214  1  0.75617832  0.50532200  0.37083941  1
  O  O215  1  0.75248806  0.50351738  0.86080143  1
  O  O216  1  0.24758158  0.49409931  0.13285922  1
  O  O217  1  0.24465603  0.49820915  0.63454312  1
  O  O218  1  0.24311266  0.99352037  0.12649852  1
  O  O219  1  0.24370503  0.99416046  0.63076920  1
  O  O220  1  0.74373887  0.49818771  0.13207567  1
  O  O221  1  0.74404735  0.49666256  0.63072874  1
  O  O222  1  0.74513034  0.99403859  0.12921041  1
  O  O223  1  0.74454404  0.99427343  0.63028386  1
  O  O224  1  0.00513277  0.36927819  0.25517593  1
  O  O225  1  0.00456235  0.36897394  0.75143352  1
  O  O226  1  0.00527631  0.86943851  0.25452433  1
  O  O227  1  0.00546132  0.86960372  0.75450301  1
  O  O228  1  0.50573395  0.37612008  0.25806728  1
  O  O229  1  0.50281753  0.37195077  0.75521434  1
  O  O230  1  0.50452391  0.86964368  0.25473957  1
  O  O231  1  0.50521017  0.87136142  0.75431420  1
  O  O232  1  0.49269466  0.12357184  0.24091911  1
  O  O233  1  0.49847309  0.12234442  0.73640437  1
  O  O234  1  0.49439369  0.62980376  0.24456207  1
  O  O235  1  0.49898126  0.63117318  0.73998997  1
  O  O236  1  0.99454580  0.13065373  0.24444968  1
  O  O237  1  0.99470920  0.13087871  0.74557303  1
  O  O238  1  0.99925460  0.63094416  0.24367984  1
  O  O239  1  0.99618560  0.63059782  0.74300543  1
  O  O240  1  0.36663330  0.26096748  0.00138774  1
  O  O241  1  0.37566317  0.26219441  0.49865103  1
  O  O242  1  0.36796077  0.75040684  0.00701706  1
  O  O243  1  0.36924061  0.75576476  0.50692606  1
  O  O244  1  0.86924879  0.25665940  0.00449007  1
  O  O245  1  0.87086990  0.25474904  0.50608388  1
  O  O246  1  0.87016972  0.75591657  0.00535605  1
  O  O247  1  0.87054687  0.75607408  0.50570526  1
  O  O248  1  0.12252912  0.24039204  0.49470425  1
  O  O249  1  0.12876497  0.24526202  0.99597454  1
  O  O250  1  0.13243582  0.74252766  0.49970278  1
  O  O251  1  0.12869294  0.74528977  0.99474170  1
  O  O252  1  0.63252119  0.24332775  0.49886520  1
  O  O253  1  0.63977873  0.24786407  1.00128279  1
  O  O254  1  0.63441598  0.74841137  0.49724957  1
  O  O255  1  0.63012479  0.73998942  1.00066493  1
  O  O256  1  0.49789769  0.23712009  0.12513572  1
  O  O257  1  0.49891429  0.23599980  0.62192839  1
  O  O258  1  0.49368507  0.74449375  0.13061727  1
  O  O259  1  0.49490083  0.74364198  0.63015310  1
  O  O260  1  0.99533638  0.24432134  0.13070850  1
  O  O261  1  0.99357447  0.24462376  0.63163577  1
  O  O262  1  0.99435199  0.74566210  0.12942347  1
  O  O263  1  0.99593641  0.74502683  0.62996528  1
  O  O264  1  0.00437189  0.25560509  0.36937672  1
  O  O265  1  0.00590623  0.25061878  0.86888049  1
  O  O266  1  0.00112056  0.75641780  0.36832783  1
  O  O267  1  0.00583162  0.75601461  0.86873943  1
  O  O268  1  0.50424358  0.26397419  0.37236197  1
  O  O269  1  0.50571534  0.25027199  0.87622452  1
  O  O270  1  0.50013000  0.75561252  0.36814965  1
  O  O271  1  0.50065867  0.75682819  0.86829933  1
  O  O272  1  0.23595468  0.12522853  0.49932772  1
  O  O273  1  0.24374829  0.13071857  0.99622760  1
  O  O274  1  0.24649280  0.62898006  0.49574335  1
  O  O275  1  0.24123497  0.63185128  1.00012616  1
  O  O276  1  0.74342860  0.13059366  0.49987236  1
  O  O277  1  0.75249890  0.13259675  0.99228470  1
  O  O278  1  0.75087213  0.63147733  0.49266103  1
  O  O279  1  0.74053233  0.63069058  1.00026014  1
  O  O280  1  0.25557211  0.37135234  0.00612917  1
  O  O281  1  0.26293129  0.37491419  0.49926545  1
  O  O282  1  0.24986376  0.86749260  0.00800591  1
  O  O283  1  0.25481471  0.86994179  0.50643853  1
  O  O284  1  0.75956901  0.36663530  0.00106558  1
  O  O285  1  0.75622642  0.37005057  0.50524855  1
  O  O286  1  0.75477262  0.87073106  0.00516760  1
  O  O287  1  0.75595134  0.87011737  0.50556817  1
  O  O288  1  0.13169148  0.49249667  0.25015940  1
  O  O289  1  0.13068345  0.49595418  0.74603378  1
  O  O290  1  0.12516605  0.99418006  0.24357347  1
  O  O291  1  0.12954888  0.99439046  0.74528550  1
  O  O292  1  0.63131522  0.49472298  0.24401844  1
  O  O293  1  0.63548216  0.50237883  0.73905635  1
  O  O294  1  0.63002850  0.99312056  0.24324648  1
  O  O295  1  0.63135930  0.99401496  0.74391031  1
  O  O296  1  0.37527682  0.00922630  0.25633635  1
  O  O297  1  0.36624320  0.00258477  0.75704509  1
  O  O298  1  0.36950933  0.50638659  0.25503317  1
  O  O299  1  0.36509120  0.49875191  0.75871389  1
  O  O300  1  0.86963958  0.00452984  0.25335797  1
  O  O301  1  0.86836442  0.00701473  0.75106391  1
  O  O302  1  0.86968968  0.49973321  0.25684737  1
  O  O303  1  0.86693973  0.50660834  0.74668719  1
  O  O304  1  0.11921355  0.36943954  0.37065799  1
  O  O305  1  0.12198591  0.36824817  0.86877649  1
  O  O306  1  0.11855344  0.87410058  0.36951610  1
  O  O307  1  0.11939243  0.86974239  0.86956636  1
  O  O308  1  0.61674623  0.37787357  0.36896370  1
  O  O309  1  0.62343693  0.37297459  0.87191761  1
  O  O310  1  0.61781785  0.87346756  0.36733637  1
  O  O311  1  0.61760602  0.87465602  0.86779318  1
  O  O312  1  0.38422704  0.12341844  0.13365726  1
  O  O313  1  0.38599869  0.12422545  0.62365329  1
  O  O314  1  0.37963872  0.62988628  0.13055865  1
  O  O315  1  0.38433327  0.62968459  0.62707778  1
  O  O316  1  0.88206792  0.12943424  0.13039251  1
  O  O317  1  0.87952461  0.13064210  0.63039388  1
  O  O318  1  0.88130099  0.63241409  0.12611238  1
  O  O319  1  0.88226291  0.63148244  0.62814980  1
  O  O320  1  0.25215948  0.25724491  0.11897143  1
  O  O321  1  0.25388731  0.25496684  0.61898304  1
  O  O322  1  0.25454211  0.75507705  0.12026668  1
  O  O323  1  0.25505860  0.75508293  0.62078191  1
  O  O324  1  0.75768529  0.24924111  0.11475792  1
  O  O325  1  0.75591993  0.25522092  0.61941686  1
  O  O326  1  0.75528088  0.75597698  0.11932072  1
  O  O327  1  0.75665698  0.75597255  0.61992756  1
  O  O328  1  0.24098072  0.24543727  0.37907215  1
  O  O329  1  0.24251432  0.24493988  0.88152229  1
  O  O330  1  0.24994280  0.74328147  0.38285521  1
  O  O331  1  0.24325829  0.74962676  0.88113220  1
  O  O332  1  0.74852790  0.24666904  0.38374059  1
  O  O333  1  0.75272000  0.24094817  0.88421071  1
  O  O334  1  0.75059811  0.74273082  0.38013412  1
  O  O335  1  0.74581996  0.74807431  0.88254032  1
  O  O336  1  0.00520793  0.12066960  0.00588551  1
  O  O337  1  0.00864471  0.12378826  0.50707677  1
  O  O338  1  0.00269890  0.61821691  0.00487798  1
  O  O339  1  0.00578416  0.61933145  0.50448073  1
  O  O340  1  0.49940023  0.11834543  0.01068196  1
  O  O341  1  0.50544476  0.11773882  0.50640783  1
  O  O342  1  0.51019094  0.62445266  0.00588358  1
  O  O343  1  0.50099500  0.62403993  0.51282752  1
  O  O344  1  0.49454623  0.37806822  0.49035309  1
  O  O345  1  0.48630317  0.37757534  1.00027570  1
  O  O346  1  0.49412519  0.87890929  0.49600050  1
  O  O347  1  0.49849196  0.88103967  0.99350662  1
  O  O348  1  0.99515104  0.37978991  0.49474713  1
  O  O349  1  0.99176775  0.38308468  1.00116265  1
  O  O350  1  0.99328681  0.87579935  0.49399074  1
  O  O351  1  0.99567559  0.88001522  0.99533056  1
  O  O352  1  0.49516806  0.49128924  0.37535723  1
  O  O353  1  0.48633360  0.49837930  0.87650835  1
  O  O354  1  0.49468804  0.99228539  0.38125210  1
  O  O355  1  0.49471334  0.99622937  0.87970264  1
  O  O356  1  0.99557480  0.49414224  0.38052460  1
  O  O357  1  0.99639998  0.49917536  0.88780766  1
  O  O358  1  0.99152038  0.99208528  0.37603658  1
  O  O359  1  0.99967700  0.99378303  0.88187110  1
  O  O360  1  0.00604687  0.00564447  0.11976424  1
  O  O361  1  0.00637649  0.00693173  0.62462783  1
  O  O362  1  -0.00013546  0.50548807  0.11458466  1
  O  O363  1  0.00567533  0.50575760  0.61875598  1
  O  O364  1  0.50446807  0.00661874  0.12028663  1
  O  O365  1  0.50506606  0.00580750  0.61905699  1
  O  O366  1  0.50708709  0.50802373  0.12251796  1
  O  O367  1  0.50851991  0.50922477  0.62687979  1
  O  O368  1  0.24611531  0.37975599  0.24697781  1
  O  O369  1  0.24292344  0.38605872  0.74960694  1
  O  O370  1  0.24326393  0.87580237  0.24394018  1
  O  O371  1  0.24360037  0.88058582  0.74489521  1
  O  O372  1  0.74384980  0.38142643  0.24855619  1
  O  O373  1  0.75305291  0.38650690  0.74199714  1
  O  O374  1  0.74493488  0.87951584  0.24293463  1
  O  O375  1  0.74571219  0.87980182  0.74407395  1
  O  O376  1  0.26253836  0.12254113  0.25089765  1
  O  O377  1  0.24723032  0.11804983  0.75778874  1
  O  O378  1  0.25525842  0.62079581  0.25497510  1
  O  O379  1  0.25053701  0.61210504  0.75198407  1
  O  O380  1  0.75677693  0.11759541  0.24908399  1
  O  O381  1  0.75504451  0.12024123  0.75685504  1
  O  O382  1  0.75216613  0.61825215  0.25718103  1
  O  O383  1  0.75610026  0.61677983  0.74624014  1
  O  O384  1  0.37852537  0.11930502  0.36669403  1
  O  O385  1  0.36573065  0.11800075  0.87568207  1
  O  O386  1  0.37053210  0.62035376  0.36961423  1
  O  O387  1  0.37152403  0.61351685  0.87420682  1
  O  O388  1  0.87417150  0.11783805  0.36762642  1
  O  O389  1  0.86522152  0.12329821  0.86927961  1
  O  O390  1  0.86836104  0.61718777  0.37374079  1
  O  O391  1  0.87206461  0.62383240  0.86473135  1
  O  O392  1  0.13114856  0.37664190  0.13337018  1
  O  O393  1  0.12499041  0.38234751  0.63162798  1
  O  O394  1  0.12946907  0.88075488  0.13087799  1
  O  O395  1  0.13001334  0.88003396  0.63032973  1
  O  O396  1  0.62551059  0.38184068  0.13068453  1
  O  O397  1  0.63093378  0.38626987  0.62475717  1
  O  O398  1  0.62990953  0.87989610  0.12977606  1
  O  O399  1  0.63057764  0.88022274  0.63026887  1
  O  O400  1  0.11902433  0.25445993  0.25607937  1
  O  O401  1  0.11891311  0.25518267  0.75536535  1
  O  O402  1  0.11805396  0.75722552  0.25148185  1
  O  O403  1  0.12002311  0.75553675  0.75416081  1
  O  O404  1  0.62369414  0.25888248  0.25139221  1
  O  O405  1  0.62132141  0.25373317  0.75199808  1
  O  O406  1  0.61788658  0.75636887  0.24988469  1
  O  O407  1  0.61811597  0.75724860  0.74975821  1
  O  O408  1  0.37951783  0.23832474  0.24849727  1
  O  O409  1  0.37869924  0.24555240  0.74674667  1
  O  O410  1  0.38009870  0.74407181  0.24420456  1
  O  O411  1  0.38052593  0.74880794  0.74359048  1
  O  O412  1  0.88033228  0.24516110  0.24475777  1
  O  O413  1  0.87906392  0.24532205  0.74467816  1
  O  O414  1  0.88202162  0.74936260  0.24206212  1
  O  O415  1  0.88124999  0.74625700  0.74290672  1
  O  O416  1  0.37823591  0.49125751  0.49251684  1
  O  O417  1  0.37229828  0.49208893  0.99236062  1
  O  O418  1  0.38035430  0.99346916  0.49526913  1
  O  O419  1  0.38102417  0.99740842  0.99361746  1
  O  O420  1  0.88148215  0.49351298  0.49530959  1
  O  O421  1  0.88128893  0.49217314  1.00071618  1
  O  O422  1  0.87559347  0.99320548  0.49377900  1
  O  O423  1  0.88253222  0.99297370  0.99966261  1
  O  O424  1  0.11954273  0.00641906  0.00631044  1
  O  O425  1  0.12234870  0.00866100  0.50659212  1
  O  O426  1  0.11460717  0.50473198  0.00113546  1
  O  O427  1  0.12058600  0.50450954  0.50467444  1
  O  O428  1  0.61826627  0.00267248  0.00685688  1
  O  O429  1  0.61965955  0.00329108  0.50559672  1
  O  O430  1  0.62621869  0.50995901  0.00547353  1
  O  O431  1  0.62490331  0.50374105  0.51339843  1
  O  O432  1  0.36908524  0.37607747  0.11626694  1
  O  O433  1  0.37695314  0.37626026  0.61127786  1
  O  O434  1  0.36848165  0.86798726  0.12477174  1
  O  O435  1  0.36920897  0.87046286  0.61996468  1
  O  O436  1  0.87410742  0.36826215  0.11440119  1
  O  O437  1  0.87016876  0.36922885  0.61834564  1
  O  O438  1  0.86957667  0.86990448  0.11888883  1
  O  O439  1  0.87011127  0.87023457  0.61998530  1
  O  O440  1  0.12254809  0.12939197  0.38427724  1
  O  O441  1  0.12959294  0.13081963  0.88232818  1
  O  O442  1  0.13268097  0.62592602  0.38203324  1
  O  O443  1  0.12491172  0.63284549  0.88195512  1
  O  O444  1  0.62602630  0.12525546  0.38277008  1
  O  O445  1  0.63956544  0.12472516  0.87696438  1
  O  O446  1  0.63457340  0.62601410  0.37742356  1
  O  O447  1  0.62550094  0.62563372  0.88649449  1
