# generated using pymatgen
data_V3Zn3O8
_symmetry_space_group_name_H-M   'P 1'
_cell_length_a   17.08742994
_cell_length_b   17.08868038
_cell_length_c   17.08829900
_cell_angle_alpha   90.00960539
_cell_angle_beta   90.00722542
_cell_angle_gamma   89.99188511
_symmetry_Int_Tables_number   1
_chemical_formula_structural   V3Zn3O8
_chemical_formula_sum   'V96 Zn96 O256'
_cell_volume   4989.81098265
_cell_formula_units_Z   32
loop_
 _symmetry_equiv_pos_site_id
 _symmetry_equiv_pos_as_xyz
  1  'x, y, z'
loop_
 _atom_site_type_symbol
 _atom_site_label
 _atom_site_symmetry_multiplicity
 _atom_site_fract_x
 _atom_site_fract_y
 _atom_site_fract_z
 _atom_site_occupancy
  V  V0  1  0.37304429  0.37596797  0.00183615  1
  V  V1  1  0.25130495  0.74869202  0.49943251  1
  V  V2  1  -0.00056638  0.12488159  0.12559955  1
  V  V3  1  0.25081945  0.62365138  0.37417052  1
  V  V4  1  0.62670702  0.37547337  0.24883826  1
  V  V5  1  -0.00037863  0.12523035  0.62622943  1
  V  V6  1  0.62545324  0.62467256  0.49981008  1
  V  V7  1  0.74854248  0.74881773  -0.00068075  1
  V  V8  1  0.49969075  0.37516841  0.37654422  1
  V  V9  1  0.37446084  0.62358442  0.74924826  1
  V  V10  1  0.12533538  0.12494879  0.49991917  1
  V  V11  1  0.24964962  0.87405565  0.12459987  1
  V  V12  1  0.87453081  0.74985765  0.12516998  1
  V  V13  1  0.87577687  0.49994131  0.87531115  1
  V  V14  1  0.00021301  0.75016081  0.24983470  1
  V  V15  1  0.75030003  0.62558402  0.87542206  1
  V  V16  1  -0.00021903  0.24960178  0.74938526  1
  V  V17  1  0.87492872  0.25039830  0.62554249  1
  V  V18  1  0.75038369  0.50009679  0.74920782  1
  V  V19  1  0.00010331  0.87493951  0.37574490  1
  V  V20  1  0.87478436  0.25032055  0.12518382  1
  V  V21  1  0.50067071  0.75074202  0.74933421  1
  V  V22  1  0.74848457  0.00030098  0.75091304  1
  V  V23  1  0.62522816  0.25052221  0.37474040  1
  V  V24  1  0.87614402  0.49992096  0.37432891  1
  V  V25  1  0.49913920  0.24995008  0.75037427  1
  V  V26  1  0.12289737  0.00018640  0.12526043  1
  V  V27  1  0.12445439  0.75021373  0.87337319  1
  V  V28  1  0.87591400  0.62541377  0.74939080  1
  V  V29  1  0.74859330  0.12589698  0.87553728  1
  V  V30  1  0.62503804  0.00041463  0.12508210  1
  V  V31  1  0.75139287  0.62450190  0.37439274  1
  V  V32  1  0.62367265  0.50188805  0.12351633  1
  V  V33  1  0.00033157  0.49895181  0.49883323  1
  V  V34  1  0.62619667  0.50038544  0.62434093  1
  V  V35  1  0.50129110  0.62448823  0.62408794  1
  V  V36  1  0.75050878  0.75076110  0.50005450  1
  V  V37  1  0.12512215  0.37520382  0.75057497  1
  V  V38  1  0.24962922  0.24905624  0.50026060  1
  V  V39  1  0.49888441  0.37916563  0.87666979  1
  V  V40  1  0.37397193  0.00080281  0.87465009  1
  V  V41  1  0.12498285  0.87472991  0.25001943  1
  V  V42  1  0.12574559  0.62359529  0.49937861  1
  V  V43  1  0.12456533  0.24934376  0.37525731  1
  V  V44  1  0.49990450  0.74878806  0.24903111  1
  V  V45  1  0.00058198  0.37440675  0.37420077  1
  V  V46  1  0.24986854  0.87505116  0.62514844  1
  V  V47  1  0.24968754  0.37373985  0.62514613  1
  V  V48  1  0.62497118  0.87483842  0.25008873  1
  V  V49  1  0.87592771  0.74974336  0.62571086  1
  V  V50  1  0.12560132  0.74876884  0.37437125  1
  V  V51  1  0.25038298  0.49885242  0.24889462  1
  V  V52  1  0.75030651  0.37530803  0.62497460  1
  V  V53  1  0.62385248  0.12569779  0.00018218  1
  V  V54  1  0.62425803  0.12525001  0.50119414  1
  V  V55  1  0.62471170  0.87493151  0.75029897  1
  V  V56  1  -0.00007714  -0.00011433  0.50096563  1
  V  V57  1  0.37561382  0.49860805  0.37468557  1
  V  V58  1  0.74995579  0.12496368  0.37531717  1
  V  V59  1  -0.00001297  0.62499815  0.62491677  1
  V  V60  1  0.24970672  -0.00111910  0.25109085  1
  V  V61  1  0.00021705  0.24960399  0.25058987  1
  V  V62  1  0.25023534  0.12459009  0.87544655  1
  V  V63  1  0.37535281  -0.00062513  0.37494188  1
  V  V64  1  0.75054850  0.25059638  0.50111413  1
  V  V65  1  0.49959414  -0.00090025  -0.00020204  1
  V  V66  1  0.49855781  0.12456972  0.12553001  1
  V  V67  1  0.24969009  0.75096311  -0.00032824  1
  V  V68  1  0.37496809  0.12559322  0.24915642  1
  V  V69  1  0.74974853  0.87641216  0.62633900  1
  V  V70  1  0.12530913  0.24966531  0.87610940  1
  V  V71  1  0.37414534  0.87423563  0.00012700  1
  V  V72  1  0.62589141  0.74958032  0.37454561  1
  V  V73  1  0.87498078  0.87527871  0.50112386  1
  V  V74  1  0.74964250  0.00068886  0.25090593  1
  V  V75  1  0.37706610  0.62572654  0.24835501  1
  V  V76  1  0.25086219  0.50115666  0.74988589  1
  V  V77  1  0.75043869  0.87488708  0.12486539  1
  V  V78  1  -0.00038004  0.87590146  0.87514618  1
  V  V79  1  0.37546047  0.74925040  0.62352250  1
  V  V80  1  0.87397044  0.37462638  0.00079479  1
  V  V81  1  0.12373216  0.12486994  0.00076953  1
  V  V82  1  0.50073871  0.87504719  0.37548879  1
  V  V83  1  -0.00011330  0.37508851  0.87465693  1
  V  V84  1  0.12505674  0.62595994  -0.00015470  1
  V  V85  1  0.50040045  0.00112850  0.50191792  1
  V  V86  1  0.12644924  0.49800436  0.12463050  1
  V  V87  1  0.87496584  0.00105647  0.87646086  1
  V  V88  1  0.12537158  -0.00093184  0.62560391  1
  V  V89  1  0.87542363  0.62443073  0.25045999  1
  V  V90  1  0.49997623  0.87469814  0.87385489  1
  V  V91  1  0.37533220  0.24925224  0.62513179  1
  V  V92  1  0.87392261  0.00067615  0.37546181  1
  V  V93  1  0.00047256  0.62522597  0.12474252  1
  V  V94  1  0.62446351  0.25036515  0.87607006  1
  V  V95  1  0.12520677  0.49938273  0.62470389  1
  Zn  Zn96  1  0.37645970  0.74855199  0.12372990  1
  Zn  Zn97  1  0.87460418  0.87552216  0.00112070  1
  Zn  Zn98  1  0.37492362  0.37540134  0.49946438  1
  Zn  Zn99  1  0.49930977  0.49986249  0.50090524  1
  Zn  Zn100  1  0.49930547  0.24908560  0.24867383  1
  Zn  Zn101  1  0.37396541  0.12342008  0.75055963  1
  Zn  Zn102  1  0.37270232  0.50306612  0.87652732  1
  Zn  Zn103  1  0.25097910  0.62498934  0.87428794  1
  Zn  Zn104  1  0.62416781  0.74799432  0.87541052  1
  Zn  Zn105  1  0.00078878  0.75038013  0.74882497  1
  Zn  Zn106  1  0.50044667  0.12483614  0.62707941  1
  Zn  Zn107  1  0.87379781  0.12584224  0.24942399  1
  Zn  Zn108  1  0.74806098  0.24995157  0.00176518  1
  Zn  Zn109  1  0.62546069  0.37610054  0.75070461  1
  Zn  Zn110  1  0.74960073  0.37466242  0.12472688  1
  Zn  Zn111  1  0.24965511  0.12443631  0.37517027  1
  Zn  Zn112  1  -0.00190412  0.00016519  0.00169167  1
  Zn  Zn113  1  0.37641640  0.87435505  0.49914776  1
  Zn  Zn114  1  0.12771287  0.37252704  0.24861162  1
  Zn  Zn115  1  0.62442548  0.00238961  0.62695596  1
  Zn  Zn116  1  0.87515539  0.37516432  0.49919314  1
  Zn  Zn117  1  0.75163457  0.50024147  0.24862038  1
  Zn  Zn118  1  0.49934605  0.62746695  0.12026409  1
  Zn  Zn119  1  0.25019805  -0.00068405  0.74970035  1
  Zn  Zn120  1  0.24971627  0.25129258  0.00313187  1
  Zn  Zn121  1  0.12490301  0.87605299  0.75006053  1
  Zn  Zn122  1  0.25101486  0.37172034  0.12566212  1
  Zn  Zn123  1  0.62205630  0.62322406  -0.00200578  1
  Zn  Zn124  1  0.37331555  0.25124469  0.12516108  1
  Zn  Zn125  1  0.49821791  0.50508580  -0.00019129  1
  Zn  Zn126  1  0.87371148  0.12633295  0.75079424  1
  Zn  Zn127  1  0.00048467  0.50110330  -0.00034924  1
  Zn  Zn128  1  0.18894128  0.18837241  0.18680139  1
  Zn  Zn129  1  0.18699772  0.18625166  0.68895488  1
  Zn  Zn130  1  0.18932189  0.68629959  0.18640854  1
  Zn  Zn131  1  0.18774359  0.68758457  0.68790304  1
  Zn  Zn132  1  0.68837209  0.18909630  0.18716360  1
  Zn  Zn133  1  0.68582290  0.18746766  0.68838054  1
  Zn  Zn134  1  0.68759323  0.68585722  0.18712349  1
  Zn  Zn135  1  0.68791051  0.68820330  0.68798671  1
  Zn  Zn136  1  0.31063633  0.31185155  0.31222849  1
  Zn  Zn137  1  0.31258893  0.31287556  0.81421501  1
  Zn  Zn138  1  0.31434513  0.81193096  0.31234443  1
  Zn  Zn139  1  0.31307191  0.81201167  0.81102833  1
  Zn  Zn140  1  0.81340419  0.31265460  0.31262476  1
  Zn  Zn141  1  0.81169432  0.31261086  0.81225047  1
  Zn  Zn142  1  0.81275187  0.81274492  0.31212377  1
  Zn  Zn143  1  0.81328517  0.81275594  0.81241498  1
  Zn  Zn144  1  0.18806817  0.43466156  0.43671449  1
  Zn  Zn145  1  0.18924148  0.43920575  0.93728647  1
  Zn  Zn146  1  0.18823096  0.93718737  0.43859347  1
  Zn  Zn147  1  0.18650957  0.93901756  0.93897090  1
  Zn  Zn148  1  0.68888527  0.43837513  0.43781784  1
  Zn  Zn149  1  0.68719228  0.43805596  0.93734046  1
  Zn  Zn150  1  0.68644882  0.93802147  0.43837116  1
  Zn  Zn151  1  0.68670244  0.93639245  0.93741171  1
  Zn  Zn152  1  0.31051577  0.06095818  0.06243156  1
  Zn  Zn153  1  0.31319922  0.06331355  0.56225817  1
  Zn  Zn154  1  0.31286698  0.56303792  0.06137063  1
  Zn  Zn155  1  0.31424499  0.56045914  0.56137824  1
  Zn  Zn156  1  0.81165091  0.06440954  0.06191486  1
  Zn  Zn157  1  0.81230592  0.06383381  0.56384740  1
  Zn  Zn158  1  0.80994729  0.56080226  0.06342062  1
  Zn  Zn159  1  0.81337735  0.56211423  0.56121134  1
  Zn  Zn160  1  0.43954611  0.43920963  0.18702643  1
  Zn  Zn161  1  0.43756777  0.43755519  0.68751956  1
  Zn  Zn162  1  0.43691278  0.93658610  0.18700200  1
  Zn  Zn163  1  0.43493590  0.93755445  0.68781725  1
  Zn  Zn164  1  0.94041462  0.43693273  0.18792655  1
  Zn  Zn165  1  0.93672913  0.43710951  0.68709084  1
  Zn  Zn166  1  0.93616448  0.93792460  0.18879004  1
  Zn  Zn167  1  0.93723214  0.93796869  0.69072062  1
  Zn  Zn168  1  0.06172002  0.06392739  0.31254665  1
  Zn  Zn169  1  0.06354494  0.06204618  0.81086924  1
  Zn  Zn170  1  0.06286118  0.56111524  0.31058406  1
  Zn  Zn171  1  0.06195394  0.56246122  0.81183697  1
  Zn  Zn172  1  0.56228186  0.06264427  0.31366452  1
  Zn  Zn173  1  0.56208102  0.06277700  0.81318315  1
  Zn  Zn174  1  0.56222984  0.56123067  0.31106772  1
  Zn  Zn175  1  0.56469400  0.56407559  0.81079795  1
  Zn  Zn176  1  0.43729408  0.18748827  0.43649134  1
  Zn  Zn177  1  0.43631517  0.18977373  0.93921009  1
  Zn  Zn178  1  0.43830706  0.68609023  0.43651992  1
  Zn  Zn179  1  0.43708093  0.68734677  0.93596556  1
  Zn  Zn180  1  0.93674377  0.18753851  0.43854367  1
  Zn  Zn181  1  0.93797936  0.18774985  0.93889820  1
  Zn  Zn182  1  0.93790890  0.68683732  0.43827211  1
  Zn  Zn183  1  0.93721663  0.68782996  0.93857249  1
  Zn  Zn184  1  0.06067737  0.31171726  0.06172793  1
  Zn  Zn185  1  0.06209358  0.31238359  0.56147208  1
  Zn  Zn186  1  0.06167763  0.81370551  0.06053399  1
  Zn  Zn187  1  0.06375345  0.81130787  0.56179952  1
  Zn  Zn188  1  0.55839956  0.31164051  0.06336932  1
  Zn  Zn189  1  0.56417276  0.31341704  0.56275919  1
  Zn  Zn190  1  0.56250983  0.81212704  0.06279303  1
  Zn  Zn191  1  0.56385386  0.81367875  0.56336467  1
  O  O192  1  0.11930833  0.11909602  0.12075167  1
  O  O193  1  0.11955571  0.11948572  0.61946961  1
  O  O194  1  0.12029134  0.61812198  0.12027452  1
  O  O195  1  0.12039353  0.61934677  0.61894813  1
  O  O196  1  0.61924682  0.11897301  0.12065394  1
  O  O197  1  0.62117904  0.12302344  0.61692804  1
  O  O198  1  0.62443984  0.61358423  0.12494003  1
  O  O199  1  0.62109719  0.62074148  0.61938480  1
  O  O200  1  0.38511671  0.37869666  0.37373700  1
  O  O201  1  0.38335673  0.37643270  0.88218714  1
  O  O202  1  0.38263222  0.88112461  0.37668502  1
  O  O203  1  0.37989474  0.88054215  0.88013528  1
  O  O204  1  0.88231782  0.38177059  0.37629749  1
  O  O205  1  0.88017777  0.37950732  0.88178027  1
  O  O206  1  0.88032612  0.87991538  0.38128355  1
  O  O207  1  0.88239935  0.88369698  0.87557510  1
  O  O208  1  0.25620318  0.00002811  0.36897159  1
  O  O209  1  0.25475403  0.00829883  0.87509358  1
  O  O210  1  0.25471753  0.50474262  0.36969347  1
  O  O211  1  0.25015798  0.50384966  0.86421493  1
  O  O212  1  0.75411863  0.00461865  0.37089872  1
  O  O213  1  0.75668118  0.00428002  0.87096114  1
  O  O214  1  0.75756243  0.50740862  0.37368280  1
  O  O215  1  0.75652635  0.50514063  0.86923189  1
  O  O216  1  0.23964275  0.50087886  0.13032713  1
  O  O217  1  0.24397110  0.49378858  0.62908326  1
  O  O218  1  0.24259680  0.99343540  0.13129844  1
  O  O219  1  0.24539677  0.99054348  0.62323607  1
  O  O220  1  0.73971616  0.49516089  0.12882262  1
  O  O221  1  0.74644590  0.49577000  0.62955492  1
  O  O222  1  0.74441822  0.99538597  0.13033500  1
  O  O223  1  0.75005087  0.99366114  0.63218051  1
  O  O224  1  0.00372322  0.36751365  0.25662999  1
  O  O225  1  0.00605532  0.36999130  0.75475256  1
  O  O226  1  0.00531892  0.86938796  0.25645892  1
  O  O227  1  0.00190442  0.87226192  0.76251404  1
  O  O228  1  0.50954821  0.37376256  0.26002393  1
  O  O229  1  0.49948901  0.36543066  0.75879098  1
  O  O230  1  0.50631668  0.87073579  0.25580875  1
  O  O231  1  0.50438350  0.87035509  0.75398705  1
  O  O232  1  0.49046175  0.12229827  0.24487028  1
  O  O233  1  0.49734603  0.13842693  0.75055328  1
  O  O234  1  0.49387103  0.63228964  0.25109089  1
  O  O235  1  0.49529665  0.63095046  0.74294715  1
  O  O236  1  0.99692824  0.13135264  0.24362384  1
  O  O237  1  0.99913515  0.13214762  0.74356571  1
  O  O238  1  0.99540183  0.63195778  0.24503603  1
  O  O239  1  0.99343684  0.62595742  0.74222977  1
  O  O240  1  0.37339041  0.26242100  0.00126759  1
  O  O241  1  0.36986081  0.25093123  0.50925187  1
  O  O242  1  0.36731625  0.75764068  -0.00014966  1
  O  O243  1  0.36882117  0.74987203  0.50536089  1
  O  O244  1  0.87496299  0.25959932  0.00563944  1
  O  O245  1  0.86810166  0.25125682  0.50738906  1
  O  O246  1  0.86449270  0.75106623  0.00658263  1
  O  O247  1  0.87013168  0.75573136  0.50516471  1
  O  O248  1  0.12954675  0.24367018  0.49585684  1
  O  O249  1  0.12502645  0.24331579  0.99293160  1
  O  O250  1  0.13081429  0.74297963  0.49352601  1
  O  O251  1  0.12922168  0.74640654  0.99175541  1
  O  O252  1  0.63081877  0.24506174  0.49442900  1
  O  O253  1  0.62389688  0.24340890  0.99387575  1
  O  O254  1  0.63142012  0.74536553  0.49427895  1
  O  O255  1  0.63843575  0.74896903  0.99982420  1
  O  O256  1  0.49509787  0.23977640  0.12892110  1
  O  O257  1  0.49217746  0.25241394  0.63323044  1
  O  O258  1  0.49838610  0.74959593  0.13416074  1
  O  O259  1  0.49526253  0.74498647  0.62928242  1
  O  O260  1  0.99495824  0.24439449  0.13098000  1
  O  O261  1  0.99558754  0.24509282  0.62986252  1
  O  O262  1  0.99518603  0.74589442  0.13054999  1
  O  O263  1  0.99421991  0.74333195  0.62475476  1
  O  O264  1  0.00450548  0.25422296  0.37091432  1
  O  O265  1  0.00540036  0.25518285  0.86900633  1
  O  O266  1  0.00556535  0.75507821  0.37027929  1
  O  O267  1  0.00749270  0.75846040  0.87538395  1
  O  O268  1  0.50646497  0.25873054  0.37341188  1
  O  O269  1  0.50333290  0.25806049  0.86792608  1
  O  O270  1  0.50696742  0.75546863  0.37023488  1
  O  O271  1  0.50098129  0.75790811  0.86668312  1
  O  O272  1  0.24298629  0.13100463  0.49900307  1
  O  O273  1  0.24334638  0.12477311  0.98999889  1
  O  O274  1  0.24468302  0.62889751  0.49408541  1
  O  O275  1  0.24281251  0.63299694  0.99706377  1
  O  O276  1  0.74404406  0.13018441  0.49480770  1
  O  O277  1  0.74102760  0.12611143  0.99326738  1
  O  O278  1  0.74573754  0.63202893  0.49449538  1
  O  O279  1  0.75032631  0.63430714  0.99446976  1
  O  O280  1  0.26080170  0.37447837  -0.00000939  1
  O  O281  1  0.25081308  0.36695132  0.50776546  1
  O  O282  1  0.25431963  0.87086269  0.00538251  1
  O  O283  1  0.25159128  0.86785290  0.50887268  1
  O  O284  1  0.76371135  0.37269182  -0.00093402  1
  O  O285  1  0.75156348  0.36797757  0.50614450  1
  O  O286  1  0.75098303  0.86619208  0.00624534  1
  O  O287  1  0.75554335  0.87034748  0.50523806  1
  O  O288  1  0.13121408  0.50065885  0.23982536  1
  O  O289  1  0.12972283  0.49477904  0.74327957  1
  O  O290  1  0.12926619  0.99363182  0.24596617  1
  O  O291  1  0.12848768  0.99655828  0.74097270  1
  O  O292  1  0.62648606  0.49093030  0.24314920  1
  O  O293  1  0.63325845  0.49918345  0.74209528  1
  O  O294  1  0.63001055  0.99430796  0.24531934  1
  O  O295  1  0.63016140  0.99344483  0.74936628  1
  O  O296  1  0.37007808  0.00605715  0.25492728  1
  O  O297  1  0.37223586  0.00354019  0.75823693  1
  O  O298  1  0.37002376  0.50577013  0.25559814  1
  O  O299  1  0.36801560  0.50617047  0.74872233  1
  O  O300  1  0.86724313  0.00078850  0.25799937  1
  O  O301  1  0.86845572  0.00170049  0.76165354  1
  O  O302  1  0.87557465  0.50705063  0.25598857  1
  O  O303  1  0.87005247  0.50574040  0.75511530  1
  O  O304  1  0.11817769  0.36737240  0.37353191  1
  O  O305  1  0.11972793  0.37013134  0.87004377  1
  O  O306  1  0.11965460  0.86885874  0.37030920  1
  O  O307  1  0.11675212  0.86774346  0.87577566  1
  O  O308  1  0.61868623  0.37177136  0.36822185  1
  O  O309  1  0.61509023  0.36946594  0.87468370  1
  O  O310  1  0.62106575  0.86909315  0.36950797  1
  O  O311  1  0.61758615  0.87325431  0.86849688  1
  O  O312  1  0.38032789  0.12024701  0.13482174  1
  O  O313  1  0.37643826  0.13795670  0.62799817  1
  O  O314  1  0.37666844  0.62740706  0.13397123  1
  O  O315  1  0.38115376  0.62995255  0.62890839  1
  O  O316  1  0.88091062  0.13181209  0.12560131  1
  O  O317  1  0.88201343  0.13160989  0.62719210  1
  O  O318  1  0.88018649  0.63009949  0.13062438  1
  O  O319  1  0.88034410  0.63010215  0.62917164  1
  O  O320  1  0.25437858  0.25340266  0.12109076  1
  O  O321  1  0.25681605  0.25397949  0.62189442  1
  O  O322  1  0.24970014  0.75747359  0.11801026  1
  O  O323  1  0.25436932  0.75606788  0.61888436  1
  O  O324  1  0.75813498  0.25388219  0.12213364  1
  O  O325  1  0.75461840  0.25508433  0.62100915  1
  O  O326  1  0.75480462  0.75461217  0.11868561  1
  O  O327  1  0.75629434  0.75598162  0.61912749  1
  O  O328  1  0.24313107  0.24768372  0.38225365  1
  O  O329  1  0.24346210  0.24074908  0.87637279  1
  O  O330  1  0.24472543  0.74392614  0.37933944  1
  O  O331  1  0.23878351  0.75186212  0.88009156  1
  O  O332  1  0.74500498  0.24492805  0.38104058  1
  O  O333  1  0.74237218  0.24385054  0.87570958  1
  O  O334  1  0.74574826  0.74546260  0.38077739  1
  O  O335  1  0.75137195  0.74528222  0.88434012  1
  O  O336  1  0.00629308  0.12311299  0.00723043  1
  O  O337  1  0.00530525  0.11889635  0.50642117  1
  O  O338  1  0.00636861  0.62457048  0.00742887  1
  O  O339  1  0.00664903  0.61924645  0.50479617  1
  O  O340  1  0.50415626  0.11805400  0.00478186  1
  O  O341  1  0.50539201  0.11576492  0.49922219  1
  O  O342  1  0.50403179  0.62315588  0.00141313  1
  O  O343  1  0.50813854  0.62456629  0.50615276  1
  O  O344  1  0.50047201  0.37617646  0.48703032  1
  O  O345  1  0.49185476  0.37610499  0.99023709  1
  O  O346  1  0.50069591  0.88462402  0.49434724  1
  O  O347  1  0.49496866  0.87981954  0.99437978  1
  O  O348  1  0.99929908  0.38185171  0.49312557  1
  O  O349  1  0.98944740  0.37655074  0.99320977  1
  O  O350  1  0.99481318  0.87979677  0.49502138  1
  O  O351  1  0.99634799  0.87764486  0.98821135  1
  O  O352  1  0.49498607  0.49043823  0.37553372  1
  O  O353  1  0.49960562  0.48773612  0.87226357  1
  O  O354  1  0.49628941  0.99468300  0.38349873  1
  O  O355  1  0.49425881  0.99485163  0.88107883  1
  O  O356  1  0.99640822  0.49532473  0.37951028  1
  O  O357  1  0.99386230  0.49303346  0.87570682  1
  O  O358  1  0.99486452  0.99405202  0.38103364  1
  O  O359  1  0.99194939  0.99340328  0.87520263  1
  O  O360  1  0.00509375  0.00548956  0.12519414  1
  O  O361  1  0.00418629  0.00422129  0.61987776  1
  O  O362  1  0.01044724  0.50728881  0.12481364  1
  O  O363  1  0.00584880  0.50495570  0.61937546  1
  O  O364  1  0.50621707  0.00350090  0.11912699  1
  O  O365  1  0.49948315  0.00155823  0.61343628  1
  O  O366  1  0.51220180  0.50266873  0.12421748  1
  O  O367  1  0.50730345  0.50612735  0.62406087  1
  O  O368  1  0.24784984  0.38365335  0.24731655  1
  O  O369  1  0.24386228  0.37963377  0.74465504  1
  O  O370  1  0.24384857  0.87886556  0.24532999  1
  O  O371  1  0.24836908  0.87506311  0.73604819  1
  O  O372  1  0.73682535  0.37658182  0.25112421  1
  O  O373  1  0.74894595  0.38259266  0.74378651  1
  O  O374  1  0.74404321  0.88003225  0.24515348  1
  O  O375  1  0.74489631  0.88020671  0.74583912  1
  O  O376  1  0.25909986  0.11663421  0.25090828  1
  O  O377  1  0.25039067  0.12355967  0.76387406  1
  O  O378  1  0.25589012  0.61988891  0.25624386  1
  O  O379  1  0.25652240  0.61890283  0.74845124  1
  O  O380  1  0.75004138  0.11816971  0.25734581  1
  O  O381  1  0.75021553  0.11857405  0.75779369  1
  O  O382  1  0.75823564  0.62554976  0.25751990  1
  O  O383  1  0.75704767  0.62012785  0.75457149  1
  O  O384  1  0.37453705  0.11805381  0.36500707  1
  O  O385  1  0.36546185  0.12005284  0.87725556  1
  O  O386  1  0.36961804  0.61899917  0.36922433  1
  O  O387  1  0.37208242  0.62379032  0.86410389  1
  O  O388  1  0.86776932  0.11787810  0.37509323  1
  O  O389  1  0.86945061  0.11644975  0.87483414  1
  O  O390  1  0.87154298  0.62058285  0.36992000  1
  O  O391  1  0.87102489  0.61954445  0.86960340  1
  O  O392  1  0.12455747  0.38765254  0.12422247  1
  O  O393  1  0.12952169  0.37972480  0.63105805  1
  O  O394  1  0.12878164  0.87972958  0.13105131  1
  O  O395  1  0.13391735  0.87933413  0.62413801  1
  O  O396  1  0.62325314  0.38075401  0.13413505  1
  O  O397  1  0.63217195  0.38190764  0.62675620  1
  O  O398  1  0.63077354  0.88133853  0.13075154  1
  O  O399  1  0.63263478  0.87749063  0.63163309  1
  O  O400  1  0.11853425  0.24966491  0.25722008  1
  O  O401  1  0.11945298  0.25618025  0.75544352  1
  O  O402  1  0.11990219  0.75463775  0.25518912  1
  O  O403  1  0.12286072  0.75177120  0.76124117  1
  O  O404  1  0.62332997  0.25879364  0.25622709  1
  O  O405  1  0.61438874  0.25259334  0.75611300  1
  O  O406  1  0.62130999  0.75579043  0.25579447  1
  O  O407  1  0.61846904  0.75686236  0.75058654  1
  O  O408  1  0.37592245  0.23579148  0.25055028  1
  O  O409  1  0.38252828  0.25003667  0.74241095  1
  O  O410  1  0.38183676  0.74360884  0.24962104  1
  O  O411  1  0.38074779  0.74452537  0.74245364  1
  O  O412  1  0.88162172  0.24905309  0.24334056  1
  O  O413  1  0.88220358  0.24911349  0.74403700  1
  O  O414  1  0.88120541  0.74507607  0.24538113  1
  O  O415  1  0.87622268  0.74322787  0.74300567  1
  O  O416  1  0.37809185  0.49584253  0.49129824  1
  O  O417  1  0.37729165  0.49063559  0.99643474  1
  O  O418  1  0.38546220  1.00019897  0.49421644  1
  O  O419  1  0.38035268  0.99371558  0.99476995  1
  O  O420  1  0.88308465  0.49980117  0.49268391  1
  O  O421  1  0.87677999  0.49147445  0.99457624  1
  O  O422  1  0.88032566  0.99426687  0.49542462  1
  O  O423  1  0.87466420  0.99783293  0.98778074  1
  O  O424  1  0.12223526  0.00644671  0.00809343  1
  O  O425  1  0.11862081  0.00452189  0.50508334  1
  O  O426  1  0.12404941  0.50670855  0.00853228  1
  O  O427  1  0.12075208  0.50496438  0.50506386  1
  O  O428  1  0.61904399  0.00487731  0.00551218  1
  O  O429  1  0.61505739  0.00553953  0.50017879  1
  O  O430  1  0.62378959  0.49940332  0.01112007  1
  O  O431  1  0.62480426  0.50792023  0.50620525  1
  O  O432  1  0.37603736  0.37546407  0.11445200  1
  O  O433  1  0.36918617  0.36437149  0.62421659  1
  O  O434  1  0.36738064  0.87462216  0.11801732  1
  O  O435  1  0.36611093  0.86809990  0.62198284  1
  O  O436  1  0.87652950  0.37042378  0.11592921  1
  O  O437  1  0.86870197  0.36877328  0.62277575  1
  O  O438  1  0.86845996  0.86819965  0.12481182  1
  O  O439  1  0.87034678  0.87021652  0.62022302  1
  O  O440  1  0.12536301  0.13078808  0.38270299  1
  O  O441  1  0.13132951  0.12904304  0.88018912  1
  O  O442  1  0.13060815  0.62939022  0.37947721  1
  O  O443  1  0.12332613  0.63576503  0.88013192  1
  O  O444  1  0.63023613  0.13065911  0.38052157  1
  O  O445  1  0.62845269  0.13006792  0.88144478  1
  O  O446  1  0.63114569  0.63048639  0.37933207  1
  O  O447  1  0.63517230  0.62772343  0.87615646  1
