# generated using pymatgen
data_V3Zn3O8
_symmetry_space_group_name_H-M   'P 1'
_cell_length_a   17.08760512
_cell_length_b   17.08950210
_cell_length_c   17.08854086
_cell_angle_alpha   89.99610105
_cell_angle_beta   89.99219191
_cell_angle_gamma   90.00171588
_symmetry_Int_Tables_number   1
_chemical_formula_structural   V3Zn3O8
_chemical_formula_sum   'V96 Zn96 O256'
_cell_volume   4990.17280307
_cell_formula_units_Z   32
loop_
 _symmetry_equiv_pos_site_id
 _symmetry_equiv_pos_as_xyz
  1  'x, y, z'
loop_
 _atom_site_type_symbol
 _atom_site_label
 _atom_site_symmetry_multiplicity
 _atom_site_fract_x
 _atom_site_fract_y
 _atom_site_fract_z
 _atom_site_occupancy
  V  V0  1  -0.00040243  0.25070894  0.25004700  1
  V  V1  1  0.62332809  0.50222819  0.62542177  1
  V  V2  1  0.87660024  0.87353910  0.50042846  1
  V  V3  1  0.24955602  0.37603416  0.12498718  1
  V  V4  1  0.74944776  0.62595289  0.87551669  1
  V  V5  1  0.37477495  0.00189937  0.87534302  1
  V  V6  1  0.24996636  0.12526699  0.37625376  1
  V  V7  1  0.37561401  0.00009492  0.37482829  1
  V  V8  1  0.62515039  0.25125987  0.37496893  1
  V  V9  1  0.12635744  -0.00131116  0.62531647  1
  V  V10  1  0.12388393  0.37387863  0.74983130  1
  V  V11  1  0.62509955  0.87594136  0.24948231  1
  V  V12  1  -0.00163671  0.37490713  0.87459866  1
  V  V13  1  0.12587304  0.74920002  0.37327159  1
  V  V14  1  -0.00079375  0.49820930  0.49911725  1
  V  V15  1  0.12391321  0.49748810  0.62463578  1
  V  V16  1  0.12455240  -0.00078080  0.12552598  1
  V  V17  1  0.49908806  0.00059009  -0.00021294  1
  V  V18  1  0.12553032  0.74961231  0.87507538  1
  V  V19  1  0.37308025  0.50155081  0.87494050  1
  V  V20  1  0.25221569  0.74930184  0.50177860  1
  V  V21  1  0.00118653  0.74914370  0.75001762  1
  V  V22  1  -0.00021818  0.37431673  0.37397487  1
  V  V23  1  0.75159232  0.87469934  0.62455063  1
  V  V24  1  0.24991223  0.37293128  0.62495944  1
  V  V25  1  0.87568482  0.75104833  0.12424971  1
  V  V26  1  0.24911637  0.00043408  0.24959531  1
  V  V27  1  0.87558937  0.62493719  0.24896103  1
  V  V28  1  0.00020893  0.62509951  0.12425220  1
  V  V29  1  0.62511403  0.12560272  -0.00035114  1
  V  V30  1  -0.00136418  0.24901802  0.74887359  1
  V  V31  1  0.87356126  0.37539142  0.49952968  1
  V  V32  1  0.00171917  -0.00046343  0.49992352  1
  V  V33  1  0.62437960  0.50037909  0.12520582  1
  V  V34  1  0.62639364  -0.00122151  0.62373283  1
  V  V35  1  0.25035202  0.75119663  0.00031349  1
  V  V36  1  0.62504413  0.00027717  0.12575399  1
  V  V37  1  0.62613468  0.74944534  0.37506994  1
  V  V38  1  0.12594891  0.12433451  0.49922394  1
  V  V39  1  0.50122308  0.87558170  0.87611457  1
  V  V40  1  0.12554459  0.62327908  0.49926755  1
  V  V41  1  0.50017460  0.62586337  0.12527766  1
  V  V42  1  0.49842798  0.74871438  0.74970321  1
  V  V43  1  0.87434590  0.12507847  0.74824170  1
  V  V44  1  -0.00092606  0.87598125  0.87536495  1
  V  V45  1  0.49934595  0.12581061  0.12576136  1
  V  V46  1  0.87431445  0.00102647  0.37275248  1
  V  V47  1  0.74857704  0.24945381  0.49834638  1
  V  V48  1  0.74893837  0.12476089  0.87400170  1
  V  V49  1  0.87454974  0.49953559  0.87507013  1
  V  V50  1  0.87452081  0.24942925  0.12429710  1
  V  V51  1  0.50082384  0.87481887  0.37475806  1
  V  V52  1  0.37476266  0.25045513  0.12584307  1
  V  V53  1  0.37494935  0.50018378  0.37691043  1
  V  V54  1  0.37493104  0.12627527  0.25010749  1
  V  V55  1  0.62306742  0.37491412  0.75112275  1
  V  V56  1  0.62558936  0.62587417  -0.00006430  1
  V  V57  1  0.00215202  0.87353859  0.37483084  1
  V  V58  1  0.49953298  0.12528144  0.62587046  1
  V  V59  1  0.87609693  -0.00086710  0.87495511  1
  V  V60  1  0.12463163  0.62537139  0.00009787  1
  V  V61  1  0.74997419  -0.00033594  0.74825150  1
  V  V62  1  0.87441012  0.37535724  -0.00116577  1
  V  V63  1  0.62444702  0.37569219  0.25062859  1
  V  V64  1  0.37565048  0.87300621  0.50065060  1
  V  V65  1  -0.00116550  0.12543524  0.12454545  1
  V  V66  1  0.74951645  0.37522492  0.12425840  1
  V  V67  1  0.37509069  0.37577526  0.00085414  1
  V  V68  1  0.74873474  0.37560181  0.62465610  1
  V  V69  1  0.50025820  0.37532640  0.37686961  1
  V  V70  1  0.24969420  0.49992796  0.75097028  1
  V  V71  1  0.12557715  0.87481347  0.74967498  1
  V  V72  1  0.74859798  0.24938311  -0.00089297  1
  V  V73  1  0.49977953  0.75004478  0.24908465  1
  V  V74  1  0.25033824  0.49982970  0.25093771  1
  V  V75  1  0.25130911  0.00081202  0.75062543  1
  V  V76  1  0.87455920  0.50175738  0.37337644  1
  V  V77  1  0.37449653  0.75162371  0.12533176  1
  V  V78  1  0.87472281  0.62435304  0.75021451  1
  V  V79  1  0.25006959  0.24873662  0.50080937  1
  V  V80  1  0.12472274  0.24942573  0.87547837  1
  V  V81  1  0.50164432  -0.00121720  0.50004870  1
  V  V82  1  0.12531440  0.50053056  0.12426520  1
  V  V83  1  0.62503717  0.62562304  0.50069990  1
  V  V84  1  0.50038042  0.37421892  0.87480661  1
  V  V85  1  0.74884245  0.49999478  0.75029964  1
  V  V86  1  0.24866444  0.25075841  -0.00021927  1
  V  V87  1  0.75019264  0.50154305  0.24963772  1
  V  V88  1  0.62508143  0.75061620  0.87584033  1
  V  V89  1  -0.00054151  0.12480966  0.62456457  1
  V  V90  1  0.87529585  0.74981281  0.62416009  1
  V  V91  1  0.12425927  0.12573785  -0.00036056  1
  V  V92  1  0.37415178  0.37408587  0.50179097  1
  V  V93  1  -0.00060538  0.62326418  0.62492639  1
  V  V94  1  0.49917529  0.49988111  0.00065163  1
  V  V95  1  0.75102533  0.87610960  0.12427378  1
  Zn  Zn96  1  0.62588561  0.87401846  0.74972763  1
  Zn  Zn97  1  0.87235345  0.12451872  0.24966827  1
  Zn  Zn98  1  0.37333244  0.87767265  0.00179523  1
  Zn  Zn99  1  0.75029978  0.75146480  -0.00175232  1
  Zn  Zn100  1  0.49840836  0.24930695  0.75102742  1
  Zn  Zn101  1  0.37528050  0.12818988  0.75003759  1
  Zn  Zn102  1  0.37251457  0.62588171  0.74903658  1
  Zn  Zn103  1  0.50018224  0.25054162  0.25133415  1
  Zn  Zn104  1  0.75159441  0.74956691  0.49833386  1
  Zn  Zn105  1  0.37588495  0.74834598  0.62675575  1
  Zn  Zn106  1  -0.00123182  -0.00060201  0.00027034  1
  Zn  Zn107  1  0.87347988  0.24978243  0.62388553  1
  Zn  Zn108  1  0.74812116  0.12401624  0.37272150  1
  Zn  Zn109  1  0.37590703  0.24929151  0.62790847  1
  Zn  Zn110  1  0.12427377  0.37519445  0.25048752  1
  Zn  Zn111  1  0.62272854  0.24931391  0.87297711  1
  Zn  Zn112  1  0.75105405  0.62754201  0.37434256  1
  Zn  Zn113  1  0.75030901  0.00322398  0.25067489  1
  Zn  Zn114  1  0.49813196  0.50117375  0.50397515  1
  Zn  Zn115  1  0.25147968  0.62376232  0.37562019  1
  Zn  Zn116  1  0.00245369  0.75047024  0.24914947  1
  Zn  Zn117  1  0.49688955  0.62505330  0.62631418  1
  Zn  Zn118  1  0.87626142  0.87660109  -0.00036634  1
  Zn  Zn119  1  0.37620023  0.62554345  0.25253663  1
  Zn  Zn120  1  0.25020659  0.12678589  0.87471347  1
  Zn  Zn121  1  0.00046500  0.49999429  -0.00078554  1
  Zn  Zn122  1  0.25042490  0.62556245  0.87232110  1
  Zn  Zn123  1  0.24887065  0.87568442  0.12683841  1
  Zn  Zn124  1  0.62582177  0.12372447  0.49749798  1
  Zn  Zn125  1  0.12616177  0.87394978  0.24947325  1
  Zn  Zn126  1  0.12468974  0.25050862  0.37427143  1
  Zn  Zn127  1  0.25329861  0.87413938  0.62606793  1
  Zn  Zn128  1  0.18647960  0.18673564  0.18770586  1
  Zn  Zn129  1  0.18694576  0.18621737  0.68701022  1
  Zn  Zn130  1  0.18959546  0.68407511  0.18748471  1
  Zn  Zn131  1  0.18747453  0.68506051  0.68643648  1
  Zn  Zn132  1  0.68834139  0.18678232  0.18986602  1
  Zn  Zn133  1  0.68419771  0.18824556  0.68605242  1
  Zn  Zn134  1  0.68866472  0.68854004  0.18766044  1
  Zn  Zn135  1  0.68662299  0.68914603  0.68783688  1
  Zn  Zn136  1  0.31263378  0.31264715  0.31400251  1
  Zn  Zn137  1  0.31442404  0.31264405  0.81170156  1
  Zn  Zn138  1  0.31169243  0.81473760  0.31219701  1
  Zn  Zn139  1  0.31412950  0.81491352  0.81458434  1
  Zn  Zn140  1  0.81259737  0.31419569  0.31192765  1
  Zn  Zn141  1  0.81066640  0.31098713  0.81185044  1
  Zn  Zn142  1  0.81217113  0.81283484  0.31144573  1
  Zn  Zn143  1  0.81282964  0.81283499  0.81104801  1
  Zn  Zn144  1  0.18639996  0.43352749  0.43688732  1
  Zn  Zn145  1  0.18706584  0.43742770  0.93719378  1
  Zn  Zn146  1  0.18926779  0.93559935  0.43714384  1
  Zn  Zn147  1  0.18652837  0.93682765  0.93834384  1
  Zn  Zn148  1  0.68731130  0.44001442  0.43712261  1
  Zn  Zn149  1  0.68634019  0.43766002  0.93700129  1
  Zn  Zn150  1  0.68929816  0.93513887  0.43890956  1
  Zn  Zn151  1  0.68773306  0.93788331  0.93761043  1
  Zn  Zn152  1  0.31040424  0.06559311  0.06219464  1
  Zn  Zn153  1  0.31451156  0.06121040  0.56279699  1
  Zn  Zn154  1  0.31238028  0.56537117  0.06263571  1
  Zn  Zn155  1  0.31246517  0.56377061  0.56612992  1
  Zn  Zn156  1  0.81317095  0.06224601  0.06081766  1
  Zn  Zn157  1  0.81313518  0.06273435  0.56023909  1
  Zn  Zn158  1  0.81233159  0.56294329  0.06123233  1
  Zn  Zn159  1  0.81035486  0.56265852  0.56172658  1
  Zn  Zn160  1  0.43795691  0.43645542  0.18954102  1
  Zn  Zn161  1  0.43701847  0.43892333  0.68862604  1
  Zn  Zn162  1  0.43725649  0.93796289  0.18799188  1
  Zn  Zn163  1  0.43850919  0.93498389  0.68726761  1
  Zn  Zn164  1  0.93775245  0.43796868  0.18586432  1
  Zn  Zn165  1  0.93538291  0.43592353  0.68693188  1
  Zn  Zn166  1  0.94108403  0.93526082  0.19026047  1
  Zn  Zn167  1  0.93809555  0.93754104  0.68827453  1
  Zn  Zn168  1  0.06163579  0.06420287  0.31191070  1
  Zn  Zn169  1  0.06244462  0.06295199  0.81253635  1
  Zn  Zn170  1  0.06193491  0.56326638  0.31094333  1
  Zn  Zn171  1  0.06315200  0.56223998  0.81352350  1
  Zn  Zn172  1  0.56335596  0.06444513  0.31241834  1
  Zn  Zn173  1  0.56385230  0.06146240  0.81026365  1
  Zn  Zn174  1  0.56166726  0.56324383  0.31386381  1
  Zn  Zn175  1  0.56134815  0.56310235  0.81374993  1
  Zn  Zn176  1  0.43822276  0.18803254  0.43984878  1
  Zn  Zn177  1  0.43778737  0.18847230  0.93786835  1
  Zn  Zn178  1  0.43985660  0.68635988  0.43764292  1
  Zn  Zn179  1  0.43657639  0.68643305  0.93673164  1
  Zn  Zn180  1  0.93626355  0.18686274  0.43747635  1
  Zn  Zn181  1  0.93669875  0.18637774  0.93688248  1
  Zn  Zn182  1  0.93915418  0.68667796  0.43718879  1
  Zn  Zn183  1  0.93797093  0.68797435  0.93861408  1
  Zn  Zn184  1  0.06219624  0.31420792  0.06264187  1
  Zn  Zn185  1  0.06229092  0.30988558  0.56133456  1
  Zn  Zn186  1  0.06166271  0.81414170  0.06110735  1
  Zn  Zn187  1  0.06407509  0.81260214  0.56246404  1
  Zn  Zn188  1  0.56229035  0.31143375  0.06246188  1
  Zn  Zn189  1  0.56197708  0.31352983  0.56314186  1
  Zn  Zn190  1  0.56239367  0.81370070  0.06061798  1
  Zn  Zn191  1  0.56417168  0.81175437  0.56349879  1
  O  O192  1  0.11937885  0.11798428  0.11981397  1
  O  O193  1  0.11916231  0.11756588  0.61931990  1
  O  O194  1  0.12009559  0.62027759  0.11987654  1
  O  O195  1  0.11805095  0.61748461  0.61907680  1
  O  O196  1  0.61960472  0.11995735  0.11998847  1
  O  O197  1  0.61658100  0.11743312  0.62126906  1
  O  O198  1  0.61967839  0.61995215  0.12034126  1
  O  O199  1  0.62536795  0.62025062  0.61644373  1
  O  O200  1  0.37935089  0.38266196  0.38103918  1
  O  O201  1  0.37989740  0.38157669  0.88278038  1
  O  O202  1  0.38189015  0.88056300  0.37973119  1
  O  O203  1  0.38098099  0.88766348  0.87867063  1
  O  O204  1  0.88017136  0.38248318  0.38004930  1
  O  O205  1  0.87854292  0.37991467  0.87895110  1
  O  O206  1  0.88182533  0.88087222  0.38004998  1
  O  O207  1  0.88119329  0.88057810  0.87456699  1
  O  O208  1  0.25632253  0.00549441  0.37062945  1
  O  O209  1  0.25736669  0.00026231  0.86804023  1
  O  O210  1  0.25774437  0.49776287  0.36778170  1
  O  O211  1  0.25512810  0.50001729  0.86907569  1
  O  O212  1  0.76257071  -0.00169262  0.37508639  1
  O  O213  1  0.75518031  0.00520446  0.86856868  1
  O  O214  1  0.75698940  0.50153120  0.36692704  1
  O  O215  1  0.75492789  0.50585453  0.86946838  1
  O  O216  1  0.24713800  0.49611781  0.13274614  1
  O  O217  1  0.24206884  0.49252750  0.62980937  1
  O  O218  1  0.24042795  1.00170730  0.13019264  1
  O  O219  1  0.24525764  0.99821497  0.63426513  1
  O  O220  1  0.74404143  0.49484177  0.12941251  1
  O  O221  1  0.74410936  0.49511392  0.63140851  1
  O  O222  1  0.74461496  0.99114178  0.12565019  1
  O  O223  1  0.74675812  0.99497485  0.62840238  1
  O  O224  1  -0.00041368  0.36630212  0.25415633  1
  O  O225  1  0.00418061  0.36907819  0.75432232  1
  O  O226  1  0.00622462  0.86977897  0.25933710  1
  O  O227  1  0.00602518  0.86842024  0.75485528  1
  O  O228  1  0.50689012  0.37407738  0.25753014  1
  O  O229  1  0.50638012  0.37591455  0.75742640  1
  O  O230  1  0.50536855  0.86964436  0.25510553  1
  O  O231  1  0.50223567  0.86633839  0.75797611  1
  O  O232  1  0.49232779  0.12669892  0.24341630  1
  O  O233  1  0.49929943  0.12388887  0.73791709  1
  O  O234  1  0.49879327  0.63189523  0.24279778  1
  O  O235  1  0.49886968  0.63781405  0.75189211  1
  O  O236  1  0.99710694  0.13561055  0.24397504  1
  O  O237  1  0.99473783  0.12984562  0.74412391  1
  O  O238  1  0.99339807  0.62746149  0.24199972  1
  O  O239  1  0.99480230  0.62902539  0.74422720  1
  O  O240  1  0.36872888  0.25586208  0.00606024  1
  O  O241  1  0.36743764  0.25661134  0.50257840  1
  O  O242  1  0.36702893  0.75104328  0.00772097  1
  O  O243  1  0.36604775  0.75392355  0.49734080  1
  O  O244  1  0.86847611  0.25538106  0.00459878  1
  O  O245  1  0.86518001  0.25688943  0.49965696  1
  O  O246  1  0.87257955  0.75147973  0.01283166  1
  O  O247  1  0.87651148  0.75523874  0.50664776  1
  O  O248  1  0.13132553  0.24165149  0.49819223  1
  O  O249  1  0.12937003  0.24626751  0.99531443  1
  O  O250  1  0.13254133  0.74481596  0.49257184  1
  O  O251  1  0.13266508  0.74573374  0.99599022  1
  O  O252  1  0.63537733  0.25264547  0.49342360  1
  O  O253  1  0.63172931  0.24324497  0.99932366  1
  O  O254  1  0.62652016  0.74195004  0.49377608  1
  O  O255  1  0.62571663  0.74298173  0.99421648  1
  O  O256  1  0.49264138  0.24398780  0.12645847  1
  O  O257  1  0.49999005  0.23745412  0.62438102  1
  O  O258  1  0.49285717  0.74625669  0.12875023  1
  O  O259  1  0.50074273  0.75009194  0.63827949  1
  O  O260  1  0.99435488  0.24670158  0.13174900  1
  O  O261  1  0.99785423  0.24288477  0.63086329  1
  O  O262  1  0.99160843  0.74531532  0.12587999  1
  O  O263  1  0.99625944  0.74318672  0.63027765  1
  O  O264  1  -0.00180984  0.25495592  0.36530916  1
  O  O265  1  0.00431601  0.25524313  0.86844490  1
  O  O266  1  0.01149291  0.75384292  0.37615464  1
  O  O267  1  0.00532800  0.75467104  0.86867591  1
  O  O268  1  0.50674052  0.25744034  0.37504665  1
  O  O269  1  0.50187520  0.25890728  0.87471696  1
  O  O270  1  0.50525671  0.75580871  0.36843397  1
  O  O271  1  0.50459158  0.75559564  0.86998690  1
  O  O272  1  0.24583066  0.12833043  0.49556705  1
  O  O273  1  0.24224181  0.13386424  0.99827820  1
  O  O274  1  0.24347184  0.63270750  0.49871401  1
  O  O275  1  0.24390553  0.63708560  0.99971815  1
  O  O276  1  0.74923156  0.13786612  0.49770261  1
  O  O277  1  0.74440766  0.12984820  0.99427768  1
  O  O278  1  0.73863051  0.62725558  0.49730637  1
  O  O279  1  0.74309355  0.62636136  0.99347566  1
  O  O280  1  0.25549115  0.37032115  0.00587107  1
  O  O281  1  0.25367960  0.36853828  0.50575583  1
  O  O282  1  0.25033359  0.86220178  0.00370810  1
  O  O283  1  0.25662944  0.86472386  0.50006481  1
  O  O284  1  0.75437497  0.37004287  0.00504363  1
  O  O285  1  0.75398661  0.36902876  0.50432524  1
  O  O286  1  0.75137936  0.87322922  0.01304842  1
  O  O287  1  0.75938859  0.87247357  0.50739690  1
  O  O288  1  0.13498776  0.49937767  0.24452037  1
  O  O289  1  0.12802345  0.49285551  0.74427503  1
  O  O290  1  0.13053405  1.00265290  0.24042895  1
  O  O291  1  0.13309229  0.99505009  0.74619664  1
  O  O292  1  0.62975295  0.49587500  0.24425031  1
  O  O293  1  0.63076952  0.49605675  0.74593155  1
  O  O294  1  0.62503904  0.99290801  0.24332656  1
  O  O295  1  0.63308508  0.99705237  0.74237465  1
  O  O296  1  0.36980064  0.00613119  0.25521154  1
  O  O297  1  0.36698115  -0.00106469  0.75856783  1
  O  O298  1  0.36701593  0.49902612  0.25949205  1
  O  O299  1  0.36671904  0.49910573  0.75801679  1
  O  O300  1  0.87658103  -0.00037431  0.26243154  1
  O  O301  1  0.86984216  0.00624653  0.75446324  1
  O  O302  1  0.86993160  0.50522555  0.25337139  1
  O  O303  1  0.86878450  0.50509104  0.75487322  1
  O  O304  1  0.11543674  0.37132410  0.37170363  1
  O  O305  1  0.11817283  0.36924421  0.86969236  1
  O  O306  1  0.12099561  0.86430368  0.37654099  1
  O  O307  1  0.11952681  0.86906776  0.86898302  1
  O  O308  1  0.61985547  0.37186363  0.37005802  1
  O  O309  1  0.61807946  0.37546298  0.86920316  1
  O  O310  1  0.61965975  0.86989501  0.36955098  1
  O  O311  1  0.61916696  0.86883061  0.87464425  1
  O  O312  1  0.37946761  0.13104459  0.13032428  1
  O  O313  1  0.38764034  0.12340702  0.62625825  1
  O  O314  1  0.38137336  0.63616941  0.12600625  1
  O  O315  1  0.37916146  0.62986152  0.62984594  1
  O  O316  1  0.88092804  0.13199469  0.12502634  1
  O  O317  1  0.88195434  0.12542147  0.63039211  1
  O  O318  1  0.87938951  0.63230175  0.12853476  1
  O  O319  1  0.88025236  0.62859030  0.63037794  1
  O  O320  1  0.25458851  0.25594998  0.12026589  1
  O  O321  1  0.25003268  0.25534218  0.61886374  1
  O  O322  1  0.25764110  0.74995536  0.11815772  1
  O  O323  1  0.24856623  0.75162135  0.61197971  1
  O  O324  1  0.75469408  0.25606393  0.11930855  1
  O  O325  1  0.74913918  0.25667795  0.61421742  1
  O  O326  1  0.75806131  0.75903781  0.12424033  1
  O  O327  1  0.75858975  0.75627595  0.62487888  1
  O  O328  1  0.24862367  0.24302446  0.38166252  1
  O  O329  1  0.24287467  0.25031093  0.88164991  1
  O  O330  1  0.24298877  0.74791621  0.38369757  1
  O  O331  1  0.24469426  0.75026620  0.88439305  1
  O  O332  1  0.74444044  0.25317972  0.38449749  1
  O  O333  1  0.74814344  0.24232580  0.88147308  1
  O  O334  1  0.74210881  0.74852499  0.37657418  1
  O  O335  1  0.74457125  0.74376561  0.87543812  1
  O  O336  1  0.00681465  0.12484552  0.00699636  1
  O  O337  1  0.00581598  0.11916603  0.50484792  1
  O  O338  1  0.00701319  0.62376670  0.00641474  1
  O  O339  1  0.00511945  0.61736035  0.50592351  1
  O  O340  1  0.50490221  0.11967433  0.00621926  1
  O  O341  1  0.50143118  0.11677355  0.50823081  1
  O  O342  1  0.50569841  0.61939598  0.00584707  1
  O  O343  1  0.51312321  0.62379659  0.50223118  1
  O  O344  1  0.49282276  0.37838806  0.49457882  1
  O  O345  1  0.49430366  0.38141929  0.99660664  1
  O  O346  1  0.49570842  0.87871038  0.49352179  1
  O  O347  1  0.49790449  0.88328995  0.99419496  1
  O  O348  1  0.99375342  0.37919517  0.49492621  1
  O  O349  1  0.99232247  0.37557786  0.99262443  1
  O  O350  1  0.99627424  0.88051327  0.49520998  1
  O  O351  1  0.99791970  0.87789148  0.99041255  1
  O  O352  1  0.48933164  0.49445727  0.37619646  1
  O  O353  1  0.49393772  0.49482154  0.88242435  1
  O  O354  1  0.49500606  0.99425118  0.37952836  1
  O  O355  1  0.49293224  0.99631842  0.87930444  1
  O  O356  1  0.99463017  0.49493130  0.37971563  1
  O  O357  1  0.99267119  0.49276172  0.87518075  1
  O  O358  1  0.99473712  0.99435739  0.38069413  1
  O  O359  1  0.99420346  0.99357248  0.87390665  1
  O  O360  1  0.00926575  0.00617515  0.12565201  1
  O  O361  1  0.00631007  0.00484908  0.61982327  1
  O  O362  1  0.00678442  0.50640426  0.12259066  1
  O  O363  1  0.00418946  0.50340368  0.61925197  1
  O  O364  1  0.50446542  0.00562743  0.11961993  1
  O  O365  1  0.50625693  0.00479765  0.61969512  1
  O  O366  1  0.50449891  0.50515002  0.12026193  1
  O  O367  1  0.50866084  0.50343708  0.62422720  1
  O  O368  1  0.24966508  0.38498943  0.24441784  1
  O  O369  1  0.24216750  0.37959730  0.74470580  1
  O  O370  1  0.24638065  0.88474704  0.24756907  1
  O  O371  1  0.24457692  0.88487033  0.74997969  1
  O  O372  1  0.74472834  0.38173847  0.24329559  1
  O  O373  1  0.74444383  0.38106512  0.74503290  1
  O  O374  1  0.74404033  0.87686176  0.23873103  1
  O  O375  1  0.75038533  0.88220572  0.74215450  1
  O  O376  1  0.25558341  0.12055209  0.25594477  1
  O  O377  1  0.25071449  0.11174990  0.75240454  1
  O  O378  1  0.25422665  0.61121679  0.25256082  1
  O  O379  1  0.24933330  0.61545915  0.75205964  1
  O  O380  1  0.75528925  0.12109249  0.25464140  1
  O  O381  1  0.75449773  0.11973349  0.75336666  1
  O  O382  1  0.75690081  0.61838899  0.24959525  1
  O  O383  1  0.75538443  0.61964097  0.75560347  1
  O  O384  1  0.37022941  0.11911784  0.37037080  1
  O  O385  1  0.37406607  0.11228614  0.87385002  1
  O  O386  1  0.37415442  0.61231912  0.37425535  1
  O  O387  1  0.37147665  0.61584134  0.87367459  1
  O  O388  1  0.87484566  0.11139729  0.37535822  1
  O  O389  1  0.86900991  0.11963153  0.86791496  1
  O  O390  1  0.87534978  0.61916023  0.36781855  1
  O  O391  1  0.87034410  0.62020688  0.86934317  1
  O  O392  1  0.13219882  0.38236266  0.12574750  1
  O  O393  1  0.12858784  0.37904264  0.63009593  1
  O  O394  1  0.12518649  0.88753711  0.12658424  1
  O  O395  1  0.12683193  0.88133462  0.63194611  1
  O  O396  1  0.62990869  0.38125379  0.12963578  1
  O  O397  1  0.63004016  0.38256463  0.63036672  1
  O  O398  1  0.63192441  0.87967097  0.12938288  1
  O  O399  1  0.63345821  0.88127701  0.62577611  1
  O  O400  1  0.11188453  0.25173900  0.24992266  1
  O  O401  1  0.11881392  0.25454243  0.75510041  1
  O  O402  1  0.12734128  0.74883033  0.26253548  1
  O  O403  1  0.12041095  0.75442166  0.75441437  1
  O  O404  1  0.62444719  0.25861237  0.25681425  1
  O  O405  1  0.62208533  0.25966008  0.75214871  1
  O  O406  1  0.61885439  0.75588231  0.25390011  1
  O  O407  1  0.61650648  0.75177041  0.75791213  1
  O  O408  1  0.37549748  0.24442263  0.24373805  1
  O  O409  1  0.37884446  0.24581493  0.74610542  1
  O  O410  1  0.37990389  0.74897745  0.24214701  1
  O  O411  1  0.38517625  0.75012690  0.75137167  1
  O  O412  1  0.88434364  0.25101946  0.24341077  1
  O  O413  1  0.88040233  0.24329211  0.74746341  1
  O  O414  1  0.87616260  0.74470866  0.23869648  1
  O  O415  1  0.88203464  0.74308587  0.74438692  1
  O  O416  1  0.37271257  0.49395888  0.49076085  1
  O  O417  1  0.37954886  0.49511506  0.99691759  1
  O  O418  1  0.38071774  0.99286359  0.49334511  1
  O  O419  1  0.37906450  1.00051293  0.99223905  1
  O  O420  1  0.87987544  0.49553520  0.49420350  1
  O  O421  1  0.87542610  0.49324656  0.99276507  1
  O  O422  1  0.88265604  0.99366189  0.49264654  1
  O  O423  1  0.87791620  0.99817619  0.99070102  1
  O  O424  1  0.12481042  0.00636587  0.00977338  1
  O  O425  1  0.12125075  0.00415235  0.50496077  1
  O  O426  1  0.12509764  0.50718541  0.00633303  1
  O  O427  1  0.11905171  0.50313737  0.50478118  1
  O  O428  1  0.61921953  0.00620394  0.00609225  1
  O  O429  1  0.61894549  -0.00022659  0.50517216  1
  O  O430  1  0.61917811  0.50550020  0.00601511  1
  O  O431  1  0.62430486  0.50927419  0.50589237  1
  O  O432  1  0.36972669  0.37070242  0.11985417  1
  O  O433  1  0.36709222  0.37572796  0.61863249  1
  O  O434  1  0.37352858  0.86331774  0.12323900  1
  O  O435  1  0.37326038  0.87050993  0.61578135  1
  O  O436  1  0.86864419  0.37013197  0.11857579  1
  O  O437  1  0.86665503  0.37415871  0.61752062  1
  O  O438  1  0.86827999  0.86795920  0.12600698  1
  O  O439  1  0.87271842  0.86945022  0.62000945  1
  O  O440  1  0.13204719  0.12532815  0.38195995  1
  O  O441  1  0.12523426  0.13229170  0.88132607  1
  O  O442  1  0.12591149  0.63287215  0.38146063  1
  O  O443  1  0.12568663  0.63244706  0.88148499  1
  O  O444  1  0.62678406  0.13461130  0.37811601  1
  O  O445  1  0.63118649  0.12455275  0.88177819  1
  O  O446  1  0.62586432  0.63045696  0.38333568  1
  O  O447  1  0.63057657  0.62978151  0.88132722  1
