# generated using pymatgen
data_V3Zn3O8
_symmetry_space_group_name_H-M   'P 1'
_cell_length_a   17.08446504
_cell_length_b   17.08441253
_cell_length_c   17.08453838
_cell_angle_alpha   89.99385051
_cell_angle_beta   90.00788806
_cell_angle_gamma   90.00055837
_symmetry_Int_Tables_number   1
_chemical_formula_structural   V3Zn3O8
_chemical_formula_sum   'V96 Zn96 O256'
_cell_volume   4986.60164709
_cell_formula_units_Z   32
loop_
 _symmetry_equiv_pos_site_id
 _symmetry_equiv_pos_as_xyz
  1  'x, y, z'
loop_
 _atom_site_type_symbol
 _atom_site_label
 _atom_site_symmetry_multiplicity
 _atom_site_fract_x
 _atom_site_fract_y
 _atom_site_fract_z
 _atom_site_occupancy
  V  V0  1  0.74985527  0.37547891  0.62528799  1
  V  V1  1  0.00079886  0.24979342  0.24977003  1
  V  V2  1  0.50110382  0.62488482  0.62478894  1
  V  V3  1  0.87540759  0.37512702  -0.00017011  1
  V  V4  1  0.62573154  0.87550833  0.25126238  1
  V  V5  1  0.00036060  0.37508275  0.87388626  1
  V  V6  1  0.24937885  0.24970487  -0.00109120  1
  V  V7  1  0.37604130  0.87402720  0.00041196  1
  V  V8  1  0.62399822  0.75030427  0.87646338  1
  V  V9  1  0.74882649  0.00090817  0.75029894  1
  V  V10  1  0.24973280  0.25099721  0.49960370  1
  V  V11  1  0.25008274  0.49967616  0.24879474  1
  V  V12  1  0.49965426  0.24894485  0.24959768  1
  V  V13  1  0.25045547  0.75019115  0.49898268  1
  V  V14  1  0.75002056  0.37488951  0.12598685  1
  V  V15  1  0.74991783  0.12455320  0.87436848  1
  V  V16  1  0.62529058  0.62440064  0.00006304  1
  V  V17  1  0.50009731  0.00125829  0.50188902  1
  V  V18  1  0.37700707  0.62417796  0.24890276  1
  V  V19  1  0.49983389  0.50072951  0.50073383  1
  V  V20  1  0.12533755  0.24970194  0.37505041  1
  V  V21  1  0.75060153  0.87398225  0.12570455  1
  V  V22  1  0.24912365  0.12540089  0.37496215  1
  V  V23  1  -0.00015606  0.87517452  0.87512150  1
  V  V24  1  0.50031258  0.62424351  0.12556033  1
  V  V25  1  0.25068318  0.87513860  0.12653040  1
  V  V26  1  0.87551127  0.24991653  0.62540534  1
  V  V27  1  0.37438988  0.12453038  0.24855075  1
  V  V28  1  0.75023084  0.24960142  -0.00000510  1
  V  V29  1  0.49780140  0.24993708  0.74972450  1
  V  V30  1  -0.00118626  0.74954318  0.74885707  1
  V  V31  1  0.50018619  0.75038997  0.75072077  1
  V  V32  1  0.37459841  0.00053293  0.37552601  1
  V  V33  1  0.49840228  0.12571687  0.62556652  1
  V  V34  1  0.75127180  0.00011090  0.25079901  1
  V  V35  1  0.74980646  0.87483868  0.62625326  1
  V  V36  1  0.00008070  0.62603314  0.12503978  1
  V  V37  1  0.37429335  0.25082663  0.62500650  1
  V  V38  1  -0.00157942  -0.00034407  0.49900365  1
  V  V39  1  0.62383375  0.00162713  0.62550397  1
  V  V40  1  0.87398393  0.12559884  0.75010589  1
  V  V41  1  0.12516712  0.50018575  0.12508377  1
  V  V42  1  0.62575706  0.49845684  0.12519771  1
  V  V43  1  0.37305525  0.00081755  0.87406969  1
  V  V44  1  0.62471854  0.00085395  0.12503216  1
  V  V45  1  0.87499335  0.75022960  0.12354969  1
  V  V46  1  0.00120074  0.50111296  0.49883388  1
  V  V47  1  0.87537413  0.25044385  0.12491565  1
  V  V48  1  0.12378279  0.00015298  0.62571519  1
  V  V49  1  0.37454244  0.37495665  0.49983590  1
  V  V50  1  0.24972050  0.62514132  0.87457054  1
  V  V51  1  0.75084998  0.75026592  0.50150572  1
  V  V52  1  0.74995716  0.49970278  0.75015943  1
  V  V53  1  0.74945144  0.74977908  0.00057824  1
  V  V54  1  0.24935280  0.87649232  0.62472703  1
  V  V55  1  0.12374684  0.37459023  0.74940473  1
  V  V56  1  0.37692546  0.74894693  0.12474300  1
  V  V57  1  0.37517975  0.87606277  0.50000182  1
  V  V58  1  0.00110686  0.87421168  0.37383764  1
  V  V59  1  0.37642975  0.75154186  0.62537508  1
  V  V60  1  0.24957884  0.50064233  0.74980320  1
  V  V61  1  0.12535630  0.37553191  0.24896187  1
  V  V62  1  -0.00106195  0.12489762  0.62512041  1
  V  V63  1  0.37372590  0.37318508  0.00051517  1
  V  V64  1  -0.00111107  -0.00136160  -0.00047562  1
  V  V65  1  0.87496892  0.62441607  0.25014898  1
  V  V66  1  0.12458355  0.87491676  0.74903413  1
  V  V67  1  0.12519391  0.12523635  -0.00199911  1
  V  V68  1  0.37439189  0.50048055  0.87472562  1
  V  V69  1  0.12562073  0.74922745  0.87414754  1
  V  V70  1  0.25162180  0.62604954  0.37485658  1
  V  V71  1  -0.00048030  0.50009941  0.00020879  1
  V  V72  1  0.50140878  0.87507254  0.37576391  1
  V  V73  1  0.74986803  0.12495549  0.37682881  1
  V  V74  1  0.75074635  0.62302287  0.37501631  1
  V  V75  1  0.62603996  0.75082467  0.37481802  1
  V  V76  1  0.49991719  0.49851636  -0.00020976  1
  V  V77  1  0.74960424  0.25035011  0.50008676  1
  V  V78  1  0.87598778  0.37631428  0.50004999  1
  V  V79  1  0.00203638  0.75102831  0.24990922  1
  V  V80  1  0.49974505  0.37461578  0.87519384  1
  V  V81  1  0.62524257  0.37376317  0.24976398  1
  V  V82  1  0.87444308  0.50007767  0.87454041  1
  V  V83  1  0.12464332  0.62490291  -0.00138750  1
  V  V84  1  0.62427569  0.24967419  0.87551858  1
  V  V85  1  0.00011902  0.12421426  0.12428058  1
  V  V86  1  0.87522333  0.62582344  0.74853903  1
  V  V87  1  0.37589415  0.50010707  0.37418129  1
  V  V88  1  0.49919201  0.87449664  0.87587707  1
  V  V89  1  0.50047933  0.37516297  0.37463707  1
  V  V90  1  0.62547089  0.37578994  0.75028218  1
  V  V91  1  0.12605146  0.62561175  0.49886600  1
  V  V92  1  -0.00039071  0.37539645  0.37535578  1
  V  V93  1  0.62466583  0.12433085  0.00182572  1
  V  V94  1  0.12572806  0.50183367  0.62382908  1
  V  V95  1  0.87548376  0.12441762  0.24980940  1
  Zn  Zn96  1  0.75143941  0.49821362  0.25086661  1
  Zn  Zn97  1  0.87566615  0.87385314  0.50000243  1
  Zn  Zn98  1  0.62465342  0.87580039  0.75281889  1
  Zn  Zn99  1  0.87420545  0.87457085  -0.00167348  1
  Zn  Zn100  1  0.49994768  0.00175781  0.00161779  1
  Zn  Zn101  1  0.62471484  0.25035832  0.37710800  1
  Zn  Zn102  1  0.37012393  0.12644254  0.75099973  1
  Zn  Zn103  1  -0.00008379  0.62814945  0.62159252  1
  Zn  Zn104  1  0.12362576  0.24913743  0.87246174  1
  Zn  Zn105  1  0.87575527  0.75067862  0.62539783  1
  Zn  Zn106  1  0.37368968  0.24941266  0.12407962  1
  Zn  Zn107  1  0.49885372  0.12326603  0.12399253  1
  Zn  Zn108  1  0.62484623  0.50004757  0.62458421  1
  Zn  Zn109  1  0.50204585  0.74945240  0.25079350  1
  Zn  Zn110  1  0.24815850  0.00319056  0.74967850  1
  Zn  Zn111  1  0.00009759  0.24929222  0.75034891  1
  Zn  Zn112  1  0.37410227  0.62544208  0.75118667  1
  Zn  Zn113  1  0.87508326  -0.00200009  0.37502144  1
  Zn  Zn114  1  0.25063177  0.37451611  0.12484236  1
  Zn  Zn115  1  0.87525844  0.49938866  0.37399393  1
  Zn  Zn116  1  0.12725340  0.75064469  0.37274032  1
  Zn  Zn117  1  0.25009857  0.37567682  0.62443426  1
  Zn  Zn118  1  0.24883439  0.12386367  0.87277997  1
  Zn  Zn119  1  0.87288485  -0.00157986  0.87468166  1
  Zn  Zn120  1  0.62624651  0.62219777  0.49996918  1
  Zn  Zn121  1  0.12657793  -0.00213619  0.12655485  1
  Zn  Zn122  1  0.62375455  0.12753055  0.50010087  1
  Zn  Zn123  1  0.24772557  -0.00063816  0.25088441  1
  Zn  Zn124  1  0.74869052  0.62580369  0.87491124  1
  Zn  Zn125  1  0.12420578  0.12692116  0.50034107  1
  Zn  Zn126  1  0.12700925  0.87597496  0.24895399  1
  Zn  Zn127  1  0.25055369  0.74882569  -0.00067778  1
  Zn  Zn128  1  0.18747030  0.18737629  0.18490332  1
  Zn  Zn129  1  0.18822156  0.18644477  0.68607141  1
  Zn  Zn130  1  0.18844983  0.68951132  0.18741870  1
  Zn  Zn131  1  0.18763251  0.68795035  0.68653468  1
  Zn  Zn132  1  0.68689814  0.18708583  0.18834723  1
  Zn  Zn133  1  0.68575855  0.18801109  0.68667911  1
  Zn  Zn134  1  0.68718685  0.68723160  0.18846174  1
  Zn  Zn135  1  0.68584099  0.68758620  0.69038680  1
  Zn  Zn136  1  0.31237092  0.31239001  0.31298552  1
  Zn  Zn137  1  0.31004225  0.31284022  0.81373402  1
  Zn  Zn138  1  0.31593390  0.81136668  0.31054812  1
  Zn  Zn139  1  0.31185670  0.81334147  0.81106658  1
  Zn  Zn140  1  0.81331826  0.31103448  0.31343501  1
  Zn  Zn141  1  0.81278569  0.31168573  0.81200021  1
  Zn  Zn142  1  0.81563244  0.81175110  0.31268147  1
  Zn  Zn143  1  0.81208553  0.81294761  0.81440000  1
  Zn  Zn144  1  0.18792058  0.43789729  0.43602898  1
  Zn  Zn145  1  0.18775348  0.43743011  0.93636242  1
  Zn  Zn146  1  0.18597517  0.93877199  0.43775151  1
  Zn  Zn147  1  0.18864481  0.93578665  0.93901078  1
  Zn  Zn148  1  0.68511885  0.43723187  0.43860297  1
  Zn  Zn149  1  0.68830524  0.43759370  0.93697954  1
  Zn  Zn150  1  0.68629438  0.93916784  0.43955521  1
  Zn  Zn151  1  0.68640878  0.93717006  0.93876704  1
  Zn  Zn152  1  0.31255709  0.06041753  0.06135003  1
  Zn  Zn153  1  0.31153616  0.06459989  0.56279964  1
  Zn  Zn154  1  0.31162747  0.56198273  0.06157893  1
  Zn  Zn155  1  0.31349374  0.56286373  0.56317983  1
  Zn  Zn156  1  0.81226820  0.06185996  0.06283698  1
  Zn  Zn157  1  0.81297535  0.06196588  0.56300762  1
  Zn  Zn158  1  0.81162942  0.56286079  0.06293146  1
  Zn  Zn159  1  0.81370046  0.56093516  0.56315196  1
  Zn  Zn160  1  0.43655572  0.43566837  0.18551379  1
  Zn  Zn161  1  0.43658480  0.43727125  0.68778058  1
  Zn  Zn162  1  0.43882153  0.93773627  0.18833983  1
  Zn  Zn163  1  0.43707041  0.93803247  0.69035406  1
  Zn  Zn164  1  0.93723093  0.43889711  0.18855018  1
  Zn  Zn165  1  0.93903307  0.44025242  0.68512232  1
  Zn  Zn166  1  0.93724662  0.93733316  0.18675683  1
  Zn  Zn167  1  0.93540156  0.93826411  0.68840301  1
  Zn  Zn168  1  0.06559190  0.06023847  0.31101787  1
  Zn  Zn169  1  0.06058683  0.06155184  0.81207861  1
  Zn  Zn170  1  0.06367728  0.56331211  0.31338183  1
  Zn  Zn171  1  0.06165106  0.56200429  0.81143205  1
  Zn  Zn172  1  0.56377055  0.06198601  0.31374284  1
  Zn  Zn173  1  0.56004382  0.06237306  0.81253322  1
  Zn  Zn174  1  0.56490866  0.56171923  0.31200979  1
  Zn  Zn175  1  0.56218907  0.56350550  0.81179916  1
  Zn  Zn176  1  0.43625644  0.18738888  0.43733825  1
  Zn  Zn177  1  0.43741166  0.18546731  0.93756299  1
  Zn  Zn178  1  0.43796633  0.68838681  0.43819233  1
  Zn  Zn179  1  0.43712931  0.68697218  0.93873267  1
  Zn  Zn180  1  0.93631085  0.18757603  0.43762443  1
  Zn  Zn181  1  0.93796035  0.18807958  0.93478979  1
  Zn  Zn182  1  0.93719133  0.68827138  0.43655169  1
  Zn  Zn183  1  0.93688876  0.68809146  0.93577486  1
  Zn  Zn184  1  0.06346938  0.31245759  0.06237145  1
  Zn  Zn185  1  0.06279005  0.31262077  0.56351296  1
  Zn  Zn186  1  0.06449068  0.81178536  0.06183730  1
  Zn  Zn187  1  0.06333387  0.81138449  0.56196279  1
  Zn  Zn188  1  0.56176296  0.31069036  0.06373363  1
  Zn  Zn189  1  0.56329369  0.31228695  0.56289544  1
  Zn  Zn190  1  0.56199343  0.81319969  0.06284684  1
  Zn  Zn191  1  0.56488218  0.81267344  0.56220854  1
  O  O192  1  0.11842855  0.12431886  0.11314095  1
  O  O193  1  0.11661692  0.11854738  0.62248579  1
  O  O194  1  0.11923445  0.62011060  0.11928345  1
  O  O195  1  0.12436847  0.61941473  0.61665625  1
  O  O196  1  0.62570172  0.11848613  0.11982397  1
  O  O197  1  0.61712107  0.11943198  0.62309158  1
  O  O198  1  0.62022911  0.61846959  0.12031666  1
  O  O199  1  0.61209181  0.62457722  0.62419977  1
  O  O200  1  0.38115784  0.38121706  0.37934353  1
  O  O201  1  0.38067269  0.38052011  0.88095400  1
  O  O202  1  0.38125276  0.88053522  0.38059321  1
  O  O203  1  0.37917954  0.88054413  0.88051588  1
  O  O204  1  0.88167463  0.37532432  0.38185540  1
  O  O205  1  0.87970406  0.38024594  0.88065442  1
  O  O206  1  0.88741647  0.87703766  0.37711986  1
  O  O207  1  0.88349496  0.87763239  0.87826604  1
  O  O208  1  0.25722094  0.00642832  0.37496640  1
  O  O209  1  0.26081492  -0.00124723  0.87456685  1
  O  O210  1  0.25677403  0.50602617  0.36854954  1
  O  O211  1  0.25481555  0.50579156  0.86981849  1
  O  O212  1  0.75227371  0.00831662  0.37067815  1
  O  O213  1  0.74975842  0.00663001  0.86894536  1
  O  O214  1  0.75059057  0.51226903  0.37556282  1
  O  O215  1  0.75724213  0.50121940  0.86886934  1
  O  O216  1  0.24255359  0.49938692  0.13129773  1
  O  O217  1  0.24427852  0.49851680  0.63113086  1
  O  O218  1  0.25119556  0.98704192  0.12601178  1
  O  O219  1  0.24201983  0.99357610  0.62328525  1
  O  O220  1  0.74366382  0.49239953  0.12572288  1
  O  O221  1  0.74838456  0.49307685  0.63183526  1
  O  O222  1  0.74536882  0.99433832  0.13114197  1
  O  O223  1  0.74435538  0.99307191  0.62896782  1
  O  O224  1  0.00495859  0.36920007  0.25463262  1
  O  O225  1  0.00910104  0.37738385  0.75466345  1
  O  O226  1  0.00001790  0.86978324  0.25798218  1
  O  O227  1  0.00450966  0.86969726  0.75481794  1
  O  O228  1  0.50367019  0.36720790  0.25462160  1
  O  O229  1  0.50549155  0.37022226  0.75620248  1
  O  O230  1  0.50755505  0.87402973  0.25856645  1
  O  O231  1  0.50198900  0.86757406  0.75686366  1
  O  O232  1  0.49146794  0.13307179  0.25293389  1
  O  O233  1  0.49700855  0.13330492  0.74383408  1
  O  O234  1  0.49473510  0.62430878  0.24329401  1
  O  O235  1  0.49736978  0.63047406  0.74084599  1
  O  O236  1  0.99557119  0.13025537  0.24451033  1
  O  O237  1  0.99269761  0.12567406  0.74310940  1
  O  O238  1  0.99546838  0.63024291  0.24455980  1
  O  O239  1  0.99062509  0.62989410  0.74883682  1
  O  O240  1  0.36602625  0.25379503  0.00002529  1
  O  O241  1  0.36993138  0.25625791  0.50423539  1
  O  O242  1  0.37387228  0.75565933  0.00722803  1
  O  O243  1  0.37037286  0.75717654  0.50561215  1
  O  O244  1  0.87017596  0.25536897  0.00533110  1
  O  O245  1  0.86991681  0.25653036  0.50605217  1
  O  O246  1  0.86855287  0.74973584  0.00647608  1
  O  O247  1  0.86181612  0.75077068  0.50310131  1
  O  O248  1  0.13092556  0.25032169  0.49265878  1
  O  O249  1  0.13107420  0.24205091  0.99849156  1
  O  O250  1  0.13336693  0.74365711  0.49776322  1
  O  O251  1  0.12536763  0.74168828  0.99181763  1
  O  O252  1  0.63339980  0.24825673  0.49738956  1
  O  O253  1  0.63123021  0.24566448  0.99514834  1
  O  O254  1  0.63698699  0.74882102  0.49430133  1
  O  O255  1  0.62971433  0.74349527  0.99658048  1
  O  O256  1  0.49733026  0.24771325  0.13861184  1
  O  O257  1  0.49402219  0.24584820  0.63004744  1
  O  O258  1  0.49519419  0.74180188  0.12679741  1
  O  O259  1  0.49628504  0.74408110  0.62875697  1
  O  O260  1  0.99457215  0.24468847  0.12989880  1
  O  O261  1  0.99275187  0.24327438  0.62537087  1
  O  O262  1  0.99506372  0.74459142  0.12918899  1
  O  O263  1  0.99590313  0.74853495  0.63231663  1
  O  O264  1  0.00494310  0.25502205  0.36910922  1
  O  O265  1  0.00266597  0.25939102  0.87138704  1
  O  O266  1  0.00074061  0.75883179  0.36940589  1
  O  O267  1  0.00608335  0.75520430  0.86908646  1
  O  O268  1  0.49968987  0.25570014  0.36503893  1
  O  O269  1  0.50494741  0.25573470  0.87010572  1
  O  O270  1  0.50781780  0.75701056  0.37601603  1
  O  O271  1  0.50388355  0.75447869  0.87069635  1
  O  O272  1  0.24836683  0.13284215  0.49238244  1
  O  O273  1  0.24055140  0.13141526  0.99976591  1
  O  O274  1  0.24736181  0.63045180  0.49400888  1
  O  O275  1  0.24210213  0.62512941  0.99288881  1
  O  O276  1  0.75101233  0.13010595  0.49152345  1
  O  O277  1  0.74560965  0.13119472  0.99486759  1
  O  O278  1  0.74962524  0.63262677  0.49314136  1
  O  O279  1  0.74287625  0.63105611  0.99901979  1
  O  O280  1  0.25418346  0.36644212  -0.00022872  1
  O  O281  1  0.25713113  0.36918315  0.49917566  1
  O  O282  1  0.25734527  0.87128415  0.00932446  1
  O  O283  1  0.25553713  0.87028727  0.50465859  1
  O  O284  1  0.75588970  0.36902337  0.00540820  1
  O  O285  1  0.75581264  0.37077176  0.50509047  1
  O  O286  1  0.75092386  0.86831513  0.00814339  1
  O  O287  1  0.75112380  0.86762058  0.50764407  1
  O  O288  1  0.13021661  0.49543122  0.24457462  1
  O  O289  1  0.12931662  0.49362137  0.74442887  1
  O  O290  1  0.13001324  0.99564653  0.24403844  1
  O  O291  1  0.12364276  0.99201401  0.74316545  1
  O  O292  1  0.62722988  0.49167556  0.24271911  1
  O  O293  1  0.63148433  0.49327896  0.74997917  1
  O  O294  1  0.63226313  0.99491168  0.24591196  1
  O  O295  1  0.63102874  0.99888446  0.74327296  1
  O  O296  1  0.37579094  0.01055167  0.25727514  1
  O  O297  1  0.37194944  0.00042738  0.76173286  1
  O  O298  1  0.37033092  0.50437439  0.25468920  1
  O  O299  1  0.36800865  0.50001896  0.75747709  1
  O  O300  1  0.86873565  0.00751777  0.24999899  1
  O  O301  1  0.86666621  0.00805667  0.75111865  1
  O  O302  1  0.87172252  0.50794126  0.25301905  1
  O  O303  1  0.87070401  0.50683174  0.75475678  1
  O  O304  1  0.11921861  0.36969510  0.36810563  1
  O  O305  1  0.11829978  0.37758546  0.86455010  1
  O  O306  1  0.11279605  0.87330254  0.37398632  1
  O  O307  1  0.11983677  0.86915706  0.86939915  1
  O  O308  1  0.61819958  0.37314127  0.36776986  1
  O  O309  1  0.61962038  0.36886114  0.87087618  1
  O  O310  1  0.62113435  0.87114445  0.37066364  1
  O  O311  1  0.61730334  0.86808170  0.87565523  1
  O  O312  1  0.37636850  0.12560385  0.13696902  1
  O  O313  1  0.38105212  0.13275142  0.62656993  1
  O  O314  1  0.38097360  0.62790287  0.12909373  1
  O  O315  1  0.38580878  0.63213411  0.62541145  1
  O  O316  1  0.87986840  0.13143162  0.12991754  1
  O  O317  1  0.87888254  0.13042930  0.63062430  1
  O  O318  1  0.88100245  0.63005274  0.12978343  1
  O  O319  1  0.87601038  0.62595246  0.63803050  1
  O  O320  1  0.25055293  0.25209591  0.11148720  1
  O  O321  1  0.25613854  0.25293162  0.61720776  1
  O  O322  1  0.25858604  0.75731442  0.12320793  1
  O  O323  1  0.25648846  0.75609134  0.61889241  1
  O  O324  1  0.75598388  0.25494698  0.11972990  1
  O  O325  1  0.75572384  0.25559407  0.61978542  1
  O  O326  1  0.75489450  0.75451970  0.12063681  1
  O  O327  1  0.74767640  0.75773413  0.61793806  1
  O  O328  1  0.24470107  0.24533212  0.37981866  1
  O  O329  1  0.24610815  0.24796866  0.88754048  1
  O  O330  1  0.25210837  0.74403731  0.38133364  1
  O  O331  1  0.24311287  0.74344970  0.87503344  1
  O  O332  1  0.75011341  0.24028466  0.38060827  1
  O  O333  1  0.74391447  0.24535269  0.88073481  1
  O  O334  1  0.74670682  0.74346864  0.38286757  1
  O  O335  1  0.74241325  0.74900623  0.88240714  1
  O  O336  1  0.00613497  0.11891924  0.00363257  1
  O  O337  1  -0.00026136  0.11574426  0.50489960  1
  O  O338  1  0.00441512  0.61931783  0.00491309  1
  O  O339  1  0.00687321  0.61982814  0.49881854  1
  O  O340  1  0.50929661  0.12459492  0.00378299  1
  O  O341  1  0.49993643  0.11894464  0.50616871  1
  O  O342  1  0.50560286  0.61753351  0.00587035  1
  O  O343  1  0.50091136  0.62060301  0.50899112  1
  O  O344  1  0.49416309  0.37986238  0.49433000  1
  O  O345  1  0.49514570  0.37875638  0.99447803  1
  O  O346  1  0.49490224  0.88080091  0.49583882  1
  O  O347  1  0.49326009  0.87644861  0.99376980  1
  O  O348  1  0.99569384  0.38036937  0.49446974  1
  O  O349  1  0.99441688  0.38078842  0.99546130  1
  O  O350  1  0.99866973  0.88183354  0.49256555  1
  O  O351  1  1.00095724  0.88424073  0.99528248  1
  O  O352  1  0.49477837  0.49532260  0.37994864  1
  O  O353  1  0.49501930  0.49404581  0.88052963  1
  O  O354  1  0.49513669  0.99505555  0.38181483  1
  O  O355  1  0.49076411  0.99296447  0.87635141  1
  O  O356  1  0.99985573  0.49294593  0.38095931  1
  O  O357  1  0.99372787  0.49495430  0.88122324  1
  O  O358  1  0.99944385  0.99304123  0.38295575  1
  O  O359  1  0.99860900  0.99404081  0.88455698  1
  O  O360  1  0.00117464  0.00563725  0.11508798  1
  O  O361  1  0.00358145  0.00345086  0.61718303  1
  O  O362  1  0.00488976  0.50635847  0.11955760  1
  O  O363  1  0.00775253  0.50339488  0.61631926  1
  O  O364  1  0.50955243  0.00218731  0.12415282  1
  O  O365  1  0.50365187  0.00505639  0.62101317  1
  O  O366  1  0.50588650  0.50370981  0.11870176  1
  O  O367  1  0.49865381  0.50960872  0.62029804  1
  O  O368  1  0.24350087  0.38128946  0.24907820  1
  O  O369  1  0.23891583  0.38189396  0.75040432  1
  O  O370  1  0.25258413  0.87579355  0.23919141  1
  O  O371  1  0.24196623  0.87600792  0.74151769  1
  O  O372  1  0.74417286  0.37364277  0.24373596  1
  O  O373  1  0.74547591  0.37977580  0.74506711  1
  O  O374  1  0.74593363  0.88017179  0.24621415  1
  O  O375  1  0.74791005  0.88045798  0.74179210  1
  O  O376  1  0.26030975  0.12700425  0.25529778  1
  O  O377  1  0.25140786  0.12169691  0.75500355  1
  O  O378  1  0.25684218  0.61932145  0.25464813  1
  O  O379  1  0.25103781  0.61858717  0.75635476  1
  O  O380  1  0.75546752  0.12104000  0.25799091  1
  O  O381  1  0.75391234  0.12078780  0.75485149  1
  O  O382  1  0.75553134  0.62561631  0.26025386  1
  O  O383  1  0.75844757  0.61941785  0.75182416  1
  O  O384  1  0.36944177  0.12061682  0.36713651  1
  O  O385  1  0.37366288  0.11286465  0.87492901  1
  O  O386  1  0.37169474  0.61933692  0.36951104  1
  O  O387  1  0.36880866  0.61789573  0.87479693  1
  O  O388  1  0.86544983  0.12370255  0.36869897  1
  O  O389  1  0.86709189  0.12463899  0.86854087  1
  O  O390  1  0.86497491  0.62572676  0.36932139  1
  O  O391  1  0.87409074  0.61879209  0.86456994  1
  O  O392  1  0.12487081  0.38255397  0.13153841  1
  O  O393  1  0.12578964  0.38218521  0.63409151  1
  O  O394  1  0.13851392  0.87371843  0.12441945  1
  O  O395  1  0.12978155  0.88001455  0.62948907  1
  O  O396  1  0.63038655  0.37891292  0.12951288  1
  O  O397  1  0.63163899  0.37578373  0.63302386  1
  O  O398  1  0.63138952  0.87979805  0.13162365  1
  O  O399  1  0.63558046  0.88118370  0.62650982  1
  O  O400  1  0.11966803  0.25520528  0.25418455  1
  O  O401  1  0.12355670  0.26307183  0.74981461  1
  O  O402  1  0.11712773  0.75284406  0.25250300  1
  O  O403  1  0.11861873  0.75495621  0.75462183  1
  O  O404  1  0.61507802  0.25463978  0.25173221  1
  O  O405  1  0.61904156  0.25606740  0.75633988  1
  O  O406  1  0.62483523  0.75769943  0.25710575  1
  O  O407  1  0.61793837  0.75166587  0.75858468  1
  O  O408  1  0.38250227  0.24153287  0.25023768  1
  O  O409  1  0.38072854  0.25202293  0.74410808  1
  O  O410  1  0.37996480  0.74116354  0.24347134  1
  O  O411  1  0.38173724  0.74877261  0.74263325  1
  O  O412  1  0.88162431  0.24482757  0.24388210  1
  O  O413  1  0.87564434  0.24397570  0.74253599  1
  O  O414  1  0.88140674  0.74368291  0.24298518  1
  O  O415  1  0.87909030  0.74022492  0.75096841  1
  O  O416  1  0.38006833  0.49506090  0.49335962  1
  O  O417  1  0.38059454  0.49393757  0.99442274  1
  O  O418  1  0.38054452  0.99476008  0.49529175  1
  O  O419  1  0.37743517  0.99325780  0.99099668  1
  O  O420  1  0.88248188  0.49361859  0.49817355  1
  O  O421  1  0.88012206  0.49470690  0.99543890  1
  O  O422  1  0.88769880  0.99733964  0.49950959  1
  O  O423  1  0.88758680  1.00015266  0.99846133  1
  O  O424  1  0.11569635  0.00795234  0.00110879  1
  O  O425  1  0.11255180  0.00134229  0.50589659  1
  O  O426  1  0.11851620  0.50483735  0.00469993  1
  O  O427  1  0.12150837  0.50561033  0.50398303  1
  O  O428  1  0.62504363  0.00720472  0.00727226  1
  O  O429  1  0.61730819  0.00233073  0.50775055  1
  O  O430  1  0.61930998  0.50353645  0.00497714  1
  O  O431  1  0.61559531  0.50223919  0.50394794  1
  O  O432  1  0.37154109  0.37165853  0.11609203  1
  O  O433  1  0.37387835  0.36908755  0.61746878  1
  O  O434  1  0.37051510  0.86946237  0.12094908  1
  O  O435  1  0.37015715  0.87130112  0.61880821  1
  O  O436  1  0.87089857  0.36967982  0.11951342  1
  O  O437  1  0.86990409  0.37028430  0.61987248  1
  O  O438  1  0.86828077  0.86770775  0.12322106  1
  O  O439  1  0.86054162  0.87332129  0.62416702  1
  O  O440  1  0.13105588  0.13267547  0.37553663  1
  O  O441  1  0.12399228  0.12607581  0.88731629  1
  O  O442  1  0.13453986  0.62619009  0.38086520  1
  O  O443  1  0.12923926  0.62906931  0.87930912  1
  O  O444  1  0.63824592  0.12663077  0.37655299  1
  O  O445  1  0.63011588  0.13111480  0.88048945  1
  O  O446  1  0.63528635  0.63119280  0.37556602  1
  O  O447  1  0.62479577  0.63135981  0.88275972  1
