# generated using pymatgen
data_V3Zn3O8
_symmetry_space_group_name_H-M   'P 1'
_cell_length_a   17.08942809
_cell_length_b   17.08968164
_cell_length_c   17.08960505
_cell_angle_alpha   90.01040512
_cell_angle_beta   89.97971104
_cell_angle_gamma   90.02116332
_symmetry_Int_Tables_number   1
_chemical_formula_structural   V3Zn3O8
_chemical_formula_sum   'V96 Zn96 O256'
_cell_volume   4991.06773300
_cell_formula_units_Z   32
loop_
 _symmetry_equiv_pos_site_id
 _symmetry_equiv_pos_as_xyz
  1  'x, y, z'
loop_
 _atom_site_type_symbol
 _atom_site_label
 _atom_site_symmetry_multiplicity
 _atom_site_fract_x
 _atom_site_fract_y
 _atom_site_fract_z
 _atom_site_occupancy
  V  V0  1  0.62507130  0.12553364  -0.00044373  1
  V  V1  1  0.12210370  0.62420966  0.50154337  1
  V  V2  1  0.87456801  0.12503192  0.74997673  1
  V  V3  1  0.62517448  0.00006287  0.12538508  1
  V  V4  1  0.62303995  0.00124134  0.62380755  1
  V  V5  1  0.87539383  0.74929874  0.62573983  1
  V  V6  1  0.00028745  0.12531407  0.12426154  1
  V  V7  1  0.37480340  0.12397979  0.75080770  1
  V  V8  1  0.37513056  -0.00076868  0.87531387  1
  V  V9  1  0.37478127  -0.00158199  0.37482608  1
  V  V10  1  0.49971222  0.62414810  0.12533519  1
  V  V11  1  0.00060629  0.37638759  0.87582016  1
  V  V12  1  0.62485596  0.25103488  0.87443370  1
  V  V13  1  0.25064147  0.24894150  0.00113726  1
  V  V14  1  0.87419380  0.87558959  -0.00082464  1
  V  V15  1  0.12496337  0.50019323  0.62553398  1
  V  V16  1  0.12449103  -0.00121459  0.12412987  1
  V  V17  1  0.62601006  0.62546068  0.00131757  1
  V  V18  1  0.25057468  0.87314313  0.12481171  1
  V  V19  1  0.87734811  0.37660880  -0.00137298  1
  V  V20  1  0.75021994  0.25100880  -0.00013295  1
  V  V21  1  0.87485397  0.00062378  0.87469517  1
  V  V22  1  0.49914501  0.87396156  0.37465659  1
  V  V23  1  0.50045521  0.62567900  0.62574173  1
  V  V24  1  0.24934311  -0.00115476  0.24968602  1
  V  V25  1  0.87559058  0.75023405  0.12362530  1
  V  V26  1  0.12463681  0.24975721  0.37475119  1
  V  V27  1  0.74938291  0.62581388  0.37418808  1
  V  V28  1  0.62423620  0.74989748  0.37444525  1
  V  V29  1  0.74935851  0.25175724  0.50105058  1
  V  V30  1  0.74990656  0.87458171  0.62130660  1
  V  V31  1  -0.00063179  0.37578483  0.37665830  1
  V  V32  1  0.12483819  0.50019419  0.12350059  1
  V  V33  1  0.25056745  0.12316177  0.87526759  1
  V  V34  1  0.62522220  0.37476163  0.75100135  1
  V  V35  1  0.00175371  0.62391793  0.12440335  1
  V  V36  1  0.87453859  0.25118407  0.62425267  1
  V  V37  1  0.75069205  0.12572645  0.87425700  1
  V  V38  1  0.87573089  0.50019516  0.37523722  1
  V  V39  1  0.49924539  0.49844730  -0.00037006  1
  V  V40  1  0.75122799  0.50180633  0.75089473  1
  V  V41  1  0.87586487  0.25062305  0.12445423  1
  V  V42  1  -0.00075309  0.12477961  0.62401279  1
  V  V43  1  0.37456250  0.24908250  0.12586486  1
  V  V44  1  0.12661243  0.74847989  0.87331598  1
  V  V45  1  -0.00109255  -0.00042042  -0.00132519  1
  V  V46  1  0.24881278  0.74909323  0.50069686  1
  V  V47  1  0.62394374  0.12538167  0.50009339  1
  V  V48  1  0.37566264  0.87430690  0.00075424  1
  V  V49  1  0.75104305  0.37615323  0.62558500  1
  V  V50  1  0.75049583  0.75022302  0.00056398  1
  V  V51  1  0.25091152  0.24959017  0.50006573  1
  V  V52  1  0.75029128  0.49995172  0.24981006  1
  V  V53  1  0.50049017  0.24926142  0.75021817  1
  V  V54  1  0.62551940  0.50097442  0.62564763  1
  V  V55  1  0.62525122  0.62565217  0.49918576  1
  V  V56  1  0.24928443  0.62428869  0.37660650  1
  V  V57  1  0.49886292  0.49949048  0.50050375  1
  V  V58  1  0.62548434  0.49968319  0.12548051  1
  V  V59  1  0.25064982  0.49911108  0.25039862  1
  V  V60  1  0.37662518  0.37515409  -0.00018019  1
  V  V61  1  -0.00077954  0.87575260  0.37368862  1
  V  V62  1  0.49971679  0.74937766  0.75112025  1
  V  V63  1  0.12409613  0.87377786  0.24960250  1
  V  V64  1  0.24941054  0.12435148  0.37466428  1
  V  V65  1  0.49982762  0.74918654  0.25075199  1
  V  V66  1  0.74872326  0.00004696  0.24905415  1
  V  V67  1  0.12453236  -0.00053542  0.62492003  1
  V  V68  1  0.62400779  0.87556197  0.75066878  1
  V  V69  1  0.00064226  0.24980289  0.74896592  1
  V  V70  1  0.87462340  0.00071982  0.37433269  1
  V  V71  1  0.37481520  0.12435241  0.25035650  1
  V  V72  1  0.12515205  0.12404573  -0.00050698  1
  V  V73  1  0.87550887  0.62535869  0.24983118  1
  V  V74  1  0.75268968  0.62554107  0.87440661  1
  V  V75  1  0.49987281  -0.00023165  -0.00013064  1
  V  V76  1  0.12411088  0.12482766  0.49955154  1
  V  V77  1  0.00001155  0.75038401  0.25003121  1
  V  V78  1  -0.00006686  0.24984144  0.25038071  1
  V  V79  1  0.37461734  0.74928634  0.12438781  1
  V  V80  1  0.49985294  0.12491149  0.12523560  1
  V  V81  1  0.75125181  0.37537376  0.12490907  1
  V  V82  1  0.37542274  0.74996139  0.62581062  1
  V  V83  1  0.37554701  0.49906944  0.37751330  1
  V  V84  1  0.12907642  0.37592074  0.74879049  1
  V  V85  1  0.62502342  0.25064335  0.37562258  1
  V  V86  1  0.37455059  0.62393899  0.25038230  1
  V  V87  1  0.37425102  0.24951187  0.62420945  1
  V  V88  1  0.87500848  0.12510875  0.24940559  1
  V  V89  1  0.37436870  0.87519128  0.49910210  1
  V  V90  1  0.24993476  0.37433792  0.12659662  1
  V  V91  1  0.24762673  0.87625322  0.62732941  1
  V  V92  1  0.62492969  0.37422015  0.25080171  1
  V  V93  1  0.12562905  0.24911311  0.87470115  1
  V  V94  1  -0.00216752  0.00020206  0.49871289  1
  V  V95  1  0.50060844  0.25029010  0.25105406  1
  Zn  Zn96  1  0.12773306  0.62625455  -0.00134372  1
  Zn  Zn97  1  0.25136232  0.37639057  0.62308027  1
  Zn  Zn98  1  0.75075916  0.12639438  0.37523445  1
  Zn  Zn99  1  0.25517287  0.62133925  0.87661304  1
  Zn  Zn100  1  0.74794940  0.87385402  0.12445536  1
  Zn  Zn101  1  0.25318046  0.50386701  0.75229285  1
  Zn  Zn102  1  0.12568938  0.37435411  0.25085212  1
  Zn  Zn103  1  -0.00050434  0.87436670  0.87175483  1
  Zn  Zn104  1  0.25126005  0.74706314  -0.00093186  1
  Zn  Zn105  1  0.87787300  0.62507829  0.74928360  1
  Zn  Zn106  1  -0.00126711  0.75084373  0.75044289  1
  Zn  Zn107  1  0.00074954  0.50235189  -0.00273932  1
  Zn  Zn108  1  0.49918325  0.37625651  0.87475281  1
  Zn  Zn109  1  0.62497137  0.75170204  0.87752466  1
  Zn  Zn110  1  0.24842948  -0.00038616  0.75126401  1
  Zn  Zn111  1  0.62463855  0.87462488  0.24922960  1
  Zn  Zn112  1  0.74991586  0.00128674  0.75024250  1
  Zn  Zn113  1  0.75041128  0.75040188  0.49684189  1
  Zn  Zn114  1  0.49993467  0.87437410  0.87654905  1
  Zn  Zn115  1  0.37523421  0.37417773  0.49938332  1
  Zn  Zn116  1  0.49840027  0.12338959  0.62508853  1
  Zn  Zn117  1  0.37429527  0.49948489  0.87154888  1
  Zn  Zn118  1  0.49890664  -0.00018632  0.49866929  1
  Zn  Zn119  1  0.12343275  0.74928291  0.37554887  1
  Zn  Zn120  1  0.11964683  0.87724999  0.75129586  1
  Zn  Zn121  1  0.87442583  0.37741950  0.50154676  1
  Zn  Zn122  1  0.87408432  0.87468145  0.49787868  1
  Zn  Zn123  1  -0.00228298  0.62602822  0.62738055  1
  Zn  Zn124  1  0.87925360  0.50176153  0.87402692  1
  Zn  Zn125  1  -0.00279771  0.50135159  0.50161401  1
  Zn  Zn126  1  0.37344545  0.61979970  0.75208167  1
  Zn  Zn127  1  0.49908261  0.37493470  0.37728022  1
  Zn  Zn128  1  0.18642727  0.18687751  0.18820312  1
  Zn  Zn129  1  0.18889651  0.18630485  0.68766789  1
  Zn  Zn130  1  0.18752094  0.68671677  0.18802173  1
  Zn  Zn131  1  0.18881690  0.68664619  0.69222437  1
  Zn  Zn132  1  0.68784816  0.18722392  0.18727980  1
  Zn  Zn133  1  0.68820214  0.18828176  0.68735906  1
  Zn  Zn134  1  0.68770424  0.68803687  0.18774594  1
  Zn  Zn135  1  0.68857954  0.68882564  0.68728708  1
  Zn  Zn136  1  0.31335163  0.31383879  0.31402887  1
  Zn  Zn137  1  0.31395110  0.31242097  0.81433071  1
  Zn  Zn138  1  0.31124684  0.81022970  0.31263698  1
  Zn  Zn139  1  0.31225281  0.81193307  0.81357793  1
  Zn  Zn140  1  0.81248203  0.31255155  0.31373105  1
  Zn  Zn141  1  0.81350969  0.31396534  0.81247837  1
  Zn  Zn142  1  0.81218079  0.81392866  0.31091593  1
  Zn  Zn143  1  0.81132037  0.81323172  0.81164228  1
  Zn  Zn144  1  0.18821456  0.43606466  0.43915297  1
  Zn  Zn145  1  0.19076929  0.43748904  0.93702339  1
  Zn  Zn146  1  0.18562353  0.93681095  0.43781572  1
  Zn  Zn147  1  0.18845615  0.93342638  0.93732406  1
  Zn  Zn148  1  0.68676504  0.43790934  0.43795560  1
  Zn  Zn149  1  0.68833489  0.43903474  0.93680249  1
  Zn  Zn150  1  0.68615341  0.93829019  0.43506819  1
  Zn  Zn151  1  0.68947190  0.93852664  0.93760451  1
  Zn  Zn152  1  0.31241840  0.06051356  0.06224287  1
  Zn  Zn153  1  0.31169874  0.06230412  0.56177473  1
  Zn  Zn154  1  0.31099215  0.56282066  0.05858894  1
  Zn  Zn155  1  0.31203105  0.56268023  0.56574540  1
  Zn  Zn156  1  0.81217380  0.06279674  0.06222792  1
  Zn  Zn157  1  0.81087766  0.06275257  0.56228017  1
  Zn  Zn158  1  0.81513487  0.56206268  0.06093231  1
  Zn  Zn159  1  0.81202589  0.56358909  0.56043606  1
  Zn  Zn160  1  0.43732170  0.43674538  0.18785149  1
  Zn  Zn161  1  0.43888350  0.43566045  0.68789739  1
  Zn  Zn162  1  0.43823429  0.93615567  0.18769996  1
  Zn  Zn163  1  0.43655213  0.93696569  0.68798035  1
  Zn  Zn164  1  0.93890494  0.43738644  0.18857750  1
  Zn  Zn165  1  0.93854973  0.43947749  0.68973325  1
  Zn  Zn166  1  0.93611725  0.93668438  0.18590161  1
  Zn  Zn167  1  0.93736460  0.93617362  0.68918874  1
  Zn  Zn168  1  0.06175356  0.06189939  0.31166279  1
  Zn  Zn169  1  0.06231645  0.06077848  0.81102944  1
  Zn  Zn170  1  0.06358496  0.56187927  0.31168932  1
  Zn  Zn171  1  0.06093974  0.56610705  0.80984622  1
  Zn  Zn172  1  0.56214084  0.06247530  0.31387455  1
  Zn  Zn173  1  0.56056707  0.06338385  0.81281133  1
  Zn  Zn174  1  0.56184055  0.56180048  0.31348568  1
  Zn  Zn175  1  0.56310334  0.56263779  0.81550956  1
  Zn  Zn176  1  0.43893423  0.18635605  0.43729095  1
  Zn  Zn177  1  0.43806368  0.18794682  0.93654066  1
  Zn  Zn178  1  0.43683662  0.68676233  0.43883967  1
  Zn  Zn179  1  0.43737983  0.68587581  0.93601672  1
  Zn  Zn180  1  0.93563833  0.18836305  0.43751075  1
  Zn  Zn181  1  0.93802983  0.18838613  0.93663602  1
  Zn  Zn182  1  0.93596279  0.69032564  0.43927029  1
  Zn  Zn183  1  0.94185190  0.68835156  0.93905797  1
  Zn  Zn184  1  0.06372198  0.31410980  0.06194514  1
  Zn  Zn185  1  0.06289870  0.31253915  0.56156958  1
  Zn  Zn186  1  0.06160148  0.81206503  0.05850111  1
  Zn  Zn187  1  0.06043132  0.81297563  0.56101798  1
  Zn  Zn188  1  0.56260252  0.31275418  0.06351495  1
  Zn  Zn189  1  0.56086520  0.31391403  0.56408278  1
  Zn  Zn190  1  0.56265512  0.81303967  0.06407016  1
  Zn  Zn191  1  0.56158979  0.81200943  0.56066143  1
  O  O192  1  0.12001350  0.11896968  0.11927114  1
  O  O193  1  0.11906040  0.12048216  0.61877281  1
  O  O194  1  0.12008362  0.61501543  0.12724144  1
  O  O195  1  0.12543757  0.61750343  0.61624714  1
  O  O196  1  0.61914437  0.12102971  0.11882128  1
  O  O197  1  0.62561536  0.11692232  0.61784018  1
  O  O198  1  0.61998820  0.61880881  0.12121433  1
  O  O199  1  0.62089551  0.62022990  0.61928360  1
  O  O200  1  0.37838086  0.38315219  0.37781497  1
  O  O201  1  0.37857564  0.37382007  0.88591587  1
  O  O202  1  0.37825712  0.87907068  0.37971724  1
  O  O203  1  0.37647769  0.88155712  0.88213524  1
  O  O204  1  0.88370472  0.38067195  0.37553980  1
  O  O205  1  0.88292104  0.37453379  0.88089315  1
  O  O206  1  0.88109069  0.88293229  0.37459053  1
  O  O207  1  0.87335075  0.88286594  0.88158131  1
  O  O208  1  0.25422296  0.00470881  0.36907898  1
  O  O209  1  0.25682450  0.00599285  0.87500728  1
  O  O210  1  0.25497127  0.50507741  0.37055053  1
  O  O211  1  0.25370878  0.50079200  0.87114802  1
  O  O212  1  0.75485842  0.00263450  0.36500283  1
  O  O213  1  0.75630897  0.00883137  0.87340985  1
  O  O214  1  0.75494720  0.50528297  0.36835065  1
  O  O215  1  0.75080847  0.51007004  0.86976378  1
  O  O216  1  0.24340778  0.49427077  0.13088195  1
  O  O217  1  0.23637682  0.49648979  0.62639279  1
  O  O218  1  0.24419161  0.99425404  0.13082217  1
  O  O219  1  0.24387718  0.99097961  0.62337779  1
  O  O220  1  0.74549212  0.49504221  0.13051770  1
  O  O221  1  0.74430268  0.49608068  0.63042591  1
  O  O222  1  0.74437704  1.00136788  0.13366780  1
  O  O223  1  0.73923458  0.99257084  0.62618215  1
  O  O224  1  0.00069830  0.36808371  0.26065086  1
  O  O225  1  0.00980737  0.36874960  0.75485609  1
  O  O226  1  0.00474462  0.87046579  0.25365834  1
  O  O227  1  0.00192133  0.87028047  0.75341577  1
  O  O228  1  0.50750198  0.36768052  0.24995357  1
  O  O229  1  0.50898870  0.36681154  0.75130207  1
  O  O230  1  0.49995763  0.86696392  0.25688937  1
  O  O231  1  0.50919859  0.86719024  0.74850466  1
  O  O232  1  0.49422853  0.13002754  0.24478865  1
  O  O233  1  0.49313744  0.13153866  0.74791141  1
  O  O234  1  0.49398787  0.62895080  0.24481617  1
  O  O235  1  0.50500697  0.63659251  0.74358326  1
  O  O236  1  0.99474891  0.12991835  0.24340349  1
  O  O237  1  0.99487986  0.13091690  0.74352134  1
  O  O238  1  0.99442945  0.63054288  0.24556921  1
  O  O239  1  0.99476676  0.63207210  0.74438249  1
  O  O240  1  0.37003557  0.25316571  0.00735724  1
  O  O241  1  0.37042413  0.24659065  0.50860576  1
  O  O242  1  0.37695853  0.75700526  0.00798969  1
  O  O243  1  0.36895148  0.75527685  0.50597175  1
  O  O244  1  0.86982841  0.25519276  0.00549324  1
  O  O245  1  0.86744882  0.25123388  0.50696476  1
  O  O246  1  0.87015429  0.75548872  0.00518820  1
  O  O247  1  0.86960166  0.75497906  0.50902220  1
  O  O248  1  0.12981305  0.24317876  0.49424498  1
  O  O249  1  0.13074977  0.24376111  0.99513393  1
  O  O250  1  0.13018616  0.73989652  0.49993283  1
  O  O251  1  0.12760694  0.75102106  0.98756739  1
  O  O252  1  0.62907004  0.24317283  0.49736553  1
  O  O253  1  0.63090159  0.24484217  0.99579810  1
  O  O254  1  0.62548658  0.74304888  0.49237358  1
  O  O255  1  0.63119838  0.74334332  1.00087860  1
  O  O256  1  0.49466190  0.24348169  0.13089313  1
  O  O257  1  0.49062777  0.24714274  0.63083547  1
  O  O258  1  0.49458585  0.74333582  0.13132139  1
  O  O259  1  0.49582071  0.74609514  0.63197795  1
  O  O260  1  0.99566412  0.24506261  0.12987080  1
  O  O261  1  0.99512987  0.24427576  0.62911604  1
  O  O262  1  0.99503749  0.74439700  0.13053126  1
  O  O263  1  0.98575692  0.75199912  0.62341579  1
  O  O264  1  0.00409459  0.25666784  0.37028141  1
  O  O265  1  0.00674260  0.25432077  0.86867691  1
  O  O266  1  0.00020268  0.75713289  0.36771231  1
  O  O267  1  0.01282368  0.75295371  0.87545845  1
  O  O268  1  0.50678362  0.25076280  0.36813736  1
  O  O269  1  0.50784927  0.25058833  0.86862647  1
  O  O270  1  0.50385088  0.75365758  0.36965589  1
  O  O271  1  0.50495121  0.75309477  0.86370365  1
  O  O272  1  0.24339746  0.12895117  0.49297046  1
  O  O273  1  0.24450160  0.12939927  0.99589021  1
  O  O274  1  0.24147276  0.62950971  0.49668022  1
  O  O275  1  0.24536504  0.63003130  0.99683362  1
  O  O276  1  0.73863270  0.13167897  0.49994748  1
  O  O277  1  0.74487180  0.13180553  0.99498394  1
  O  O278  1  0.74196496  0.62582143  0.49088273  1
  O  O279  1  0.74586292  0.62959724  0.99367537  1
  O  O280  1  0.25574512  0.36684353  0.00764228  1
  O  O281  1  0.25269159  0.36458869  0.50228760  1
  O  O282  1  0.25855447  0.87377185  0.00918120  1
  O  O283  1  0.25404772  0.86989254  0.50745582  1
  O  O284  1  0.75566546  0.36983628  0.00571385  1
  O  O285  1  0.74992571  0.36959580  0.50826950  1
  O  O286  1  0.75574289  0.86856555  0.00197171  1
  O  O287  1  0.74850887  0.87487863  0.51083323  1
  O  O288  1  0.13214029  0.49836697  0.24060214  1
  O  O289  1  0.12429364  0.48995757  0.74139765  1
  O  O290  1  0.12975119  0.99474923  0.24352874  1
  O  O291  1  0.12824248  0.99858527  0.74047776  1
  O  O292  1  0.63078540  0.49493466  0.24486113  1
  O  O293  1  0.63030650  0.49499975  0.74449550  1
  O  O294  1  0.63361340  1.00208417  0.24481565  1
  O  O295  1  0.62433554  0.99284370  0.74072473  1
  O  O296  1  0.36868622  0.00495986  0.25463328  1
  O  O297  1  0.37367702  0.00605873  0.75644201  1
  O  O298  1  0.37010348  0.50556177  0.25556202  1
  O  O299  1  0.37279570  0.49957689  0.75063162  1
  O  O300  1  0.86783160  0.00580953  0.25300081  1
  O  O301  1  0.87271007  0.00837231  0.75560326  1
  O  O302  1  0.86934216  0.50570254  0.25462881  1
  O  O303  1  0.86604333  0.50310094  0.75287687  1
  O  O304  1  0.11623610  0.36888979  0.37342027  1
  O  O305  1  0.12085442  0.36788340  0.86767380  1
  O  O306  1  0.11792696  0.87402648  0.36743580  1
  O  O307  1  0.12349501  0.86493492  0.87320793  1
  O  O308  1  0.62363133  0.36893828  0.36792180  1
  O  O309  1  0.62604564  0.36770957  0.86881801  1
  O  O310  1  0.61745450  0.86857577  0.37263997  1
  O  O311  1  0.62501566  0.87600322  0.86176978  1
  O  O312  1  0.37968604  0.12928137  0.13076006  1
  O  O313  1  0.37529522  0.13301320  0.63027722  1
  O  O314  1  0.38063565  0.62904970  0.13122354  1
  O  O315  1  0.38321570  0.63350054  0.62625537  1
  O  O316  1  0.88113538  0.13143955  0.12889812  1
  O  O317  1  0.87967612  0.13066257  0.62997202  1
  O  O318  1  0.88125956  0.62969068  0.13089531  1
  O  O319  1  0.87297548  0.63703690  0.62434990  1
  O  O320  1  0.25490218  0.25313914  0.12092475  1
  O  O321  1  0.25904054  0.24784149  0.61872375  1
  O  O322  1  0.25753465  0.75651514  0.12683479  1
  O  O323  1  0.25471783  0.75854937  0.61973294  1
  O  O324  1  0.75587439  0.25547043  0.11959760  1
  O  O325  1  0.75508233  0.25667163  0.62090332  1
  O  O326  1  0.75771199  0.74946110  0.11915578  1
  O  O327  1  0.75463728  0.75986897  0.62206460  1
  O  O328  1  0.24497412  0.24295985  0.37898726  1
  O  O329  1  0.24462847  0.24320525  0.88197905  1
  O  O330  1  0.24764456  0.74247086  0.38227836  1
  O  O331  1  0.23729491  0.75204610  0.87639217  1
  O  O332  1  0.74322262  0.24854550  0.38174401  1
  O  O333  1  0.74510885  0.24535050  0.88078123  1
  O  O334  1  0.74332370  0.74381285  0.37325095  1
  O  O335  1  0.74725272  0.74185742  0.88115833  1
  O  O336  1  0.00567050  0.12074419  0.00537179  1
  O  O337  1  0.00478887  0.12052904  0.50469481  1
  O  O338  1  0.00496655  0.62184681  0.01009558  1
  O  O339  1  0.01166664  0.62440020  0.50131022  1
  O  O340  1  0.50550193  0.12027205  0.00595594  1
  O  O341  1  0.51283090  0.12310851  0.50275221  1
  O  O342  1  0.50665382  0.61926643  0.00749511  1
  O  O343  1  0.50585404  0.62013896  0.50634952  1
  O  O344  1  0.49778928  0.38402286  0.49876607  1
  O  O345  1  0.49464048  0.38038683  1.00159633  1
  O  O346  1  0.49199855  0.87562178  0.49284223  1
  O  O347  1  0.49436317  0.88233745  0.99974903  1
  O  O348  1  0.99837730  0.37537487  0.48682565  1
  O  O349  1  0.99480254  0.37464383  0.99316350  1
  O  O350  1  0.99852955  0.88350374  0.49178073  1
  O  O351  1  0.99156207  0.88363365  0.99858429  1
  O  O352  1  0.49338190  0.50039207  0.38237289  1
  O  O353  1  0.50101140  0.49638955  0.88605886  1
  O  O354  1  0.49227546  0.99296139  0.37505084  1
  O  O355  1  0.49351269  0.99906274  0.88256975  1
  O  O356  1  0.99484955  0.49056470  0.37365979  1
  O  O357  1  1.00054649  0.49163448  0.87658193  1
  O  O358  1  0.99416450  0.99568943  0.37860011  1
  O  O359  1  0.99256033  1.00159882  0.88218820  1
  O  O360  1  0.00495622  0.00632216  0.11948374  1
  O  O361  1  0.00389432  0.00613577  0.61833603  1
  O  O362  1  0.00998770  0.50439749  0.12748067  1
  O  O363  1  0.01236945  0.50082318  0.62246543  1
  O  O364  1  0.50452419  0.00663113  0.12049747  1
  O  O365  1  0.51182594  0.00014589  0.62173126  1
  O  O366  1  0.50656334  0.50517304  0.12108946  1
  O  O367  1  0.50726613  0.50596106  0.62046041  1
  O  O368  1  0.24920793  0.38083451  0.24418745  1
  O  O369  1  0.23550244  0.37027360  0.74772121  1
  O  O370  1  0.24458243  0.88016807  0.24518329  1
  O  O371  1  0.25035560  0.87625518  0.73494260  1
  O  O372  1  0.74539520  0.38011707  0.24397883  1
  O  O373  1  0.74470298  0.38064585  0.74501232  1
  O  O374  1  0.74829292  0.88835670  0.24683441  1
  O  O375  1  0.73896923  0.87685791  0.73921226  1
  O  O376  1  0.25481152  0.11863047  0.25483897  1
  O  O377  1  0.25651007  0.12365197  0.75803272  1
  O  O378  1  0.25573443  0.61914333  0.25629456  1
  O  O379  1  0.25538257  0.62278753  0.75479414  1
  O  O380  1  0.75609065  0.11637482  0.25035146  1
  O  O381  1  0.75654754  0.12530337  0.75636170  1
  O  O382  1  0.75587450  0.61897919  0.25448244  1
  O  O383  1  0.74834330  0.62083202  0.75992549  1
  O  O384  1  0.36911371  0.11910155  0.36929164  1
  O  O385  1  0.36948043  0.11977541  0.87107176  1
  O  O386  1  0.36883585  0.61930943  0.37026368  1
  O  O387  1  0.37573822  0.62026531  0.87044201  1
  O  O388  1  0.87388343  0.11918687  0.36702838  1
  O  O389  1  0.86998909  0.12159925  0.86982051  1
  O  O390  1  0.87001700  0.62051643  0.36873661  1
  O  O391  1  0.86199967  0.62583706  0.87608835  1
  O  O392  1  0.13097208  0.38230286  0.12835236  1
  O  O393  1  0.12452029  0.38125176  0.63266389  1
  O  O394  1  0.12950368  0.88036649  0.12993757  1
  O  O395  1  0.13454043  0.88026401  0.62218386  1
  O  O396  1  0.63227382  0.37968721  0.13068637  1
  O  O397  1  0.63130681  0.38101269  0.63150019  1
  O  O398  1  0.62703300  0.88427397  0.12865969  1
  O  O399  1  0.63017476  0.88207478  0.63004290  1
  O  O400  1  0.11793335  0.24985603  0.25687201  1
  O  O401  1  0.11966759  0.25561695  0.75399367  1
  O  O402  1  0.11785911  0.75608839  0.25143745  1
  O  O403  1  0.12425858  0.75408298  0.76213149  1
  O  O404  1  0.62071386  0.25409691  0.25475994  1
  O  O405  1  0.62080152  0.25466362  0.75465223  1
  O  O406  1  0.61746365  0.74987051  0.25612623  1
  O  O407  1  0.61651345  0.76074391  0.74731622  1
  O  O408  1  0.37969052  0.24336359  0.24532644  1
  O  O409  1  0.37916417  0.24417305  0.74301855  1
  O  O410  1  0.38016290  0.74284953  0.24525265  1
  O  O411  1  0.38819157  0.75450397  0.74372863  1
  O  O412  1  0.87992449  0.24503792  0.24381274  1
  O  O413  1  0.88134009  0.24511973  0.74427954  1
  O  O414  1  0.88018704  0.74453246  0.24403122  1
  O  O415  1  0.87141958  0.74938322  0.73690264  1
  O  O416  1  0.38080190  0.50020171  0.49591173  1
  O  O417  1  0.38366565  0.49083944  1.00429930  1
  O  O418  1  0.37561226  0.99409789  0.49252394  1
  O  O419  1  0.38110621  0.99509004  0.99581203  1
  O  O420  1  0.87775039  0.49791683  0.49138163  1
  O  O421  1  0.87868787  0.49115143  0.99718930  1
  O  O422  1  0.88019206  1.00028325  0.49295840  1
  O  O423  1  0.87937769  0.99672080  0.99492408  1
  O  O424  1  0.11977885  0.00504628  0.00528669  1
  O  O425  1  0.11827235  0.00650855  0.50422615  1
  O  O426  1  0.12482528  0.49850994  0.01505859  1
  O  O427  1  0.12420253  0.50808897  0.50744128  1
  O  O428  1  0.62029762  0.00666640  0.00484029  1
  O  O429  1  0.62476981  0.00850327  0.50703414  1
  O  O430  1  0.62092446  0.50486759  0.00766500  1
  O  O431  1  0.61984612  0.50635131  0.50597602  1
  O  O432  1  0.36941112  0.36747609  0.12111200  1
  O  O433  1  0.37277406  0.35961747  0.62417587  1
  O  O434  1  0.37027159  0.86952897  0.12114806  1
  O  O435  1  0.36683060  0.87107938  0.61864518  1
  O  O436  1  0.87063611  0.36946733  0.12040406  1
  O  O437  1  0.86948327  0.36890182  0.62493524  1
  O  O438  1  0.87297566  0.86798841  0.11778787  1
  O  O439  1  0.86304662  0.87072712  0.62377525  1
  O  O440  1  0.12954561  0.12948925  0.37972328  1
  O  O441  1  0.12989817  0.12968226  0.88042614  1
  O  O442  1  0.13074463  0.62415217  0.38512722  1
  O  O443  1  0.12510287  0.63947989  0.87544000  1
  O  O444  1  0.62624167  0.13062755  0.38489497  1
  O  O445  1  0.63070287  0.13070392  0.88042469  1
  O  O446  1  0.62993720  0.62985678  0.37912207  1
  O  O447  1  0.63636198  0.62667589  0.88272913  1
