# generated using pymatgen
data_V3Zn3O8
_symmetry_space_group_name_H-M   'P 1'
_cell_length_a   17.08798349
_cell_length_b   17.08936135
_cell_length_c   17.08973784
_cell_angle_alpha   90.01774620
_cell_angle_beta   90.00641261
_cell_angle_gamma   89.99159833
_symmetry_Int_Tables_number   1
_chemical_formula_structural   V3Zn3O8
_chemical_formula_sum   'V96 Zn96 O256'
_cell_volume   4990.59148111
_cell_formula_units_Z   32
loop_
 _symmetry_equiv_pos_site_id
 _symmetry_equiv_pos_as_xyz
  1  'x, y, z'
loop_
 _atom_site_type_symbol
 _atom_site_label
 _atom_site_symmetry_multiplicity
 _atom_site_fract_x
 _atom_site_fract_y
 _atom_site_fract_z
 _atom_site_occupancy
  V  V0  1  0.49902471  0.49992269  0.50101143  1
  V  V1  1  0.25044588  0.37414415  0.62500722  1
  V  V2  1  0.87559322  0.75023858  0.62543661  1
  V  V3  1  0.25039658  -0.00086682  0.75070537  1
  V  V4  1  0.62433214  0.24985673  0.87577571  1
  V  V5  1  0.37523294  0.87340129  0.00063217  1
  V  V6  1  0.74965154  0.62594328  0.37482689  1
  V  V7  1  0.62479218  0.62441971  0.00047567  1
  V  V8  1  0.00021869  0.87669874  0.37604894  1
  V  V9  1  0.62475211  0.37526012  0.25019677  1
  V  V10  1  0.87527427  0.24887246  0.12471559  1
  V  V11  1  0.25070202  0.87378095  0.12476011  1
  V  V12  1  0.75023005  0.00030878  0.25122813  1
  V  V13  1  0.00057949  0.74902663  0.74960574  1
  V  V14  1  0.62447288  -0.00007886  0.62484306  1
  V  V15  1  0.50039670  -0.00038216  -0.00036837  1
  V  V16  1  0.87602056  0.87634839  0.49925953  1
  V  V17  1  0.62387298  0.25003149  0.37520017  1
  V  V18  1  0.24952570  0.24950721  -0.00033237  1
  V  V19  1  0.37412158  0.87404583  0.50136438  1
  V  V20  1  0.25088339  0.74964244  0.50145678  1
  V  V21  1  0.49985672  0.87545137  0.37519181  1
  V  V22  1  0.37537415  0.24853962  0.62529021  1
  V  V23  1  0.50076774  0.74956703  0.24969311  1
  V  V24  1  0.12303045  0.00120556  0.62380846  1
  V  V25  1  0.49946639  0.12556939  0.62528348  1
  V  V26  1  0.87580214  0.12681212  0.74810672  1
  V  V27  1  0.12538624  0.87442127  0.75140529  1
  V  V28  1  0.12403532  0.37539847  0.74870984  1
  V  V29  1  0.12327249  0.25144180  0.87359661  1
  V  V30  1  0.87434078  0.50056156  0.37445910  1
  V  V31  1  0.25114457  0.00016589  0.25082677  1
  V  V32  1  0.74940633  0.25102347  0.49993676  1
  V  V33  1  0.37409057  0.24958199  0.12516354  1
  V  V34  1  0.87529796  0.00020076  0.87338571  1
  V  V35  1  0.62573994  0.75013732  0.37529810  1
  V  V36  1  0.49985892  0.37400675  0.87582082  1
  V  V37  1  0.37390428  0.12347351  0.25070868  1
  V  V38  1  0.49957921  0.12521097  0.12501939  1
  V  V39  1  0.75041436  0.50096993  0.75000731  1
  V  V40  1  0.12529674  0.75016377  0.37450030  1
  V  V41  1  0.62433399  0.50075463  0.62457491  1
  V  V42  1  0.87555735  0.37470571  -0.00133376  1
  V  V43  1  0.37481090  0.37473698  0.49968280  1
  V  V44  1  0.50042264  0.49966981  0.00034579  1
  V  V45  1  0.87690931  0.12559643  0.24953618  1
  V  V46  1  0.49963481  0.62492588  0.62533404  1
  V  V47  1  -0.00004588  0.50207120  0.49948771  1
  V  V48  1  0.49970723  0.74933320  0.74928561  1
  V  V49  1  0.12599463  0.62550948  -0.00009503  1
  V  V50  1  0.74949577  0.49932987  0.25020133  1
  V  V51  1  0.49914003  0.25024457  0.25002444  1
  V  V52  1  0.87423877  0.37616245  0.49912450  1
  V  V53  1  0.12483274  0.24856956  0.37541890  1
  V  V54  1  0.12559957  0.87417709  0.25026986  1
  V  V55  1  -0.00025581  0.62524683  0.12587317  1
  V  V56  1  0.12498537  0.37515185  0.24912117  1
  V  V57  1  -0.00050415  0.87478448  0.87547070  1
  V  V58  1  0.62498536  0.00006961  0.12552142  1
  V  V59  1  0.25229595  0.50112108  0.75179428  1
  V  V60  1  0.74955856  0.37491949  0.12576103  1
  V  V61  1  0.49864751  0.37547664  0.37570494  1
  V  V62  1  0.49889039  -0.00017646  0.49973520  1
  V  V63  1  0.12625298  0.74844066  0.87663771  1
  V  V64  1  0.24828871  0.24928062  0.49979459  1
  V  V65  1  0.75014034  0.87438673  0.62431582  1
  V  V66  1  0.74951812  0.24974143  -0.00032612  1
  V  V67  1  0.87573200  0.62565235  0.24863105  1
  V  V68  1  0.62523974  0.87542864  0.24986236  1
  V  V69  1  0.87462322  0.87499391  0.00076141  1
  V  V70  1  0.62545035  0.12555236  0.00006333  1
  V  V71  1  0.62438831  0.12528515  0.50010734  1
  V  V72  1  0.50117396  0.62503754  0.12513375  1
  V  V73  1  0.12508624  0.62507644  0.49955833  1
  V  V74  1  0.50028988  0.24943451  0.75025125  1
  V  V75  1  0.74925563  0.75018236  0.49948727  1
  V  V76  1  0.62625714  0.74992045  0.87527810  1
  V  V77  1  0.24984049  0.12433882  0.87484108  1
  V  V78  1  0.24912467  0.37475455  0.12500544  1
  V  V79  1  0.74995540  0.12486736  0.37500677  1
  V  V80  1  0.37490217  0.62412612  0.25095164  1
  V  V81  1  0.62490966  0.87506129  0.74975394  1
  V  V82  1  0.75067075  0.00000899  0.74936611  1
  V  V83  1  0.37592656  0.37493552  0.00012561  1
  V  V84  1  0.50096014  0.87603499  0.87496188  1
  V  V85  1  0.74911559  0.37715911  0.62468578  1
  V  V86  1  0.87444114  0.25073029  0.62475692  1
  V  V87  1  0.12232931  0.00134820  0.12294451  1
  V  V88  1  -0.00054763  0.49843827  -0.00151111  1
  V  V89  1  0.00015960  0.62646175  0.62409083  1
  V  V90  1  0.25058293  0.62391316  0.37478477  1
  V  V91  1  0.75192203  0.62457728  0.87571484  1
  V  V92  1  0.75088953  0.87464588  0.12466198  1
  V  V93  1  0.37588647  0.62469843  0.75110229  1
  V  V94  1  0.12617119  0.49925307  0.12463058  1
  V  V95  1  -0.00037983  0.37501532  0.37347892  1
  Zn  Zn96  1  0.87649819  0.00199238  0.37730020  1
  Zn  Zn97  1  0.37624568  0.12313724  0.74979036  1
  Zn  Zn98  1  0.00119081  0.12906893  0.62127981  1
  Zn  Zn99  1  0.25014709  0.87314416  0.62631839  1
  Zn  Zn100  1  -0.00114231  0.00294639  0.50156961  1
  Zn  Zn101  1  0.62337407  0.62560697  0.49962386  1
  Zn  Zn102  1  -0.00196594  0.25293964  0.74728443  1
  Zn  Zn103  1  0.62439270  0.37432906  0.75073086  1
  Zn  Zn104  1  0.87551491  0.75015397  0.12594814  1
  Zn  Zn105  1  0.25084331  0.49926548  0.25118384  1
  Zn  Zn106  1  0.12479592  0.50103998  0.62436017  1
  Zn  Zn107  1  0.75055754  0.74863303  0.00195901  1
  Zn  Zn108  1  0.37626233  0.00060428  0.87440101  1
  Zn  Zn109  1  0.12150932  0.12509704  0.00021993  1
  Zn  Zn110  1  0.00019734  0.00247337  -0.00170690  1
  Zn  Zn111  1  0.37430724  0.74934223  0.12525175  1
  Zn  Zn112  1  0.12336603  0.12351412  0.49932200  1
  Zn  Zn113  1  0.37625268  0.50084473  0.87673537  1
  Zn  Zn114  1  0.37329021  0.49899802  0.37615450  1
  Zn  Zn115  1  0.00102451  0.24941246  0.24740480  1
  Zn  Zn116  1  -0.00335650  0.37664346  0.87254410  1
  Zn  Zn117  1  0.37295627  0.00149902  0.37581679  1
  Zn  Zn118  1  0.37324795  0.74972264  0.62717844  1
  Zn  Zn119  1  0.25062636  0.74769733  0.00077555  1
  Zn  Zn120  1  -0.00026008  0.12602849  0.12089894  1
  Zn  Zn121  1  0.87692093  0.62530292  0.75097811  1
  Zn  Zn122  1  -0.00067863  0.75011758  0.24816656  1
  Zn  Zn123  1  0.87663729  0.49911956  0.87441487  1
  Zn  Zn124  1  0.25006162  0.12296477  0.37667345  1
  Zn  Zn125  1  0.25289385  0.62610815  0.87793719  1
  Zn  Zn126  1  0.75052400  0.12563197  0.87536108  1
  Zn  Zn127  1  0.62531956  0.50023709  0.12584316  1
  Zn  Zn128  1  0.18775678  0.18629546  0.18929677  1
  Zn  Zn129  1  0.18834481  0.18625394  0.68723593  1
  Zn  Zn130  1  0.18815315  0.68838353  0.18637629  1
  Zn  Zn131  1  0.18795180  0.68705655  0.68700197  1
  Zn  Zn132  1  0.68834963  0.18810962  0.18739579  1
  Zn  Zn133  1  0.68785935  0.18825344  0.68807445  1
  Zn  Zn134  1  0.68904248  0.68837673  0.18660744  1
  Zn  Zn135  1  0.68646071  0.68656027  0.68702278  1
  Zn  Zn136  1  0.31094071  0.31215465  0.31225698  1
  Zn  Zn137  1  0.31411682  0.31208735  0.81211866  1
  Zn  Zn138  1  0.31255425  0.81157808  0.31376110  1
  Zn  Zn139  1  0.31301867  0.81118120  0.81525068  1
  Zn  Zn140  1  0.81201923  0.31147022  0.31225364  1
  Zn  Zn141  1  0.81023236  0.31334632  0.81361928  1
  Zn  Zn142  1  0.81455721  0.81165734  0.31193997  1
  Zn  Zn143  1  0.81328109  0.81153780  0.81227976  1
  Zn  Zn144  1  0.18744847  0.43803939  0.43630864  1
  Zn  Zn145  1  0.18775004  0.43802299  0.93725847  1
  Zn  Zn146  1  0.18860467  0.93748357  0.43755775  1
  Zn  Zn147  1  0.18758374  0.93561788  0.93866768  1
  Zn  Zn148  1  0.68566424  0.43913407  0.43756542  1
  Zn  Zn149  1  0.68618882  0.43709257  0.93830650  1
  Zn  Zn150  1  0.68768682  0.93783529  0.43706994  1
  Zn  Zn151  1  0.68952403  0.93896795  0.93686701  1
  Zn  Zn152  1  0.31061096  0.06075603  0.06246588  1
  Zn  Zn153  1  0.31026447  0.06334700  0.56208046  1
  Zn  Zn154  1  0.31308204  0.56201102  0.06362862  1
  Zn  Zn155  1  0.31330933  0.56227327  0.56460166  1
  Zn  Zn156  1  0.81178749  0.06145004  0.06258723  1
  Zn  Zn157  1  0.81295183  0.06199859  0.56232432  1
  Zn  Zn158  1  0.81383542  0.56017594  0.06302112  1
  Zn  Zn159  1  0.81281107  0.56513311  0.56194049  1
  Zn  Zn160  1  0.43771288  0.43913102  0.18633257  1
  Zn  Zn161  1  0.43767512  0.43608265  0.68802387  1
  Zn  Zn162  1  0.43711162  0.93782867  0.18709526  1
  Zn  Zn163  1  0.43669535  0.93761094  0.68690243  1
  Zn  Zn164  1  0.93802468  0.43751190  0.18609001  1
  Zn  Zn165  1  0.93681165  0.44007575  0.68573547  1
  Zn  Zn166  1  0.93809572  0.93841770  0.18919544  1
  Zn  Zn167  1  0.93877852  0.93698065  0.68792062  1
  Zn  Zn168  1  0.06321214  0.06166631  0.31085540  1
  Zn  Zn169  1  0.06030269  0.06306186  0.81003041  1
  Zn  Zn170  1  0.06286889  0.56175730  0.31105948  1
  Zn  Zn171  1  0.06335265  0.56292194  0.81389176  1
  Zn  Zn172  1  0.56109709  0.06193202  0.31332063  1
  Zn  Zn173  1  0.56336673  0.06340899  0.81316724  1
  Zn  Zn174  1  0.56234786  0.56159692  0.31419034  1
  Zn  Zn175  1  0.56311926  0.56128453  0.81360476  1
  Zn  Zn176  1  0.43531526  0.18731094  0.43691825  1
  Zn  Zn177  1  0.43659248  0.18730098  0.93709429  1
  Zn  Zn178  1  0.43758816  0.68762906  0.43747499  1
  Zn  Zn179  1  0.43835859  0.68719400  0.93579213  1
  Zn  Zn180  1  0.93967538  0.18689992  0.43855047  1
  Zn  Zn181  1  0.93883241  0.18686279  0.93671527  1
  Zn  Zn182  1  0.93701064  0.68979648  0.43647616  1
  Zn  Zn183  1  0.93843997  0.68765043  0.93896796  1
  Zn  Zn184  1  0.06047448  0.31187536  0.06166163  1
  Zn  Zn185  1  0.06083867  0.31353560  0.56199670  1
  Zn  Zn186  1  0.06113852  0.81168963  0.06263477  1
  Zn  Zn187  1  0.06412000  0.81423048  0.56281227  1
  Zn  Zn188  1  0.56287247  0.31264854  0.06334236  1
  Zn  Zn189  1  0.56236218  0.31384159  0.56387867  1
  Zn  Zn190  1  0.56317209  0.81033340  0.06271877  1
  Zn  Zn191  1  0.56166152  0.81135178  0.56278566  1
  O  O192  1  0.12425049  0.11364099  0.12506854  1
  O  O193  1  0.12312217  0.11409374  0.62631500  1
  O  O194  1  0.12018672  0.61876502  0.12017900  1
  O  O195  1  0.11785145  0.62430758  0.61714561  1
  O  O196  1  0.61918900  0.12027097  0.12055107  1
  O  O197  1  0.61999552  0.11981468  0.61892014  1
  O  O198  1  0.61949792  0.62389415  0.11893515  1
  O  O199  1  0.61793107  0.61863950  0.62307186  1
  O  O200  1  0.38116616  0.37440289  0.38131257  1
  O  O201  1  0.38173641  0.37415785  0.88310031  1
  O  O202  1  0.38136006  0.87574406  0.38554676  1
  O  O203  1  0.38233611  0.87721405  0.88438358  1
  O  O204  1  0.87867213  0.38046529  0.37972745  1
  O  O205  1  0.87616328  0.37688705  0.88269209  1
  O  O206  1  0.88448750  0.87621714  0.37975738  1
  O  O207  1  0.87897445  0.87985376  0.88127733  1
  O  O208  1  0.25090836  0.00191364  0.36587144  1
  O  O209  1  0.24695079  0.00845169  0.86679278  1
  O  O210  1  0.25276872  0.50798833  0.37205597  1
  O  O211  1  0.25276600  0.49988818  0.86222569  1
  O  O212  1  0.75011878  0.00746607  0.36873325  1
  O  O213  1  0.75673421  0.00193739  0.86638061  1
  O  O214  1  0.75517246  0.50536839  0.37018623  1
  O  O215  1  0.74817845  0.50848131  0.86640574  1
  O  O216  1  0.24359922  0.49167491  0.12627606  1
  O  O217  1  0.24839271  0.49327505  0.63598001  1
  O  O218  1  0.24166239  0.99373343  0.13057592  1
  O  O219  1  0.24226279  0.99960556  0.63638801  1
  O  O220  1  0.74849931  0.49242493  0.13272000  1
  O  O221  1  0.74575262  0.49771318  0.63159369  1
  O  O222  1  0.74328229  0.99461221  0.13160934  1
  O  O223  1  0.74358792  0.99371719  0.62941598  1
  O  O224  1  0.00595576  0.37367131  0.25646424  1
  O  O225  1  0.01220185  0.37660444  0.75019461  1
  O  O226  1  0.00611459  0.87405765  0.25983466  1
  O  O227  1  0.00549476  0.86834150  0.75614953  1
  O  O228  1  0.50409918  0.36921742  0.25496872  1
  O  O229  1  0.50172100  0.36765470  0.75683423  1
  O  O230  1  0.50561380  0.87042678  0.25476508  1
  O  O231  1  0.50574929  0.87082758  0.75473690  1
  O  O232  1  0.49544121  0.13047666  0.24411371  1
  O  O233  1  0.49866919  0.13008605  0.74311641  1
  O  O234  1  0.49368154  0.62955726  0.24661187  1
  O  O235  1  0.49573991  0.62926947  0.74576998  1
  O  O236  1  0.98635276  0.12551101  0.24924903  1
  O  O237  1  0.98601723  0.12787525  0.74645883  1
  O  O238  1  0.99341872  0.62447410  0.24388912  1
  O  O239  1  0.99955784  0.63096897  0.74320479  1
  O  O240  1  0.36942966  0.25443168  0.00641463  1
  O  O241  1  0.36919444  0.25536777  0.50568431  1
  O  O242  1  0.37702029  0.76285094  0.00159294  1
  O  O243  1  0.37029419  0.75903673  0.50084934  1
  O  O244  1  0.86902464  0.25427416  0.00462665  1
  O  O245  1  0.86794194  0.25664560  0.50380511  1
  O  O246  1  0.87292500  0.76396920  0.00032678  1
  O  O247  1  0.86896927  0.75673034  0.50547124  1
  O  O248  1  0.12995464  0.25269135  0.49016657  1
  O  O249  1  0.13145628  0.25077678  0.98865492  1
  O  O250  1  0.13099907  0.74507290  0.49412668  1
  O  O251  1  0.12500852  0.74365298  0.99361659  1
  O  O252  1  0.62945399  0.24500236  0.49506719  1
  O  O253  1  0.62945621  0.24423768  0.99629971  1
  O  O254  1  0.63146863  0.75018248  0.49298712  1
  O  O255  1  0.62709500  0.74333388  0.99228469  1
  O  O256  1  0.49412316  0.24449108  0.13074918  1
  O  O257  1  0.49548203  0.24472754  0.62973568  1
  O  O258  1  0.49958681  0.74328529  0.13287558  1
  O  O259  1  0.49967480  0.74347065  0.63261048  1
  O  O260  1  0.99157702  0.24654454  0.12775530  1
  O  O261  1  0.99009591  0.25052545  0.62735226  1
  O  O262  1  0.99747529  0.74110603  0.12775609  1
  O  O263  1  0.99549058  0.74629299  0.62998094  1
  O  O264  1  0.00905324  0.25725409  0.37394732  1
  O  O265  1  0.01292006  0.25236686  0.87019141  1
  O  O266  1  0.00666951  0.76104721  0.37438156  1
  O  O267  1  0.00544201  0.75500944  0.86916264  1
  O  O268  1  0.50519345  0.25527604  0.36969074  1
  O  O269  1  0.50482372  0.25381335  0.87054353  1
  O  O270  1  0.50630311  0.75593043  0.36968176  1
  O  O271  1  0.50743228  0.75615570  0.86871227  1
  O  O272  1  0.24532202  0.13375251  0.49704708  1
  O  O273  1  0.24693313  0.12989968  0.99025582  1
  O  O274  1  0.24565993  0.62953242  0.49537679  1
  O  O275  1  0.24284831  0.62626127  0.99888022  1
  O  O276  1  0.74387623  0.13095905  0.49533147  1
  O  O277  1  0.74305841  0.13128263  0.99971145  1
  O  O278  1  0.74840551  0.63255762  0.49261424  1
  O  O279  1  0.74494222  0.62379106  0.99052745  1
  O  O280  1  0.25563278  0.36894566  0.00476599  1
  O  O281  1  0.25464628  0.36999205  0.50576448  1
  O  O282  1  0.26106981  0.87514520  0.00512202  1
  O  O283  1  0.25975163  0.86913537  0.50016848  1
  O  O284  1  0.75455797  0.36954587  0.00612999  1
  O  O285  1  0.75493738  0.37101932  0.50407260  1
  O  O286  1  0.75879260  0.87513308  0.00508580  1
  O  O287  1  0.75495592  0.86990282  0.50502268  1
  O  O288  1  0.12692834  0.49294028  0.24252306  1
  O  O289  1  0.13419615  0.49101066  0.74934559  1
  O  O290  1  0.13087375  0.99390099  0.24194698  1
  O  O291  1  0.13277133  0.99514970  0.74481352  1
  O  O292  1  0.63154083  0.49264251  0.25027569  1
  O  O293  1  0.63553049  0.49916360  0.74408622  1
  O  O294  1  0.62957238  0.99508842  0.24477297  1
  O  O295  1  0.63005144  0.99475082  0.74405472  1
  O  O296  1  0.36904192  0.00530334  0.25030761  1
  O  O297  1  0.36328546  0.00057966  0.75233804  1
  O  O298  1  0.37503851  0.51245295  0.25203365  1
  O  O299  1  0.36662835  0.50432341  0.75104779  1
  O  O300  1  0.86838236  0.00956403  0.25196239  1
  O  O301  1  0.86974987  0.00713188  0.75249659  1
  O  O302  1  0.86887910  0.50455876  0.25593455  1
  O  O303  1  0.86212426  0.50285240  0.75062724  1
  O  O304  1  0.11962854  0.36791714  0.36965156  1
  O  O305  1  0.12785545  0.36581475  0.86506219  1
  O  O306  1  0.11858033  0.86993957  0.37086537  1
  O  O307  1  0.11893338  0.86966663  0.87071444  1
  O  O308  1  0.61924794  0.36871282  0.37021117  1
  O  O309  1  0.61769451  0.36715575  0.87490321  1
  O  O310  1  0.61986270  0.87015630  0.36913405  1
  O  O311  1  0.62094852  0.87063423  0.86932390  1
  O  O312  1  0.38021928  0.13023231  0.12914897  1
  O  O313  1  0.38186106  0.13092523  0.62551166  1
  O  O314  1  0.38153893  0.62696567  0.13467213  1
  O  O315  1  0.38235225  0.62662519  0.63333333  1
  O  O316  1  0.87282250  0.12954157  0.13509863  1
  O  O317  1  0.87323617  0.13171640  0.63340394  1
  O  O318  1  0.88132021  0.62476279  0.13085230  1
  O  O319  1  0.88186375  0.63333720  0.62554978  1
  O  O320  1  0.25444981  0.25454537  0.11901879  1
  O  O321  1  0.25507217  0.25491287  0.62028333  1
  O  O322  1  0.25334304  0.75897444  0.12181690  1
  O  O323  1  0.25237291  0.75298762  0.61751178  1
  O  O324  1  0.75493115  0.25556786  0.11943969  1
  O  O325  1  0.75374664  0.25700096  0.61847911  1
  O  O326  1  0.75322948  0.75907998  0.12201450  1
  O  O327  1  0.75442801  0.75560310  0.62018105  1
  O  O328  1  0.23893340  0.25138546  0.38086016  1
  O  O329  1  0.24279588  0.24272930  0.87796068  1
  O  O330  1  0.24447199  0.74406931  0.38154914  1
  O  O331  1  0.24105298  0.74783832  0.87849340  1
  O  O332  1  0.74320088  0.24512311  0.38076058  1
  O  O333  1  0.74228201  0.24870170  0.88246173  1
  O  O334  1  0.74498837  0.74593147  0.37984438  1
  O  O335  1  0.74441094  0.73977757  0.87413063  1
  O  O336  1  0.00404953  0.11963984  0.00222197  1
  O  O337  1  0.00457610  0.12026403  0.50346498  1
  O  O338  1  0.00537626  0.61857787  0.00589800  1
  O  O339  1  0.00509694  0.62151806  0.50344870  1
  O  O340  1  0.50473738  0.12001953  0.00597259  1
  O  O341  1  0.50536673  0.12036244  0.50509249  1
  O  O342  1  0.50499465  0.62004217  0.00473162  1
  O  O343  1  0.50002584  0.61844982  0.50657754  1
  O  O344  1  0.49410740  0.37895270  0.49539939  1
  O  O345  1  0.49473495  0.37867371  0.99648626  1
  O  O346  1  0.49318772  0.87957542  0.49567751  1
  O  O347  1  0.49471432  0.88024506  0.99571334  1
  O  O348  1  0.99322473  0.38201305  0.49383813  1
  O  O349  1  0.99349558  0.38102282  0.99793598  1
  O  O350  1  0.99500522  0.87576785  0.49092574  1
  O  O351  1  0.99016682  0.87762348  0.99392807  1
  O  O352  1  0.49837909  0.49228128  0.38237068  1
  O  O353  1  0.49968289  0.49200090  0.88202872  1
  O  O354  1  0.49935440  0.99302951  0.38250961  1
  O  O355  1  0.49967235  0.99400202  0.88147305  1
  O  O356  1  0.99356484  0.49511946  0.38017811  1
  O  O357  1  0.99753533  0.49786580  0.88239677  1
  O  O358  1  1.00145177  0.98693026  0.37682264  1
  O  O359  1  0.99328448  0.99215696  0.87350418  1
  O  O360  1  0.01223023  0.00044854  0.12486689  1
  O  O361  1  0.01272350  0.00018061  0.62644309  1
  O  O362  1  0.00677554  0.50472658  0.11846470  1
  O  O363  1  0.00083704  0.50764843  0.61694598  1
  O  O364  1  0.50641485  0.00581976  0.12010309  1
  O  O365  1  0.50583347  0.00521407  0.61974096  1
  O  O366  1  0.50268389  0.50686021  0.11841317  1
  O  O367  1  0.50507880  0.50425462  0.62097092  1
  O  O368  1  0.24409540  0.37585094  0.24224661  1
  O  O369  1  0.24410553  0.38141483  0.74527017  1
  O  O370  1  0.24558026  0.87974789  0.24516236  1
  O  O371  1  0.24498805  0.88481918  0.75196288  1
  O  O372  1  0.74449719  0.37927934  0.24616570  1
  O  O373  1  0.74828456  0.38538326  0.74389320  1
  O  O374  1  0.74482275  0.88066843  0.24582055  1
  O  O375  1  0.74464550  0.87963498  0.74378672  1
  O  O376  1  0.25753772  0.11816094  0.25053642  1
  O  O377  1  0.25082766  0.11630360  0.75866070  1
  O  O378  1  0.25992227  0.62547761  0.25515712  1
  O  O379  1  0.25564344  0.61482314  0.74971912  1
  O  O380  1  0.75671233  0.12077290  0.25519036  1
  O  O381  1  0.75964524  0.11895388  0.74976207  1
  O  O382  1  0.75499586  0.61912426  0.25549674  1
  O  O383  1  0.74991346  0.61744460  0.75825578  1
  O  O384  1  0.37290975  0.12280475  0.36636631  1
  O  O385  1  0.36183604  0.12322850  0.87353696  1
  O  O386  1  0.37016183  0.62457626  0.36610762  1
  O  O387  1  0.37370598  0.62164812  0.86666061  1
  O  O388  1  0.86823261  0.12571455  0.36632726  1
  O  O389  1  0.87319783  0.12003684  0.86430212  1
  O  O390  1  0.86947838  0.61964910  0.36991364  1
  O  O391  1  0.86330759  0.62375451  0.87401586  1
  O  O392  1  0.13012566  0.37861610  0.12919286  1
  O  O393  1  0.13138784  0.37552239  0.63432500  1
  O  O394  1  0.12981888  0.88197647  0.13010282  1
  O  O395  1  0.12779523  0.88349273  0.63314912  1
  O  O396  1  0.63137707  0.37503860  0.13294529  1
  O  O397  1  0.63205538  0.38216121  0.62656920  1
  O  O398  1  0.62971758  0.88092982  0.13048522  1
  O  O399  1  0.63006374  0.88044195  0.62998511  1
  O  O400  1  0.12409014  0.25615723  0.25892413  1
  O  O401  1  0.12723691  0.25978191  0.75662495  1
  O  O402  1  0.12438389  0.75671983  0.25740469  1
  O  O403  1  0.12002224  0.75507085  0.75547096  1
  O  O404  1  0.61893763  0.25462285  0.25564922  1
  O  O405  1  0.61886125  0.25095986  0.75662980  1
  O  O406  1  0.62056913  0.75651715  0.25572852  1
  O  O407  1  0.62008383  0.75632102  0.75506179  1
  O  O408  1  0.38007840  0.24484692  0.24396570  1
  O  O409  1  0.38138355  0.24746449  0.74273790  1
  O  O410  1  0.38205455  0.74013528  0.25045542  1
  O  O411  1  0.38242737  0.74420288  0.74989848  1
  O  O412  1  0.87372929  0.24037702  0.24435493  1
  O  O413  1  0.87244287  0.24264403  0.74408300  1
  O  O414  1  0.87770135  0.74091021  0.24798908  1
  O  O415  1  0.88230558  0.74936140  0.74308909  1
  O  O416  1  0.38115168  0.49195643  0.50020056  1
  O  O417  1  0.38208561  0.49242487  0.99965446  1
  O  O418  1  0.37997814  0.99101462  0.49972605  1
  O  O419  1  0.38144472  0.99010314  0.99926671  1
  O  O420  1  0.87921306  0.49556344  0.49369030  1
  O  O421  1  0.88142691  0.49188484  0.99913480  1
  O  O422  1  0.87674482  0.99180666  0.49772005  1
  O  O423  1  0.87425017  0.99014350  0.99327950  1
  O  O424  1  0.12491099  0.00005368  0.01158988  1
  O  O425  1  0.12655521  -0.00083267  0.51319402  1
  O  O426  1  0.12000271  0.50421415  0.00524950  1
  O  O427  1  0.11786933  0.50664210  0.50066058  1
  O  O428  1  0.62024589  0.00509556  0.00576720  1
  O  O429  1  0.61959390  0.00527309  0.50567600  1
  O  O430  1  0.61827961  0.50658315  0.00255628  1
  O  O431  1  0.61754041  0.50168846  0.50662842  1
  O  O432  1  0.37004720  0.36840898  0.12034538  1
  O  O433  1  0.36991085  0.36794854  0.61937258  1
  O  O434  1  0.37093722  0.87442681  0.11602162  1
  O  O435  1  0.37428870  0.87308841  0.61288206  1
  O  O436  1  0.86874128  0.36860114  0.11996963  1
  O  O437  1  0.86828538  0.37151138  0.61827725  1
  O  O438  1  0.87004650  0.87726613  0.11631963  1
  O  O439  1  0.86958943  0.86977624  0.62012640  1
  O  O440  1  0.12559077  0.13792216  0.37382254  1
  O  O441  1  0.13376501  0.13459169  0.87156785  1
  O  O442  1  0.12990640  0.63028925  0.37984969  1
  O  O443  1  0.12664708  0.63133126  0.88220466  1
  O  O444  1  0.62909149  0.13098725  0.38037787  1
  O  O445  1  0.62641480  0.13133104  0.88280849  1
  O  O446  1  0.63166369  0.63249068  0.37566216  1
  O  O447  1  0.63294200  0.62992373  0.87986291  1
