# generated using pymatgen
data_V3Zn3O8
_symmetry_space_group_name_H-M   'P 1'
_cell_length_a   17.08728497
_cell_length_b   17.08905608
_cell_length_c   17.08783093
_cell_angle_alpha   89.99851945
_cell_angle_beta   90.00347216
_cell_angle_gamma   89.97785834
_symmetry_Int_Tables_number   1
_chemical_formula_structural   V3Zn3O8
_chemical_formula_sum   'V96 Zn96 O256'
_cell_volume   4989.74144769
_cell_formula_units_Z   32
loop_
 _symmetry_equiv_pos_site_id
 _symmetry_equiv_pos_as_xyz
  1  'x, y, z'
loop_
 _atom_site_type_symbol
 _atom_site_label
 _atom_site_symmetry_multiplicity
 _atom_site_fract_x
 _atom_site_fract_y
 _atom_site_fract_z
 _atom_site_occupancy
  V  V0  1  0.62512127  0.50134862  0.62431382  1
  V  V1  1  -0.00099637  -0.00182546  -0.00084524  1
  V  V2  1  0.25015027  0.74871799  -0.00073393  1
  V  V3  1  0.50014535  0.62665226  0.12534100  1
  V  V4  1  0.25078753  -0.00016669  0.75036246  1
  V  V5  1  0.74994965  0.37641585  0.12603922  1
  V  V6  1  0.50031490  0.24994355  0.75022433  1
  V  V7  1  0.37544770  0.49985616  0.87360707  1
  V  V8  1  0.62508277  0.37563627  0.74953022  1
  V  V9  1  0.74985430  0.00078940  0.25036436  1
  V  V10  1  0.75006659  0.62456170  0.87525621  1
  V  V11  1  0.49954159  0.37674829  0.87419825  1
  V  V12  1  0.62348414  0.00335444  0.12442598  1
  V  V13  1  0.12498860  0.12478105  0.49909406  1
  V  V14  1  0.12611006  0.49760540  0.12448744  1
  V  V15  1  0.74903813  0.24935440  -0.00069966  1
  V  V16  1  0.49937825  0.87630120  0.37559409  1
  V  V17  1  0.00072963  0.50009526  0.49983501  1
  V  V18  1  0.25132711  0.00254326  0.25020031  1
  V  V19  1  0.12496403  -0.00024049  0.62418942  1
  V  V20  1  0.75105366  0.50148465  0.25203819  1
  V  V21  1  0.12391012  0.74898032  0.37351351  1
  V  V22  1  0.12475790  0.12383621  -0.00073793  1
  V  V23  1  -0.00040169  0.87448264  0.87520664  1
  V  V24  1  0.62427645  0.87555710  0.25123674  1
  V  V25  1  0.87416184  0.37505362  0.00118783  1
  V  V26  1  0.87487715  0.87551177  0.50017266  1
  V  V27  1  0.50069041  0.12486665  0.62482246  1
  V  V28  1  0.49934981  0.00102649  0.50031830  1
  V  V29  1  0.75039574  0.87474457  0.12500316  1
  V  V30  1  0.75121242  0.37492866  0.62394073  1
  V  V31  1  0.74956127  0.62609463  0.37550743  1
  V  V32  1  0.62521264  0.75165199  0.37565038  1
  V  V33  1  0.87574778  0.87469320  -0.00104398  1
  V  V34  1  0.37476869  0.50142119  0.37533205  1
  V  V35  1  0.37616943  0.62581926  0.74831997  1
  V  V36  1  0.49954507  0.37382634  0.37476967  1
  V  V37  1  0.62450837  0.12564270  0.50101251  1
  V  V38  1  0.87575242  0.74888850  0.12545051  1
  V  V39  1  0.24972085  0.49931844  0.74894153  1
  V  V40  1  0.62470378  0.62521051  0.00077605  1
  V  V41  1  0.24965852  0.87259847  0.12377993  1
  V  V42  1  0.12437381  -0.00148854  0.12447674  1
  V  V43  1  0.62534532  0.74948063  0.87503341  1
  V  V44  1  -0.00022824  -0.00049087  0.49959883  1
  V  V45  1  0.50012827  0.87543019  0.87561183  1
  V  V46  1  0.87550382  0.62539276  0.74949370  1
  V  V47  1  0.62423649  0.37465303  0.25198955  1
  V  V48  1  0.49904244  0.74951453  0.74873725  1
  V  V49  1  0.12495519  0.49968353  0.62488385  1
  V  V50  1  0.87550220  0.49956483  0.87461199  1
  V  V51  1  -0.00007750  0.49870970  0.00018181  1
  V  V52  1  0.25046290  0.62413319  0.37446638  1
  V  V53  1  0.12510042  0.24852549  0.87559147  1
  V  V54  1  0.24945649  0.12380800  0.87562802  1
  V  V55  1  0.87528211  0.12517865  0.24970720  1
  V  V56  1  0.12583683  0.37517636  0.75014222  1
  V  V57  1  0.75035390  0.49989290  0.74921314  1
  V  V58  1  0.37434803  0.87649927  0.49877968  1
  V  V59  1  0.87501909  0.50024741  0.37569409  1
  V  V60  1  0.12630182  0.74847115  0.87446345  1
  V  V61  1  0.74962983  0.87580793  0.62649458  1
  V  V62  1  0.25036461  0.24989400  0.50099520  1
  V  V63  1  0.37423862  0.24992699  0.62542973  1
  V  V64  1  0.74993290  0.75072157  0.49936289  1
  V  V65  1  0.12502597  0.62428304  0.49971167  1
  V  V66  1  0.37519891  0.12407951  0.75205678  1
  V  V67  1  0.50071119  0.50223728  0.50129403  1
  V  V68  1  0.62653386  0.87771867  0.74921477  1
  V  V69  1  0.87533188  0.24974378  0.62550438  1
  V  V70  1  0.00026119  0.74904199  0.24874388  1
  V  V71  1  0.25015498  0.62519720  0.87392154  1
  V  V72  1  0.62508963  0.50286158  0.12541654  1
  V  V73  1  -0.00019603  0.24896696  0.74950349  1
  V  V74  1  -0.00048703  0.62382799  0.12440108  1
  V  V75  1  -0.00081794  0.12538268  0.62600173  1
  V  V76  1  0.25060501  0.87480804  0.62353952  1
  V  V77  1  0.74988241  0.25018489  0.50088923  1
  V  V78  1  -0.00014009  0.37507684  0.37586162  1
  V  V79  1  0.00045294  0.37428384  0.87501945  1
  V  V80  1  0.37432469  0.74892007  0.12456691  1
  V  V81  1  0.37483091  0.62517514  0.24949152  1
  V  V82  1  0.87542547  0.74956265  0.62518505  1
  V  V83  1  0.00017514  0.74912975  0.74938909  1
  V  V84  1  0.87488825  -0.00025670  0.37620678  1
  V  V85  1  0.24980159  0.75133335  0.49907218  1
  V  V86  1  -0.00144111  0.12414624  0.12559878  1
  V  V87  1  0.12556782  0.37334133  0.24965912  1
  V  V88  1  0.62655239  0.25096144  0.87539056  1
  V  V89  1  0.75045514  0.74969638  0.00063184  1
  V  V90  1  0.74933236  0.12591892  0.37688689  1
  V  V91  1  0.12567129  0.87409259  0.74934577  1
  V  V92  1  0.49942178  0.00032783  0.00088521  1
  V  V93  1  0.37449045  0.37297991  0.00140407  1
  V  V94  1  0.12388765  0.24935303  0.37528237  1
  V  V95  1  0.12396007  0.87289766  0.24899956  1
  Zn  Zn96  1  -0.00169204  0.24848115  0.24957190  1
  Zn  Zn97  1  0.37395862  0.37574462  0.50180502  1
  Zn  Zn98  1  0.87543118  0.37490429  0.49976712  1
  Zn  Zn99  1  0.12575994  0.62270761  -0.00119278  1
  Zn  Zn100  1  0.25107099  0.37506141  0.62585942  1
  Zn  Zn101  1  0.87520632  0.62511436  0.25033332  1
  Zn  Zn102  1  0.37528020  -0.00091558  0.87727492  1
  Zn  Zn103  1  -0.00084000  0.87394675  0.37448970  1
  Zn  Zn104  1  0.49657416  0.24863289  0.24679063  1
  Zn  Zn105  1  0.37318673  0.24827172  0.12814497  1
  Zn  Zn106  1  0.37628739  0.74920863  0.62346426  1
  Zn  Zn107  1  0.49958443  0.50144564  -0.00058086  1
  Zn  Zn108  1  0.75386865  0.00271192  0.75167367  1
  Zn  Zn109  1  0.62446868  0.12694102  -0.00112963  1
  Zn  Zn110  1  0.87268834  0.00240990  0.87404709  1
  Zn  Zn111  1  0.62519791  0.62761356  0.50161648  1
  Zn  Zn112  1  0.25084371  0.24836667  0.00199604  1
  Zn  Zn113  1  0.75044399  0.12131858  0.87312302  1
  Zn  Zn114  1  0.49916164  0.75181602  0.25063639  1
  Zn  Zn115  1  0.49665158  0.13126691  0.12565963  1
  Zn  Zn116  1  0.50037096  0.62734187  0.62403989  1
  Zn  Zn117  1  0.37425159  0.00302588  0.37356937  1
  Zn  Zn118  1  0.37490240  0.87428617  -0.00080185  1
  Zn  Zn119  1  0.87310054  0.12279239  0.75319478  1
  Zn  Zn120  1  0.25183604  0.37244799  0.12431999  1
  Zn  Zn121  1  0.87504103  0.25049175  0.12693987  1
  Zn  Zn122  1  0.25166330  0.12499371  0.37246771  1
  Zn  Zn123  1  0.00018695  0.62496921  0.62429029  1
  Zn  Zn124  1  0.62717071  0.00177363  0.62643697  1
  Zn  Zn125  1  0.37911669  0.12995788  0.25035519  1
  Zn  Zn126  1  0.62411561  0.24922812  0.37532664  1
  Zn  Zn127  1  0.25114131  0.49900742  0.24924588  1
  Zn  Zn128  1  0.18886444  0.18896124  0.18342759  1
  Zn  Zn129  1  0.18691510  0.18653670  0.68755799  1
  Zn  Zn130  1  0.18793986  0.68456410  0.18696292  1
  Zn  Zn131  1  0.18892218  0.68680928  0.68546508  1
  Zn  Zn132  1  0.68785444  0.18888166  0.18786734  1
  Zn  Zn133  1  0.68873798  0.18665743  0.68844303  1
  Zn  Zn134  1  0.68737072  0.68857590  0.18995046  1
  Zn  Zn135  1  0.68645952  0.68769929  0.68626848  1
  Zn  Zn136  1  0.31252579  0.31229760  0.31370827  1
  Zn  Zn137  1  0.31196453  0.31121761  0.81463676  1
  Zn  Zn138  1  0.31267390  0.81364226  0.31166121  1
  Zn  Zn139  1  0.31473586  0.81307487  0.81282190  1
  Zn  Zn140  1  0.81350421  0.31153790  0.31407493  1
  Zn  Zn141  1  0.81382772  0.31150041  0.81193605  1
  Zn  Zn142  1  0.81308414  0.81304550  0.31186681  1
  Zn  Zn143  1  0.81300783  0.81294148  0.81302424  1
  Zn  Zn144  1  0.18756151  0.43641839  0.43737427  1
  Zn  Zn145  1  0.18949913  0.43661226  0.93657628  1
  Zn  Zn146  1  0.18632833  0.93628433  0.43443034  1
  Zn  Zn147  1  0.18735319  0.93641415  0.93704874  1
  Zn  Zn148  1  0.68738907  0.43840255  0.43869518  1
  Zn  Zn149  1  0.68701056  0.43748990  0.93817147  1
  Zn  Zn150  1  0.68620204  0.93920782  0.43940092  1
  Zn  Zn151  1  0.68807312  0.93826544  0.93690754  1
  Zn  Zn152  1  0.31438881  0.06378079  0.06545749  1
  Zn  Zn153  1  0.31367999  0.06333033  0.56289251  1
  Zn  Zn154  1  0.31276615  0.56101683  0.06052642  1
  Zn  Zn155  1  0.31301237  0.56366348  0.56332150  1
  Zn  Zn156  1  0.81336864  0.06291352  0.06139404  1
  Zn  Zn157  1  0.81211806  0.06229785  0.56618623  1
  Zn  Zn158  1  0.81250694  0.56254336  0.06337549  1
  Zn  Zn159  1  0.81341695  0.56351531  0.56103416  1
  Zn  Zn160  1  0.43847265  0.44001367  0.18686756  1
  Zn  Zn161  1  0.43637547  0.43671053  0.68609598  1
  Zn  Zn162  1  0.43580701  0.93603407  0.18687447  1
  Zn  Zn163  1  0.43731340  0.93805761  0.68596991  1
  Zn  Zn164  1  0.93793850  0.43687652  0.18927422  1
  Zn  Zn165  1  0.93842286  0.43653520  0.68616883  1
  Zn  Zn166  1  0.93728040  0.93688880  0.18757269  1
  Zn  Zn167  1  0.93661199  0.93817614  0.68829934  1
  Zn  Zn168  1  0.06302367  0.06208112  0.31247967  1
  Zn  Zn169  1  0.06112712  0.06137624  0.81238774  1
  Zn  Zn170  1  0.06166924  0.56189387  0.31133983  1
  Zn  Zn171  1  0.06277445  0.56266036  0.81174363  1
  Zn  Zn172  1  0.56059257  0.06419394  0.31340285  1
  Zn  Zn173  1  0.56439908  0.06441194  0.81592614  1
  Zn  Zn174  1  0.56233764  0.56487937  0.31306776  1
  Zn  Zn175  1  0.56177477  0.56318316  0.81142472  1
  Zn  Zn176  1  0.43389439  0.18546041  0.43456530  1
  Zn  Zn177  1  0.43898267  0.18661500  0.93835927  1
  Zn  Zn178  1  0.43700823  0.68937426  0.43635044  1
  Zn  Zn179  1  0.43738930  0.68769230  0.93742511  1
  Zn  Zn180  1  0.93694586  0.18798154  0.43817000  1
  Zn  Zn181  1  0.93561725  0.18616407  0.93784746  1
  Zn  Zn182  1  0.93741776  0.68638909  0.43644550  1
  Zn  Zn183  1  0.93885253  0.68668109  0.93816076  1
  Zn  Zn184  1  0.06092381  0.30876323  0.06276181  1
  Zn  Zn185  1  0.06310383  0.31347187  0.56294634  1
  Zn  Zn186  1  0.06355576  0.81020397  0.06114237  1
  Zn  Zn187  1  0.06201682  0.81230197  0.56173244  1
  Zn  Zn188  1  0.55989628  0.31472804  0.06300662  1
  Zn  Zn189  1  0.56302613  0.31258946  0.56242241  1
  Zn  Zn190  1  0.56203098  0.81337259  0.06359475  1
  Zn  Zn191  1  0.56143275  0.81359437  0.56284812  1
  O  O192  1  0.11839988  0.11757938  0.11859561  1
  O  O193  1  0.11937554  0.11882064  0.61903497  1
  O  O194  1  0.11904876  0.61269911  0.12367567  1
  O  O195  1  0.12394910  0.61808433  0.61764955  1
  O  O196  1  0.62642099  0.11097391  0.12413386  1
  O  O197  1  0.61730707  0.12472178  0.61924747  1
  O  O198  1  0.62102228  0.62240431  0.12038396  1
  O  O199  1  0.62225207  0.61685229  0.62264519  1
  O  O200  1  0.38498316  0.38300498  0.37755877  1
  O  O201  1  0.38067722  0.38052918  0.87971787  1
  O  O202  1  0.38104191  0.87749558  0.38117392  1
  O  O203  1  0.38465369  0.87820545  0.87747496  1
  O  O204  1  0.88181851  0.38208814  0.37650894  1
  O  O205  1  0.88094657  0.38121616  0.88009781  1
  O  O206  1  0.87528459  0.88206590  0.38204158  1
  O  O207  1  0.88323166  0.87209314  0.88304249  1
  O  O208  1  0.24846026  -0.00009325  0.36230211  1
  O  O209  1  0.25011058  0.00529535  0.86755117  1
  O  O210  1  0.25671225  0.50666046  0.37586032  1
  O  O211  1  0.25482285  0.50589246  0.86771436  1
  O  O212  1  0.75506853  0.00592980  0.37030354  1
  O  O213  1  0.75295462  0.00175574  0.87275622  1
  O  O214  1  0.75476868  0.50569079  0.37139383  1
  O  O215  1  0.75566773  0.50480229  0.86921372  1
  O  O216  1  0.23674451  0.49674723  0.12551206  1
  O  O217  1  0.24340769  0.49823353  0.63127871  1
  O  O218  1  0.24262988  0.99224772  0.13060986  1
  O  O219  1  0.24395094  0.99513726  0.63028975  1
  O  O220  1  0.74468459  0.49604929  0.13148057  1
  O  O221  1  0.74588470  0.49526602  0.63022881  1
  O  O222  1  0.74260852  0.99416906  0.12917514  1
  O  O223  1  0.74698967  0.98998675  0.62823682  1
  O  O224  1  0.01029396  0.37364898  0.25636168  1
  O  O225  1  0.00605173  0.36976206  0.75623350  1
  O  O226  1  0.00647441  0.86730490  0.24983359  1
  O  O227  1  0.00693891  0.86811665  0.75456451  1
  O  O228  1  0.50995346  0.38052433  0.25994259  1
  O  O229  1  0.50554480  0.36959335  0.75426946  1
  O  O230  1  0.50668848  0.87501052  0.25717972  1
  O  O231  1  0.50776399  0.86991785  0.75496001  1
  O  O232  1  0.50036420  0.12935966  0.24613432  1
  O  O233  1  0.49560599  0.13081785  0.74588451  1
  O  O234  1  0.49344354  0.62804315  0.24366991  1
  O  O235  1  0.49394760  0.63206389  0.74973656  1
  O  O236  1  0.99325424  0.12348608  0.24348979  1
  O  O237  1  1.00226533  0.13251017  0.74228652  1
  O  O238  1  0.99836191  0.63092431  0.24228072  1
  O  O239  1  0.99285222  0.63126719  0.74928212  1
  O  O240  1  0.37510465  0.26339364  -0.00303517  1
  O  O241  1  0.36492902  0.24971203  0.50609784  1
  O  O242  1  0.36762168  0.75028483  0.00636660  1
  O  O243  1  0.36707332  0.75766675  0.49976411  1
  O  O244  1  0.86502046  0.25811988  0.00170272  1
  O  O245  1  0.86813549  0.25199430  0.50730213  1
  O  O246  1  0.86986313  0.75417702  0.00586927  1
  O  O247  1  0.87004279  0.75550600  0.50486299  1
  O  O248  1  0.13189964  0.24465633  0.49662796  1
  O  O249  1  0.12424511  0.24171545  0.99194233  1
  O  O250  1  0.12974670  0.74478224  0.49373916  1
  O  O251  1  0.13172255  0.74649447  0.99214026  1
  O  O252  1  0.63187905  0.24368329  0.49937485  1
  O  O253  1  0.63445113  0.25420110  0.99428061  1
  O  O254  1  0.63231558  0.75133152  0.49357731  1
  O  O255  1  0.63133330  0.74531224  0.99502349  1
  O  O256  1  0.49639744  0.25013263  0.12772053  1
  O  O257  1  0.49464329  0.24490418  0.63070850  1
  O  O258  1  0.49341727  0.74445147  0.12678721  1
  O  O259  1  0.49784339  0.74825695  0.63283937  1
  O  O260  1  0.99619433  0.23979737  0.12757873  1
  O  O261  1  0.99592386  0.24524569  0.62957924  1
  O  O262  1  0.99545607  0.74347453  0.12865333  1
  O  O263  1  0.99366627  0.74865212  0.63164196  1
  O  O264  1  0.00667741  0.25662901  0.37477274  1
  O  O265  1  0.00554821  0.25587905  0.87003388  1
  O  O266  1  0.00624152  0.75024192  0.36737390  1
  O  O267  1  0.00609683  0.75428666  0.86937092  1
  O  O268  1  0.50225558  0.26555696  0.37733144  1
  O  O269  1  0.50646020  0.25642089  0.86882524  1
  O  O270  1  0.50725614  0.75823063  0.37436432  1
  O  O271  1  0.50663996  0.75514350  0.86966088  1
  O  O272  1  0.24324112  0.13503592  0.50100788  1
  O  O273  1  0.24195502  0.12242610  0.99272360  1
  O  O274  1  0.24467615  0.63122005  0.49392897  1
  O  O275  1  0.24815051  0.63014769  0.99171805  1
  O  O276  1  0.74462197  0.12991315  0.49662666  1
  O  O277  1  0.74810835  0.14004162  1.00157972  1
  O  O278  1  0.74882235  0.63314868  0.49340119  1
  O  O279  1  0.74510196  0.63040753  0.99465396  1
  O  O280  1  0.26230404  0.37332248  -0.00220589  1
  O  O281  1  0.25009714  0.36148216  0.50238286  1
  O  O282  1  0.25024483  0.86746812  0.00617656  1
  O  O283  1  0.25372339  0.87091057  0.50397491  1
  O  O284  1  0.75439992  0.36978710  0.00601934  1
  O  O285  1  0.75057745  0.36902134  0.50675761  1
  O  O286  1  0.75507701  0.86764970  0.00585043  1
  O  O287  1  0.75543387  0.87013328  0.50595873  1
  O  O288  1  0.12394715  0.49089161  0.24081023  1
  O  O289  1  0.12995495  0.49488790  0.74530028  1
  O  O290  1  0.13027891  0.99250085  0.24342559  1
  O  O291  1  0.13017934  0.99345205  0.74366016  1
  O  O292  1  0.63083204  0.49334591  0.24628404  1
  O  O293  1  0.63123052  0.49510009  0.74497206  1
  O  O294  1  0.63108656  0.99461758  0.24271966  1
  O  O295  1  0.62359731  0.98564792  0.75046088  1
  O  O296  1  0.36007230  -0.00306035  0.24919566  1
  O  O297  1  0.36855380  0.00676843  0.75105155  1
  O  O298  1  0.37333903  0.50682100  0.25710993  1
  O  O299  1  0.36947294  0.50481818  0.75436514  1
  O  O300  1  0.86849872  0.00425644  0.25553766  1
  O  O301  1  0.87412174  0.00214128  0.75473468  1
  O  O302  1  0.86848510  0.50121530  0.25731790  1
  O  O303  1  0.86991126  0.50447386  0.75541235  1
  O  O304  1  0.11967116  0.37089083  0.36726275  1
  O  O305  1  0.11910128  0.36967854  0.87002239  1
  O  O306  1  0.12226101  0.86609647  0.36739690  1
  O  O307  1  0.12006608  0.86783274  0.86834701  1
  O  O308  1  0.61731609  0.37753371  0.36674188  1
  O  O309  1  0.61967647  0.37193803  0.86835625  1
  O  O310  1  0.62038015  0.87146409  0.37039465  1
  O  O311  1  0.62050264  0.86777940  0.86749712  1
  O  O312  1  0.37806998  0.12840189  0.13038127  1
  O  O313  1  0.38093785  0.13095520  0.63212456  1
  O  O314  1  0.37979104  0.62877948  0.12943117  1
  O  O315  1  0.37809503  0.62792973  0.63324849  1
  O  O316  1  0.88060026  0.12446710  0.13220289  1
  O  O317  1  0.88322244  0.13260049  0.62591419  1
  O  O318  1  0.88113239  0.63115115  0.12609933  1
  O  O319  1  0.87573220  0.63171591  0.63231630  1
  O  O320  1  0.25253676  0.25618371  0.11847910  1
  O  O321  1  0.25493719  0.24954366  0.61690141  1
  O  O322  1  0.25390669  0.75264971  0.11898465  1
  O  O323  1  0.24981969  0.75765224  0.61655212  1
  O  O324  1  0.74920933  0.25844089  0.11575014  1
  O  O325  1  0.75543134  0.25627936  0.62012846  1
  O  O326  1  0.75507695  0.75495304  0.12004124  1
  O  O327  1  0.75591727  0.75542905  0.61960798  1
  O  O328  1  0.24231188  0.24953765  0.38602909  1
  O  O329  1  0.24209003  0.24115002  0.87598785  1
  O  O330  1  0.24341822  0.74437825  0.37955794  1
  O  O331  1  0.24533916  0.74474962  0.87878927  1
  O  O332  1  0.74879151  0.24330251  0.38282312  1
  O  O333  1  0.74411945  0.25609089  0.88619162  1
  O  O334  1  0.74550076  0.74663180  0.38013822  1
  O  O335  1  0.74537926  0.74370135  0.88094786  1
  O  O336  1  0.00522993  0.11760617  0.00544808  1
  O  O337  1  0.00566713  0.11916628  0.50598576  1
  O  O338  1  0.00245327  0.61640502  0.00563532  1
  O  O339  1  0.00755954  0.61843183  0.50071059  1
  O  O340  1  0.50423556  0.11261299  0.00194985  1
  O  O341  1  0.50441480  0.12148585  0.50507673  1
  O  O342  1  0.50770979  0.62449825  0.00610144  1
  O  O343  1  0.50149132  0.61285231  0.49941270  1
  O  O344  1  0.50121413  0.38560019  0.49167405  1
  O  O345  1  0.49224996  0.37995040  0.99133825  1
  O  O346  1  0.49435114  0.88113583  0.49546465  1
  O  O347  1  0.50137840  0.88318058  0.99361788  1
  O  O348  1  1.00081066  0.38232640  0.49294570  1
  O  O349  1  0.99404720  0.37935582  0.99440149  1
  O  O350  1  0.99295942  0.88169229  0.49899055  1
  O  O351  1  0.99541841  0.87812747  0.99514080  1
  O  O352  1  0.49639023  0.49384370  0.38279214  1
  O  O353  1  0.49336385  0.49427948  0.87418495  1
  O  O354  1  0.49927711  0.99287626  0.38319016  1
  O  O355  1  0.50240077  0.99402935  0.88591504  1
  O  O356  1  0.99539099  0.49513130  0.38019228  1
  O  O357  1  0.99496985  0.49404915  0.87971140  1
  O  O358  1  0.99306625  0.99837857  0.38207056  1
  O  O359  1  1.00170053  0.99049140  0.88253447  1
  O  O360  1  0.00546093  0.00338770  0.11903923  1
  O  O361  1  0.00631193  0.00463035  0.61883803  1
  O  O362  1  0.00705703  0.50337329  0.11988825  1
  O  O363  1  0.00675795  0.50181603  0.61862862  1
  O  O364  1  0.51027230  -0.00415545  0.11711169  1
  O  O365  1  0.50198199  0.00776010  0.61871302  1
  O  O366  1  0.50845779  0.50918969  0.12350833  1
  O  O367  1  0.50566550  0.49866463  0.61552930  1
  O  O368  1  0.23544161  0.37845714  0.25051859  1
  O  O369  1  0.24319943  0.38140207  0.75072512  1
  O  O370  1  0.24267269  0.88034699  0.24313728  1
  O  O371  1  0.24465448  0.87976353  0.74432760  1
  O  O372  1  0.74201813  0.38158927  0.24730189  1
  O  O373  1  0.74480255  0.38102860  0.74459404  1
  O  O374  1  0.74518767  0.88172717  0.24446273  1
  O  O375  1  0.73957755  0.87163204  0.74522804  1
  O  O376  1  0.24431694  0.11053765  0.24899657  1
  O  O377  1  0.25442016  0.11904235  0.75523476  1
  O  O378  1  0.25611983  0.62195586  0.25709208  1
  O  O379  1  0.25576808  0.61933660  0.75477278  1
  O  O380  1  0.75417972  0.11931130  0.25602612  1
  O  O381  1  0.75297727  0.12231823  0.75289526  1
  O  O382  1  0.75117627  0.61871159  0.25698602  1
  O  O383  1  0.75532370  0.61987421  0.75625374  1
  O  O384  1  0.36876539  0.12009359  0.36894965  1
  O  O385  1  0.36886613  0.12262426  0.86892249  1
  O  O386  1  0.36983139  0.62095919  0.36937057  1
  O  O387  1  0.36947379  0.61969546  0.86858799  1
  O  O388  1  0.86901735  0.11847771  0.37067265  1
  O  O389  1  0.87094677  0.12260857  0.87266685  1
  O  O390  1  0.86764010  0.61852263  0.37275443  1
  O  O391  1  0.86944571  0.61923109  0.87013053  1
  O  O392  1  0.12134396  0.38267471  0.13297334  1
  O  O393  1  0.12650775  0.38162706  0.63307192  1
  O  O394  1  0.12990146  0.87840934  0.12943061  1
  O  O395  1  0.13052029  0.88057915  0.62960660  1
  O  O396  1  0.62954973  0.38350869  0.13420050  1
  O  O397  1  0.63100265  0.38076941  0.63110095  1
  O  O398  1  0.63126876  0.88280209  0.13046980  1
  O  O399  1  0.63047084  0.87454190  0.63544689  1
  O  O400  1  0.12357165  0.25871890  0.25575470  1
  O  O401  1  0.11958283  0.25511818  0.75545090  1
  O  O402  1  0.12015445  0.75333428  0.25357204  1
  O  O403  1  0.12089822  0.75482929  0.75442216  1
  O  O404  1  0.62593304  0.26596120  0.25254504  1
  O  O405  1  0.61936286  0.25769410  0.75459170  1
  O  O406  1  0.62455715  0.75877690  0.25714266  1
  O  O407  1  0.62013196  0.75771599  0.75588610  1
  O  O408  1  0.37794279  0.25133246  0.24777407  1
  O  O409  1  0.38079169  0.24386872  0.74619011  1
  O  O410  1  0.37509718  0.74298352  0.24269751  1
  O  O411  1  0.38155616  0.74366754  0.74906932  1
  O  O412  1  0.87629833  0.24109397  0.24796671  1
  O  O413  1  0.88373763  0.25093534  0.74269484  1
  O  O414  1  0.88132885  0.74935527  0.24250330  1
  O  O415  1  0.88030378  0.74477634  0.74524833  1
  O  O416  1  0.38448193  0.49892981  0.49497286  1
  O  O417  1  0.37649415  0.49254455  0.99067454  1
  O  O418  1  0.38107767  0.99402385  0.49928461  1
  O  O419  1  0.38808840  0.99624369  1.00025987  1
  O  O420  1  0.88230319  0.49845388  0.49360564  1
  O  O421  1  0.87933431  0.49476974  0.99390760  1
  O  O422  1  0.88006317  0.99513542  0.49584195  1
  O  O423  1  0.88214155  0.99109380  1.00068629  1
  O  O424  1  0.11882961  0.00334246  0.00550846  1
  O  O425  1  0.12039579  0.00435353  0.50498116  1
  O  O426  1  0.11849916  0.49732735  0.00888582  1
  O  O427  1  0.12069281  0.50502888  0.50454434  1
  O  O428  1  0.61788033  -0.00093903  0.00974874  1
  O  O429  1  0.61758192  0.00749403  0.50299604  1
  O  O430  1  0.62547717  0.50786115  0.00705006  1
  O  O431  1  0.61602559  0.50137533  0.50558861  1
  O  O432  1  0.37462664  0.38014500  0.11162891  1
  O  O433  1  0.37180445  0.36546004  0.62249547  1
  O  O434  1  0.36721831  0.86626538  0.12305286  1
  O  O435  1  0.36743811  0.87362833  0.61756665  1
  O  O436  1  0.86788813  0.37552059  0.11930976  1
  O  O437  1  0.86859353  0.36887766  0.62316464  1
  O  O438  1  0.86948580  0.86880274  0.11913457  1
  O  O439  1  0.86977427  0.86819894  0.61951825  1
  O  O440  1  0.12633867  0.13146140  0.38227994  1
  O  O441  1  0.12915069  0.12909838  0.87969082  1
  O  O442  1  0.13053272  0.62918773  0.37974219  1
  O  O443  1  0.13219495  0.63057213  0.87490985  1
  O  O444  1  0.63224284  0.12697653  0.38272558  1
  O  O445  1  0.62849527  0.13698606  0.87847458  1
  O  O446  1  0.63170759  0.63319521  0.37687451  1
  O  O447  1  0.63127948  0.62998181  0.87977838  1
