# generated using pymatgen
data_V3Zn3O8
_symmetry_space_group_name_H-M   'P 1'
_cell_length_a   17.08563284
_cell_length_b   17.08430441
_cell_length_c   17.08508732
_cell_angle_alpha   89.99379138
_cell_angle_beta   90.00426195
_cell_angle_gamma   90.00327716
_symmetry_Int_Tables_number   1
_chemical_formula_structural   V3Zn3O8
_chemical_formula_sum   'V96 Zn96 O256'
_cell_volume   4987.07120326
_cell_formula_units_Z   32
loop_
 _symmetry_equiv_pos_site_id
 _symmetry_equiv_pos_as_xyz
  1  'x, y, z'
loop_
 _atom_site_type_symbol
 _atom_site_label
 _atom_site_symmetry_multiplicity
 _atom_site_fract_x
 _atom_site_fract_y
 _atom_site_fract_z
 _atom_site_occupancy
  V  V0  1  0.37497386  0.00074297  0.87549829  1
  V  V1  1  0.24912726  0.75053216  0.49915830  1
  V  V2  1  0.00006698  0.62490349  0.62374904  1
  V  V3  1  0.62442672  0.24979424  0.87533586  1
  V  V4  1  0.12510261  0.49932993  0.12514056  1
  V  V5  1  0.87411855  0.37434921  0.50065632  1
  V  V6  1  0.75034913  0.12468784  0.37539974  1
  V  V7  1  0.87539280  0.37473045  -0.00079413  1
  V  V8  1  0.50062269  0.75024614  0.75023647  1
  V  V9  1  0.12627877  0.87499493  0.24921761  1
  V  V10  1  0.87534398  0.87515550  0.00033330  1
  V  V11  1  0.25028888  0.12643652  0.87477191  1
  V  V12  1  0.49943356  0.62571403  0.62495526  1
  V  V13  1  0.87560842  0.74982643  0.12508402  1
  V  V14  1  0.74966988  0.24935364  -0.00019730  1
  V  V15  1  0.74985865  0.87471268  0.12585582  1
  V  V16  1  0.50053047  0.87527814  0.37462370  1
  V  V17  1  0.37397670  0.37608791  0.50001149  1
  V  V18  1  0.87389488  0.12451989  0.75050143  1
  V  V19  1  0.50085838  0.12443456  0.62458234  1
  V  V20  1  0.12731726  0.62646371  -0.00295270  1
  V  V21  1  0.87506904  0.74953583  0.62465422  1
  V  V22  1  0.87525165  0.87478573  0.49954358  1
  V  V23  1  0.25048287  0.62667332  0.37448224  1
  V  V24  1  -0.00035282  0.25046829  0.75103099  1
  V  V25  1  0.74974937  0.87460303  0.62480837  1
  V  V26  1  0.62456066  0.49922769  0.62518178  1
  V  V27  1  -0.00020699  0.50134964  0.49999120  1
  V  V28  1  0.37561718  0.24839972  0.12724292  1
  V  V29  1  0.25058984  0.87636023  0.62531627  1
  V  V30  1  0.87453712  0.12435743  0.25121876  1
  V  V31  1  0.37548213  0.12540072  0.75012235  1
  V  V32  1  0.12464927  0.50129416  0.62439838  1
  V  V33  1  0.37566651  0.87379607  0.00040047  1
  V  V34  1  0.49922942  0.50067128  0.49945069  1
  V  V35  1  -0.00000498  0.62574404  0.12532672  1
  V  V36  1  0.50052468  0.62413309  0.12501436  1
  V  V37  1  0.87514503  0.00015950  0.87465982  1
  V  V38  1  0.62370468  0.25050685  0.37433039  1
  V  V39  1  0.62468206  0.62442905  0.49872410  1
  V  V40  1  0.25035680  -0.00018577  0.74999023  1
  V  V41  1  0.00011129  0.00006005  0.00056435  1
  V  V42  1  0.74959605  0.37489664  0.12509968  1
  V  V43  1  0.74999712  -0.00089625  0.75000637  1
  V  V44  1  0.50098312  0.00086121  0.00168313  1
  V  V45  1  0.00056531  0.12395730  0.12558106  1
  V  V46  1  0.00047617  0.75031094  0.24872331  1
  V  V47  1  0.74924790  0.74870529  0.49871317  1
  V  V48  1  0.00035723  0.87529611  0.37569925  1
  V  V49  1  0.37632207  0.87770068  0.49889581  1
  V  V50  1  0.37394736  0.25068759  0.62580719  1
  V  V51  1  -0.00053235  0.37568644  0.37527486  1
  V  V52  1  0.12492858  0.00009377  0.12471775  1
  V  V53  1  0.49947494  0.25007452  0.75057468  1
  V  V54  1  0.24891441  0.25094220  0.50106172  1
  V  V55  1  0.75000275  0.62544863  0.87533328  1
  V  V56  1  0.00012688  0.12447105  0.62527377  1
  V  V57  1  0.62458972  0.37526044  0.74946683  1
  V  V58  1  0.25158278  0.87505575  0.12475447  1
  V  V59  1  0.12386037  0.25160318  0.87441354  1
  V  V60  1  0.24874590  0.50003957  0.24998725  1
  V  V61  1  -0.00059990  0.49915787  -0.00036797  1
  V  V62  1  0.87491161  0.62438126  0.74942727  1
  V  V63  1  0.62543477  0.87474424  0.74995250  1
  V  V64  1  0.12413957  0.25017491  0.37585331  1
  V  V65  1  0.12383140  0.12517603  0.50186997  1
  V  V66  1  0.00128341  0.87398570  0.87415941  1
  V  V67  1  0.62483557  0.87365808  0.25014750  1
  V  V68  1  0.37528801  0.62616009  0.74982792  1
  V  V69  1  0.12516694  0.00071350  0.62654724  1
  V  V70  1  0.37419137  0.50067759  0.87378327  1
  V  V71  1  0.00113718  0.75093845  0.75058047  1
  V  V72  1  0.37617783  0.62445445  0.24844570  1
  V  V73  1  0.74933157  0.62395744  0.37450845  1
  V  V74  1  0.87535350  0.24941123  0.12444292  1
  V  V75  1  0.62464827  0.12418621  0.50153343  1
  V  V76  1  0.87430649  0.24989354  0.62534109  1
  V  V77  1  0.37456079  0.49995455  0.37464056  1
  V  V78  1  0.25130466  0.12318706  0.37356583  1
  V  V79  1  0.50014467  0.37330216  0.37406846  1
  V  V80  1  -0.00042178  0.24983368  0.25025386  1
  V  V81  1  0.75130801  -0.00057680  0.25084777  1
  V  V82  1  0.12436173  0.37622383  0.25003471  1
  V  V83  1  0.62480919  0.12459585  0.00152307  1
  V  V84  1  0.25016707  0.25167447  0.00112787  1
  V  V85  1  0.49864201  0.37574782  0.87472507  1
  V  V86  1  0.75028246  0.24996507  0.50051514  1
  V  V87  1  0.87460952  0.50003922  0.37482830  1
  V  V88  1  0.24868989  0.37675452  0.62548914  1
  V  V89  1  0.87511725  0.49915427  0.87501631  1
  V  V90  1  0.24988309  0.50185228  0.74925384  1
  V  V91  1  0.50076121  0.49945756  -0.00025904  1
  V  V92  1  0.75013222  0.74961674  -0.00046339  1
  V  V93  1  0.74901241  0.49970804  0.74965125  1
  V  V94  1  0.62636499  0.74966263  0.87464137  1
  V  V95  1  0.74921146  0.49845408  0.24855701  1
  Zn  Zn96  1  0.25022191  0.62749306  0.87354934  1
  Zn  Zn97  1  0.37441092  0.37524320  0.00128480  1
  Zn  Zn98  1  0.49961967  0.74934107  0.24841028  1
  Zn  Zn99  1  0.37555363  0.75129728  0.62674884  1
  Zn  Zn100  1  0.62407887  -0.00056035  0.62494295  1
  Zn  Zn101  1  0.74916509  0.37467557  0.62492261  1
  Zn  Zn102  1  0.12276128  0.37744383  0.74959406  1
  Zn  Zn103  1  0.50214672  -0.00003660  0.50152880  1
  Zn  Zn104  1  -0.00064624  0.37545471  0.87337777  1
  Zn  Zn105  1  0.75005105  0.12433450  0.87470916  1
  Zn  Zn106  1  0.62214827  0.37206373  0.24721315  1
  Zn  Zn107  1  0.87498362  0.62572363  0.24980758  1
  Zn  Zn108  1  0.25233033  0.00077630  0.25038976  1
  Zn  Zn109  1  0.25183941  0.74863717  -0.00311260  1
  Zn  Zn110  1  0.12594424  0.74937847  0.37285021  1
  Zn  Zn111  1  0.50095036  0.87402840  0.87480384  1
  Zn  Zn112  1  0.37557923  0.74920406  0.12480741  1
  Zn  Zn113  1  0.12407051  0.62676699  0.49778592  1
  Zn  Zn114  1  0.62498874  0.00076583  0.12583781  1
  Zn  Zn115  1  0.12677575  0.87348675  0.75139020  1
  Zn  Zn116  1  0.12443358  0.12510932  0.00119743  1
  Zn  Zn117  1  -0.00084426  -0.00034248  0.50096640  1
  Zn  Zn118  1  0.62442253  0.74791378  0.37395894  1
  Zn  Zn119  1  0.49959073  0.12515944  0.13071594  1
  Zn  Zn120  1  0.37616112  0.00176213  0.37231231  1
  Zn  Zn121  1  0.62640930  0.62490065  0.00120637  1
  Zn  Zn122  1  0.12820496  0.75168865  0.87322876  1
  Zn  Zn123  1  0.62550580  0.49776572  0.12390579  1
  Zn  Zn124  1  0.50030560  0.24806041  0.24996074  1
  Zn  Zn125  1  0.87588633  0.00117912  0.37770908  1
  Zn  Zn126  1  0.25045724  0.37479031  0.12608147  1
  Zn  Zn127  1  0.37869251  0.12324008  0.25162800  1
  Zn  Zn128  1  0.18687638  0.18767266  0.18843084  1
  Zn  Zn129  1  0.18706997  0.18773364  0.68905080  1
  Zn  Zn130  1  0.18811869  0.68889836  0.18504620  1
  Zn  Zn131  1  0.18693485  0.68830791  0.68585860  1
  Zn  Zn132  1  0.68705022  0.18774912  0.18849230  1
  Zn  Zn133  1  0.68804064  0.18677474  0.68726905  1
  Zn  Zn134  1  0.68621342  0.68616607  0.18678164  1
  Zn  Zn135  1  0.68668892  0.68725867  0.68670156  1
  Zn  Zn136  1  0.31194773  0.31167432  0.31156724  1
  Zn  Zn137  1  0.31163119  0.31570059  0.81232646  1
  Zn  Zn138  1  0.31544071  0.81078262  0.31075494  1
  Zn  Zn139  1  0.31206453  0.81122775  0.81446916  1
  Zn  Zn140  1  0.81141902  0.31221766  0.31287899  1
  Zn  Zn141  1  0.81087357  0.31271474  0.81323065  1
  Zn  Zn142  1  0.81370222  0.81098765  0.31327709  1
  Zn  Zn143  1  0.81373343  0.81278440  0.81222476  1
  Zn  Zn144  1  0.18638267  0.43920135  0.43765907  1
  Zn  Zn145  1  0.18785990  0.43773845  0.93619745  1
  Zn  Zn146  1  0.18531536  0.93882482  0.43854048  1
  Zn  Zn147  1  0.18664194  0.93777747  0.93757256  1
  Zn  Zn148  1  0.68666090  0.43614664  0.43664779  1
  Zn  Zn149  1  0.68712039  0.43662317  0.93686175  1
  Zn  Zn150  1  0.68750478  0.93902567  0.43736133  1
  Zn  Zn151  1  0.68835318  0.93644308  0.93583801  1
  Zn  Zn152  1  0.31205213  0.06389497  0.06283827  1
  Zn  Zn153  1  0.31247644  0.06255976  0.56158939  1
  Zn  Zn154  1  0.31285097  0.56058338  0.06270677  1
  Zn  Zn155  1  0.31250759  0.56475649  0.56331737  1
  Zn  Zn156  1  0.81182348  0.06163238  0.06376855  1
  Zn  Zn157  1  0.81236588  0.06061592  0.56284225  1
  Zn  Zn158  1  0.81374746  0.56340649  0.06256358  1
  Zn  Zn159  1  0.81175839  0.56171893  0.56247204  1
  Zn  Zn160  1  0.43571599  0.43406823  0.18729310  1
  Zn  Zn161  1  0.43690778  0.43853185  0.68741106  1
  Zn  Zn162  1  0.43639705  0.94176149  0.18939217  1
  Zn  Zn163  1  0.43868621  0.93766397  0.68686151  1
  Zn  Zn164  1  0.93663127  0.43783155  0.18680322  1
  Zn  Zn165  1  0.93769242  0.43595657  0.68725662  1
  Zn  Zn166  1  0.93733792  0.93770437  0.18889095  1
  Zn  Zn167  1  0.93798743  0.93723267  0.68766047  1
  Zn  Zn168  1  0.06441947  0.06031284  0.31218586  1
  Zn  Zn169  1  0.06297285  0.06301443  0.81274370  1
  Zn  Zn170  1  0.06359236  0.56509924  0.31325363  1
  Zn  Zn171  1  0.06200234  0.56278560  0.81188372  1
  Zn  Zn172  1  0.56248668  0.06214605  0.31342769  1
  Zn  Zn173  1  0.56288521  0.06143434  0.81353741  1
  Zn  Zn174  1  0.56362528  0.55929056  0.31166190  1
  Zn  Zn175  1  0.56255282  0.56406206  0.81301343  1
  Zn  Zn176  1  0.43797887  0.18857933  0.43932942  1
  Zn  Zn177  1  0.43747870  0.18767389  0.93951751  1
  Zn  Zn178  1  0.43699535  0.69012150  0.43592356  1
  Zn  Zn179  1  0.43880187  0.68696736  0.93579054  1
  Zn  Zn180  1  0.93730397  0.18740843  0.43848232  1
  Zn  Zn181  1  0.93778142  0.18594784  0.93752927  1
  Zn  Zn182  1  0.93601265  0.68795390  0.43581038  1
  Zn  Zn183  1  0.93893135  0.68730142  0.93700902  1
  Zn  Zn184  1  0.06253892  0.31327666  0.06221196  1
  Zn  Zn185  1  0.06165292  0.31374537  0.56366770  1
  Zn  Zn186  1  0.06339873  0.81218598  0.06181205  1
  Zn  Zn187  1  0.06394679  0.81367677  0.56394660  1
  Zn  Zn188  1  0.56170540  0.31303361  0.06356671  1
  Zn  Zn189  1  0.56210385  0.31198049  0.56179820  1
  Zn  Zn190  1  0.56347933  0.81090773  0.06278103  1
  Zn  Zn191  1  0.56380908  0.81086250  0.56323606  1
  O  O192  1  0.11794131  0.11895854  0.12481587  1
  O  O193  1  0.12012936  0.12134220  0.62103461  1
  O  O194  1  0.11973488  0.61892305  0.11702003  1
  O  O195  1  0.11755133  0.61908644  0.62070064  1
  O  O196  1  0.62376053  0.12380627  0.11196400  1
  O  O197  1  0.61797341  0.12579388  0.61927434  1
  O  O198  1  0.61425617  0.61980496  0.12273600  1
  O  O199  1  0.61920962  0.61849030  0.61903483  1
  O  O200  1  0.37855080  0.38024450  0.38135890  1
  O  O201  1  0.38204922  0.38222664  0.87573718  1
  O  O202  1  0.38329647  0.87510732  0.38250798  1
  O  O203  1  0.37628635  0.88259786  0.88555980  1
  O  O204  1  0.88072818  0.37964635  0.38059023  1
  O  O205  1  0.87520774  0.38122562  0.88194958  1
  O  O206  1  0.88485865  0.87502599  0.38020774  1
  O  O207  1  0.88066131  0.88047776  0.88126667  1
  O  O208  1  0.24859482  0.01257273  0.37589874  1
  O  O209  1  0.25541412  0.00675771  0.87072662  1
  O  O210  1  0.25546592  0.50614243  0.37040207  1
  O  O211  1  0.25643012  0.50150717  0.86755615  1
  O  O212  1  0.75270582  0.00700339  0.36836246  1
  O  O213  1  0.75813249  0.00025884  0.86849760  1
  O  O214  1  0.75507987  0.50326464  0.36762237  1
  O  O215  1  0.75518115  0.50532246  0.86951262  1
  O  O216  1  0.24323064  0.49753902  0.13212585  1
  O  O217  1  0.24487739  0.49596439  0.62873737  1
  O  O218  1  0.24422655  0.99022097  0.12394341  1
  O  O219  1  0.24550982  0.99656904  0.63056167  1
  O  O220  1  0.75150281  0.49450471  0.13286600  1
  O  O221  1  0.74263097  0.49886839  0.63171741  1
  O  O222  1  0.74867505  0.99211172  0.13199210  1
  O  O223  1  0.74927883  0.99193208  0.63274415  1
  O  O224  1  0.00394394  0.36976691  0.25585104  1
  O  O225  1  0.00211708  0.36632125  0.75276490  1
  O  O226  1  0.00513853  0.87020446  0.25677992  1
  O  O227  1  -0.00000255  0.86838900  0.75630109  1
  O  O228  1  0.50133313  0.37254284  0.25943359  1
  O  O229  1  0.50468965  0.36959842  0.75472225  1
  O  O230  1  0.50842200  0.87548477  0.25637495  1
  O  O231  1  0.50646272  0.86880391  0.75167097  1
  O  O232  1  0.49770516  0.12883844  0.24830580  1
  O  O233  1  0.49453623  0.13114442  0.74615808  1
  O  O234  1  0.49559832  0.62136955  0.24037224  1
  O  O235  1  0.49555654  0.63004277  0.74416507  1
  O  O236  1  0.99521776  0.13053773  0.24580376  1
  O  O237  1  0.99362708  0.13072714  0.74474903  1
  O  O238  1  0.99916122  0.63170706  0.24308663  1
  O  O239  1  0.99323694  0.62975474  0.74341231  1
  O  O240  1  0.36552101  0.25073739  0.00628820  1
  O  O241  1  0.36829616  0.25688486  0.50696613  1
  O  O242  1  0.37702883  0.76336160  0.00086239  1
  O  O243  1  0.36603264  0.76052433  0.50051938  1
  O  O244  1  0.86986272  0.25391981  0.00509749  1
  O  O245  1  0.87012439  0.25496160  0.50552136  1
  O  O246  1  0.87018401  0.75608070  0.00502583  1
  O  O247  1  0.86875662  0.75450694  0.50578305  1
  O  O248  1  0.12953996  0.24579765  0.49542556  1
  O  O249  1  0.13228597  0.24859056  0.99226880  1
  O  O250  1  0.13897519  0.75103255  0.49818080  1
  O  O251  1  0.12470461  0.73691950  0.99963436  1
  O  O252  1  0.63085119  0.24451166  0.49506200  1
  O  O253  1  0.62882070  0.24254916  0.99522180  1
  O  O254  1  0.63208339  0.74179212  0.49858817  1
  O  O255  1  0.63281835  0.74899973  0.99315621  1
  O  O256  1  0.48808478  0.24857849  0.12417545  1
  O  O257  1  0.49298017  0.24566082  0.63128348  1
  O  O258  1  0.49882861  0.73612157  0.12476224  1
  O  O259  1  0.49927895  0.74268188  0.63178750  1
  O  O260  1  0.99490708  0.24463990  0.13060969  1
  O  O261  1  0.99443509  0.24415430  0.63063065  1
  O  O262  1  0.99474340  0.74603443  0.12933085  1
  O  O263  1  0.99398056  0.74499494  0.62928806  1
  O  O264  1  0.00475491  0.25581240  0.36996458  1
  O  O265  1  0.00898573  0.24931311  0.87080275  1
  O  O266  1  0.00109465  0.75966929  0.36888170  1
  O  O267  1  -0.00003944  0.75637707  0.86812781  1
  O  O268  1  0.50581377  0.25709790  0.37683713  1
  O  O269  1  0.50425236  0.25535489  0.86995199  1
  O  O270  1  0.50265281  0.76223517  0.37175206  1
  O  O271  1  0.50824068  0.75100554  0.86837037  1
  O  O272  1  0.24364157  0.13191984  0.49455056  1
  O  O273  1  0.24828965  0.13588147  0.99328293  1
  O  O274  1  0.25249658  0.63598246  0.49422792  1
  O  O275  1  0.23896893  0.62426822  1.00028586  1
  O  O276  1  0.74585210  0.13090473  0.49541333  1
  O  O277  1  0.74118790  0.12983435  0.99890205  1
  O  O278  1  0.74429284  0.62826663  0.49447406  1
  O  O279  1  0.74980300  0.63155298  0.99347183  1
  O  O280  1  0.25077803  0.36234450  0.00085403  1
  O  O281  1  0.25475879  0.37067446  0.50501189  1
  O  O282  1  0.26012235  0.87757982  0.00771419  1
  O  O283  1  0.25761451  0.86932663  0.50291800  1
  O  O284  1  0.75546265  0.36927292  0.00500318  1
  O  O285  1  0.75664170  0.36835088  0.50084002  1
  O  O286  1  0.75589821  0.86974376  0.00568849  1
  O  O287  1  0.75483140  0.86845694  0.50439893  1
  O  O288  1  0.12892724  0.49562505  0.24506739  1
  O  O289  1  0.13090327  0.49993224  0.74258737  1
  O  O290  1  0.12784680  0.99232563  0.24206770  1
  O  O291  1  0.13332184  1.00036700  0.74430633  1
  O  O292  1  0.63900185  0.49529444  0.24897268  1
  O  O293  1  0.62898680  0.49502855  0.74518195  1
  O  O294  1  0.63156547  0.98893222  0.24872621  1
  O  O295  1  0.63179448  0.99315574  0.75017699  1
  O  O296  1  0.36923030  0.00521318  0.25488517  1
  O  O297  1  0.37038942  0.00625268  0.75564375  1
  O  O298  1  0.36851639  0.50426944  0.25584597  1
  O  O299  1  0.37052468  0.50626656  0.75413522  1
  O  O300  1  0.86922392  0.00697462  0.25193247  1
  O  O301  1  0.86995300  0.00488555  0.75517282  1
  O  O302  1  0.86519315  0.50064092  0.25572952  1
  O  O303  1  0.86944913  0.50511197  0.75443310  1
  O  O304  1  0.11844298  0.37018362  0.37059540  1
  O  O305  1  0.12347163  0.36247090  0.87311101  1
  O  O306  1  0.11643663  0.87353272  0.36907208  1
  O  O307  1  0.11650733  0.87369070  0.87297328  1
  O  O308  1  0.61737128  0.36805318  0.37569368  1
  O  O309  1  0.61843064  0.36946694  0.86900071  1
  O  O310  1  0.61826481  0.87355990  0.36682836  1
  O  O311  1  0.62475270  0.86721016  0.86803335  1
  O  O312  1  0.37516628  0.13644460  0.12550413  1
  O  O313  1  0.37915730  0.13164474  0.63018889  1
  O  O314  1  0.38463046  0.62364618  0.12963836  1
  O  O315  1  0.38283827  0.62671303  0.63132341  1
  O  O316  1  0.88026347  0.13042697  0.13102032  1
  O  O317  1  0.88028624  0.13051351  0.63068473  1
  O  O318  1  0.88259668  0.63232394  0.12542383  1
  O  O319  1  0.87970967  0.62980446  0.63001067  1
  O  O320  1  0.25460705  0.24996526  0.11604275  1
  O  O321  1  0.25460525  0.25576169  0.62073276  1
  O  O322  1  0.25239991  0.76323275  0.11943619  1
  O  O323  1  0.25277372  0.75684023  0.61526398  1
  O  O324  1  0.75656171  0.25437155  0.11935786  1
  O  O325  1  0.75675314  0.25146875  0.61867353  1
  O  O326  1  0.75537683  0.75477092  0.11966221  1
  O  O327  1  0.75600581  0.75392048  0.61907000  1
  O  O328  1  0.24326486  0.24406984  0.38191724  1
  O  O329  1  0.24373076  0.24652397  0.88093478  1
  O  O330  1  0.25064610  0.74572189  0.38336076  1
  O  O331  1  0.24606804  0.74559334  0.87973856  1
  O  O332  1  0.74505194  0.24435134  0.38108356  1
  O  O333  1  0.74223852  0.24836170  0.88230760  1
  O  O334  1  0.74927490  0.74206236  0.38118485  1
  O  O335  1  0.74701280  0.74467351  0.87995881  1
  O  O336  1  0.00008059  0.11795585  0.00816586  1
  O  O337  1  0.00630327  0.12484131  0.50716178  1
  O  O338  1  0.00707740  0.61887674  0.00553438  1
  O  O339  1  -0.00062481  0.61936826  0.50569554  1
  O  O340  1  0.50839086  0.11669945  0.00016028  1
  O  O341  1  0.50603773  0.12467127  0.50689857  1
  O  O342  1  0.49996364  0.61551509  0.00755147  1
  O  O343  1  0.50401120  0.61990872  0.50383407  1
  O  O344  1  0.49291620  0.38125196  0.49554828  1
  O  O345  1  0.49920307  0.38433462  0.99325684  1
  O  O346  1  0.49258897  0.87304206  0.49303872  1
  O  O347  1  0.49286014  0.88384835  1.00042017  1
  O  O348  1  0.99400560  0.38072973  0.49423587  1
  O  O349  1  0.99278763  0.38133075  0.99880747  1
  O  O350  1  0.99497642  0.87349916  0.49111879  1
  O  O351  1  0.99393843  0.88051836  0.99561465  1
  O  O352  1  0.49368345  0.49448061  0.38083992  1
  O  O353  1  0.49504839  0.49615462  0.88144575  1
  O  O354  1  0.49932977  0.98616012  0.37922208  1
  O  O355  1  0.49401497  0.99871218  0.88582392  1
  O  O356  1  0.99459660  0.49514526  0.37940601  1
  O  O357  1  0.99258843  0.49866379  0.88112164  1
  O  O358  1  0.99900401  0.98729833  0.37660747  1
  O  O359  1  0.99442092  0.99523653  0.88031906  1
  O  O360  1  0.00459892  0.00426138  0.12024571  1
  O  O361  1  0.00661267  0.00723945  0.62533720  1
  O  O362  1  0.00482228  0.50538715  0.11975827  1
  O  O363  1  0.00385048  0.50552405  0.61949497  1
  O  O364  1  0.50204840  0.00237959  0.11186649  1
  O  O365  1  0.50254561  0.00914753  0.62324029  1
  O  O366  1  0.49943142  0.50571305  0.11596520  1
  O  O367  1  0.50487646  0.50547170  0.61885526  1
  O  O368  1  0.24125423  0.38232476  0.25159062  1
  O  O369  1  0.24859957  0.38321032  0.74216865  1
  O  O370  1  0.24598720  0.87478608  0.23969784  1
  O  O371  1  0.25172320  0.88266073  0.74339375  1
  O  O372  1  0.75137931  0.38356534  0.24383547  1
  O  O373  1  0.74220098  0.38188075  0.74900380  1
  O  O374  1  0.74330741  0.87850475  0.24651534  1
  O  O375  1  0.74591727  0.87871636  0.74411881  1
  O  O376  1  0.24860392  0.12613895  0.26419003  1
  O  O377  1  0.25708865  0.12045035  0.75511785  1
  O  O378  1  0.25532862  0.61975687  0.25369594  1
  O  O379  1  0.25723321  0.61890232  0.74856771  1
  O  O380  1  0.75518650  0.11979144  0.25516955  1
  O  O381  1  0.75625105  0.11824241  0.75185177  1
  O  O382  1  0.75113038  0.61503428  0.25449045  1
  O  O383  1  0.75561785  0.61963400  0.75491795  1
  O  O384  1  0.36180796  0.12585525  0.37903290  1
  O  O385  1  0.37021278  0.12096148  0.86952753  1
  O  O386  1  0.37104834  0.61887343  0.36901326  1
  O  O387  1  0.37476195  0.61772869  0.86773274  1
  O  O388  1  0.86885509  0.12521855  0.36869913  1
  O  O389  1  0.87380932  0.11808893  0.86854767  1
  O  O390  1  0.86771530  0.61739639  0.37292415  1
  O  O391  1  0.86978433  0.61913367  0.86905846  1
  O  O392  1  0.12528626  0.38133606  0.13249173  1
  O  O393  1  0.13142509  0.38232335  0.62572858  1
  O  O394  1  0.13299397  0.88010657  0.12791722  1
  O  O395  1  0.13283370  0.88292122  0.62683792  1
  O  O396  1  0.63397437  0.37710580  0.12643087  1
  O  O397  1  0.62465304  0.38135748  0.63149946  1
  O  O398  1  0.63066813  0.87576894  0.13412533  1
  O  O399  1  0.63266710  0.87487620  0.63178728  1
  O  O400  1  0.11829219  0.25598804  0.25607948  1
  O  O401  1  0.11979480  0.25061980  0.75949069  1
  O  O402  1  0.11848453  0.75755053  0.24912449  1
  O  O403  1  0.11605884  0.75195798  0.75092529  1
  O  O404  1  0.62420851  0.25222226  0.25934678  1
  O  O405  1  0.61888045  0.25471310  0.75540560  1
  O  O406  1  0.62392106  0.76219215  0.25144155  1
  O  O407  1  0.62098181  0.75486477  0.75500869  1
  O  O408  1  0.37369214  0.24737245  0.23926433  1
  O  O409  1  0.37958865  0.24530864  0.74544587  1
  O  O410  1  0.37929113  0.74023322  0.24544536  1
  O  O411  1  0.38261846  0.74437951  0.74922301  1
  O  O412  1  0.88030572  0.24479288  0.24433687  1
  O  O413  1  0.87888996  0.24451279  0.74569481  1
  O  O414  1  0.88187011  0.74897078  0.24224464  1
  O  O415  1  0.87983024  0.74351621  0.74375830  1
  O  O416  1  0.37950388  0.49554696  0.49444280  1
  O  O417  1  0.38503059  0.49819643  0.99379448  1
  O  O418  1  0.37585511  0.98738877  0.49713099  1
  O  O419  1  0.38256798  0.99429731  0.99592366  1
  O  O420  1  0.87991673  0.49433408  0.49478044  1
  O  O421  1  0.87964531  0.49460194  0.99462800  1
  O  O422  1  0.87836550  0.99088278  0.49835483  1
  O  O423  1  0.87996567  0.99425099  0.99553609  1
  O  O424  1  0.11764220  0.00242120  0.00635421  1
  O  O425  1  0.12294443  0.00750187  0.50894853  1
  O  O426  1  0.11967652  0.50611349  0.00486912  1
  O  O427  1  0.11726610  0.50197134  0.50591796  1
  O  O428  1  0.61787654  0.00687323  -0.00115939  1
  O  O429  1  0.62420174  0.00878766  0.50366358  1
  O  O430  1  0.61243638  0.50201791  -0.00086375  1
  O  O431  1  0.61879747  0.50475314  0.50495095  1
  O  O432  1  0.37019209  0.36361501  0.12187019  1
  O  O433  1  0.36930809  0.37056493  0.61952776  1
  O  O434  1  0.36816671  0.87667702  0.11647545  1
  O  O435  1  0.37007752  0.87441377  0.61477836  1
  O  O436  1  0.87033587  0.36829357  0.11890152  1
  O  O437  1  0.87328175  0.36802791  0.61806363  1
  O  O438  1  0.86998261  0.86966569  0.11977074  1
  O  O439  1  0.86982017  0.86811668  0.61988034  1
  O  O440  1  0.13059772  0.13109209  0.38117799  1
  O  O441  1  0.13098585  0.13620524  0.87618258  1
  O  O442  1  0.13389924  0.62890635  0.37812653  1
  O  O443  1  0.12502268  0.62454557  0.88696750  1
  O  O444  1  0.63151120  0.13051758  0.38184376  1
  O  O445  1  0.62563129  0.13102069  0.88560722  1
  O  O446  1  0.63071146  0.62461971  0.38107793  1
  O  O447  1  0.63297091  0.63172095  0.87580948  1
