# generated using pymatgen
data_V3Zn3O8
_symmetry_space_group_name_H-M   'P 1'
_cell_length_a   17.08581427
_cell_length_b   17.08784693
_cell_length_c   17.08695122
_cell_angle_alpha   89.99091197
_cell_angle_beta   89.99305004
_cell_angle_gamma   90.00591125
_symmetry_Int_Tables_number   1
_chemical_formula_structural   V3Zn3O8
_chemical_formula_sum   'V96 Zn96 O256'
_cell_volume   4988.70237261
_cell_formula_units_Z   32
loop_
 _symmetry_equiv_pos_site_id
 _symmetry_equiv_pos_as_xyz
  1  'x, y, z'
loop_
 _atom_site_type_symbol
 _atom_site_label
 _atom_site_symmetry_multiplicity
 _atom_site_fract_x
 _atom_site_fract_y
 _atom_site_fract_z
 _atom_site_occupancy
  V  V0  1  0.62683238  0.37546944  0.75029144  1
  V  V1  1  0.25017897  0.12534422  0.87376412  1
  V  V2  1  0.24957535  0.74904497  0.49882936  1
  V  V3  1  0.87490437  0.24979891  0.12547876  1
  V  V4  1  0.12506768  0.87370728  0.25099203  1
  V  V5  1  0.50090270  0.25013226  0.74971363  1
  V  V6  1  0.12545366  0.12468987  -0.00028095  1
  V  V7  1  0.75046668  -0.00022185  0.25002879  1
  V  V8  1  0.62435059  0.74928089  0.87614912  1
  V  V9  1  0.24976323  -0.00032023  0.74894423  1
  V  V10  1  0.87566182  0.49976521  0.87549510  1
  V  V11  1  0.25131485  0.50010363  0.24808368  1
  V  V12  1  0.75003843  0.00042566  0.75046594  1
  V  V13  1  -0.00154506  0.12587047  0.62618367  1
  V  V14  1  0.74867164  0.74981661  0.49989722  1
  V  V15  1  0.87464589  0.62445050  0.25096165  1
  V  V16  1  0.87550284  0.87479664  0.00048921  1
  V  V17  1  0.00063600  0.87439612  0.87504350  1
  V  V18  1  0.62458574  0.87472711  0.25004093  1
  V  V19  1  0.00051524  -0.00046442  0.00052499  1
  V  V20  1  0.49989572  0.12514533  0.62464088  1
  V  V21  1  0.62568653  0.12483487  0.49979155  1
  V  V22  1  0.75055612  0.87515358  0.12490391  1
  V  V23  1  0.74989382  0.62553304  0.37556614  1
  V  V24  1  0.37508994  0.87698873  0.00047866  1
  V  V25  1  0.62546365  0.24950554  0.87519013  1
  V  V26  1  0.74960195  0.87547848  0.62499773  1
  V  V27  1  0.12579942  0.37470847  0.24854413  1
  V  V28  1  0.12520215  0.24941072  0.37490954  1
  V  V29  1  0.12603205  0.12562979  0.49869387  1
  V  V30  1  0.00111550  0.62397669  0.12443201  1
  V  V31  1  0.25078761  0.00067106  0.25135844  1
  V  V32  1  0.75046393  0.12427622  0.87485707  1
  V  V33  1  0.62484315  0.75045379  0.37501195  1
  V  V34  1  0.12286531  0.50030515  0.62389603  1
  V  V35  1  0.12520203  0.25002002  0.87414005  1
  V  V36  1  0.12623845  0.74969166  0.87520082  1
  V  V37  1  0.37471077  0.62528685  0.24960722  1
  V  V38  1  0.75015766  0.25005203  0.00104625  1
  V  V39  1  0.87439645  0.00014660  0.87521261  1
  V  V40  1  0.62497930  0.25021308  0.37469921  1
  V  V41  1  0.37418610  0.87478323  0.50024807  1
  V  V42  1  0.00007227  0.12530268  0.12585889  1
  V  V43  1  0.62504221  0.12435837  0.00010237  1
  V  V44  1  0.12478293  -0.00020498  0.62558824  1
  V  V45  1  -0.00011891  0.24923052  0.74975129  1
  V  V46  1  0.12503006  0.37586311  0.74879598  1
  V  V47  1  0.49883327  -0.00008162  0.49949717  1
  V  V48  1  0.75059109  0.12375768  0.37439930  1
  V  V49  1  0.87397077  -0.00162103  0.37486534  1
  V  V50  1  0.50055920  0.62430513  0.62457704  1
  V  V51  1  0.37561429  0.00028685  0.87457113  1
  V  V52  1  0.74953444  0.37424756  0.12550420  1
  V  V53  1  0.62478164  -0.00020437  0.62449165  1
  V  V54  1  0.37458520  0.74965327  0.62435730  1
  V  V55  1  0.12536601  -0.00043146  0.12557226  1
  V  V56  1  0.37512209  0.12556454  0.74907401  1
  V  V57  1  0.62419714  0.37419549  0.25063441  1
  V  V58  1  0.75393107  0.25223880  0.50144396  1
  V  V59  1  0.25069510  0.87570522  0.12492909  1
  V  V60  1  0.25059586  0.24992573  -0.00082685  1
  V  V61  1  0.12484358  0.87504641  0.75021137  1
  V  V62  1  0.49950513  -0.00006287  -0.00062283  1
  V  V63  1  0.87413133  0.75051913  0.62781010  1
  V  V64  1  0.37611696  0.24887757  0.12550427  1
  V  V65  1  0.75022865  0.50037257  0.25159434  1
  V  V66  1  0.24936489  0.50050462  0.75023963  1
  V  V67  1  0.74974405  0.49855522  0.75021810  1
  V  V68  1  0.25046566  0.37409666  0.12422083  1
  V  V69  1  -0.00323470  0.37733061  0.37624939  1
  V  V70  1  0.62508438  0.00007580  0.12471364  1
  V  V71  1  0.49958043  0.37491193  0.87502738  1
  V  V72  1  0.37471282  0.49948486  0.87424409  1
  V  V73  1  0.00085974  0.87298163  0.37507290  1
  V  V74  1  0.49938388  0.74983821  0.74961412  1
  V  V75  1  0.00049695  0.49919905  0.00039891  1
  V  V76  1  0.87542450  0.74941746  0.12534363  1
  V  V77  1  0.50091123  0.37486283  0.37496872  1
  V  V78  1  0.87513373  0.62672127  0.75139421  1
  V  V79  1  0.37561763  0.37539987  -0.00140609  1
  V  V80  1  0.37422204  0.62452131  0.75121484  1
  V  V81  1  0.50206219  0.62481162  0.12334262  1
  V  V82  1  0.74894968  0.74959182  -0.00004433  1
  V  V83  1  0.50217391  0.50130515  0.50100790  1
  V  V84  1  0.12419915  0.62462958  0.49890186  1
  V  V85  1  0.50059662  0.75054708  0.25033954  1
  V  V86  1  0.37408014  0.37512178  0.50005051  1
  V  V87  1  0.00020642  0.37481290  0.87562721  1
  V  V88  1  0.37439502  0.25155769  0.62416810  1
  V  V89  1  0.62352873  0.87420439  0.74934171  1
  V  V90  1  0.87483880  0.87501949  0.50068175  1
  V  V91  1  0.49906249  0.12597542  0.12611378  1
  V  V92  1  0.25083163  0.75088503  -0.00032018  1
  V  V93  1  0.62464177  0.50014322  0.12494408  1
  V  V94  1  0.37351553  0.00170537  0.37515784  1
  V  V95  1  -0.00011016  0.24915708  0.24894402  1
  Zn  Zn96  1  0.24978784  0.62482242  0.87727198  1
  Zn  Zn97  1  0.37559928  0.75247337  0.12485484  1
  Zn  Zn98  1  0.62649783  0.50020814  0.62664518  1
  Zn  Zn99  1  0.37517730  0.50019558  0.37474496  1
  Zn  Zn100  1  0.74885743  0.62312923  0.87880775  1
  Zn  Zn101  1  -0.00296404  0.50191620  0.49905311  1
  Zn  Zn102  1  0.24949328  0.12739972  0.37338668  1
  Zn  Zn103  1  0.87405926  0.37457194  0.00052051  1
  Zn  Zn104  1  0.25005924  0.25149393  0.49840742  1
  Zn  Zn105  1  0.49859051  0.87508512  0.87460247  1
  Zn  Zn106  1  0.50132361  0.50059491  -0.00184404  1
  Zn  Zn107  1  0.12529902  0.74853539  0.37349035  1
  Zn  Zn108  1  0.37467033  0.12772733  0.25162318  1
  Zn  Zn109  1  -0.00023017  -0.00116234  0.50103879  1
  Zn  Zn110  1  0.49872356  0.24934999  0.25071530  1
  Zn  Zn111  1  0.75259933  0.37483597  0.62541195  1
  Zn  Zn112  1  0.12583345  0.49993303  0.12276659  1
  Zn  Zn113  1  0.87428365  0.50163992  0.37880665  1
  Zn  Zn114  1  0.87466809  0.12590781  0.75027981  1
  Zn  Zn115  1  0.62563494  0.62581570  0.50179593  1
  Zn  Zn116  1  -0.00176723  0.62690856  0.62422154  1
  Zn  Zn117  1  0.00128504  0.74951994  0.75000800  1
  Zn  Zn118  1  0.87444659  0.25250583  0.62751210  1
  Zn  Zn119  1  0.62583822  0.62356902  0.00001423  1
  Zn  Zn120  1  0.24844675  0.37448160  0.62283311  1
  Zn  Zn121  1  0.87514728  0.38029795  0.50434076  1
  Zn  Zn122  1  0.24819791  0.87436572  0.62533003  1
  Zn  Zn123  1  0.12831610  0.62434854  -0.00109937  1
  Zn  Zn124  1  0.00252898  0.74738953  0.25018083  1
  Zn  Zn125  1  0.49947886  0.87532141  0.37396137  1
  Zn  Zn126  1  0.24833698  0.62529225  0.37098473  1
  Zn  Zn127  1  0.87546737  0.12364033  0.24999631  1
  Zn  Zn128  1  0.18876278  0.18683384  0.18852869  1
  Zn  Zn129  1  0.18825535  0.18936701  0.68502596  1
  Zn  Zn130  1  0.18616733  0.68955386  0.18414405  1
  Zn  Zn131  1  0.18790048  0.68656189  0.68774524  1
  Zn  Zn132  1  0.68700339  0.18698050  0.18863116  1
  Zn  Zn133  1  0.68801080  0.18703752  0.68697636  1
  Zn  Zn134  1  0.68815667  0.68758448  0.18863731  1
  Zn  Zn135  1  0.68734795  0.68557927  0.68791573  1
  Zn  Zn136  1  0.31304480  0.31185041  0.31313945  1
  Zn  Zn137  1  0.31169649  0.31423358  0.81039498  1
  Zn  Zn138  1  0.31283613  0.81306176  0.31323894  1
  Zn  Zn139  1  0.31181368  0.81393336  0.81312851  1
  Zn  Zn140  1  0.81334967  0.31157744  0.31201447  1
  Zn  Zn141  1  0.81505168  0.31189511  0.81335570  1
  Zn  Zn142  1  0.81340910  0.81053276  0.31166575  1
  Zn  Zn143  1  0.81027109  0.81319600  0.81405016  1
  Zn  Zn144  1  0.18751128  0.43861509  0.43389617  1
  Zn  Zn145  1  0.18716655  0.43802291  0.93672961  1
  Zn  Zn146  1  0.18714760  0.93742204  0.43882828  1
  Zn  Zn147  1  0.18822129  0.93711652  0.93677327  1
  Zn  Zn148  1  0.68719485  0.43750815  0.43712950  1
  Zn  Zn149  1  0.68671851  0.43748358  0.93869534  1
  Zn  Zn150  1  0.68705114  0.93605039  0.43654925  1
  Zn  Zn151  1  0.68677886  0.93596326  0.93695264  1
  Zn  Zn152  1  0.31286415  0.06270533  0.06330443  1
  Zn  Zn153  1  0.31062253  0.06314412  0.56287428  1
  Zn  Zn154  1  0.31438660  0.56307807  0.06112459  1
  Zn  Zn155  1  0.31126208  0.56288073  0.56405926  1
  Zn  Zn156  1  0.81334282  0.06344245  0.06267890  1
  Zn  Zn157  1  0.81381111  0.06265533  0.56150590  1
  Zn  Zn158  1  0.81214119  0.56254339  0.06287691  1
  Zn  Zn159  1  0.81332018  0.56308270  0.56314019  1
  Zn  Zn160  1  0.43831899  0.43696871  0.18602824  1
  Zn  Zn161  1  0.43809099  0.43786969  0.68724405  1
  Zn  Zn162  1  0.43739112  0.93896755  0.18790969  1
  Zn  Zn163  1  0.43636067  0.93607353  0.68630745  1
  Zn  Zn164  1  0.93520137  0.43709255  0.18900937  1
  Zn  Zn165  1  0.93680990  0.43652000  0.68603486  1
  Zn  Zn166  1  0.93845883  0.93646983  0.18929394  1
  Zn  Zn167  1  0.93814306  0.93819593  0.68915410  1
  Zn  Zn168  1  0.06162312  0.06046915  0.31281514  1
  Zn  Zn169  1  0.06272643  0.06149639  0.81238990  1
  Zn  Zn170  1  0.06429081  0.56089712  0.31131932  1
  Zn  Zn171  1  0.06279822  0.56448320  0.81355050  1
  Zn  Zn172  1  0.56129926  0.06331298  0.31185787  1
  Zn  Zn173  1  0.56261858  0.06228367  0.81258066  1
  Zn  Zn174  1  0.56354261  0.56231184  0.31349751  1
  Zn  Zn175  1  0.56159305  0.56331896  0.81283640  1
  Zn  Zn176  1  0.43829101  0.18798126  0.43772319  1
  Zn  Zn177  1  0.43765774  0.18738525  0.93805346  1
  Zn  Zn178  1  0.43738782  0.68651860  0.43540882  1
  Zn  Zn179  1  0.43614587  0.68855337  0.93750550  1
  Zn  Zn180  1  0.93770455  0.18697464  0.43610076  1
  Zn  Zn181  1  0.93673728  0.18737813  0.93833817  1
  Zn  Zn182  1  0.93664075  0.68829923  0.43891485  1
  Zn  Zn183  1  0.93791484  0.68747007  0.93710796  1
  Zn  Zn184  1  0.06310242  0.31284212  0.06244299  1
  Zn  Zn185  1  0.06159468  0.31229224  0.56101551  1
  Zn  Zn186  1  0.06411094  0.81153660  0.06215138  1
  Zn  Zn187  1  0.06074517  0.81097373  0.56453197  1
  Zn  Zn188  1  0.56167200  0.31249040  0.06248150  1
  Zn  Zn189  1  0.56562407  0.31390296  0.56441794  1
  Zn  Zn190  1  0.56126196  0.81329863  0.06262899  1
  Zn  Zn191  1  0.56110567  0.81264554  0.56114448  1
  O  O192  1  0.12017133  0.11940167  0.11873864  1
  O  O193  1  0.11719735  0.12111245  0.61841194  1
  O  O194  1  0.11234257  0.62273184  0.12197700  1
  O  O195  1  0.12427169  0.61709441  0.61688530  1
  O  O196  1  0.62054251  0.11923596  0.11883375  1
  O  O197  1  0.61905561  0.11891444  0.61982950  1
  O  O198  1  0.61557564  0.61995065  0.12720814  1
  O  O199  1  0.61621186  0.62238868  0.62295951  1
  O  O200  1  0.38156708  0.37627829  0.38482686  1
  O  O201  1  0.38038565  0.37900408  0.87890222  1
  O  O202  1  0.37637288  0.88551146  0.38129579  1
  O  O203  1  0.37650292  0.88335597  0.88121867  1
  O  O204  1  0.88692693  0.37613588  0.37426152  1
  O  O205  1  0.88336204  0.38147749  0.87760284  1
  O  O206  1  0.88145962  0.87812762  0.38016183  1
  O  O207  1  0.87951725  0.88044630  0.88147065  1
  O  O208  1  0.25871382  0.00045094  0.37086322  1
  O  O209  1  0.25523279  0.00678796  0.86918056  1
  O  O210  1  0.25287177  0.50204455  0.35979144  1
  O  O211  1  0.25647183  0.50071747  0.86838637  1
  O  O212  1  0.75438289  0.00372636  0.36979478  1
  O  O213  1  0.75417972  0.00435048  0.87063507  1
  O  O214  1  0.74937277  0.50734281  0.36847359  1
  O  O215  1  0.75594151  0.50072334  0.86694579  1
  O  O216  1  0.25044956  0.49349443  0.13280119  1
  O  O217  1  0.23871190  0.49864934  0.63071256  1
  O  O218  1  0.24413124  0.99490219  0.12973427  1
  O  O219  1  0.24287323  0.99925770  0.63201749  1
  O  O220  1  0.74468168  0.49447154  0.13130815  1
  O  O221  1  0.74885978  0.49935029  0.63980344  1
  O  O222  1  0.74479929  0.99462451  0.12902592  1
  O  O223  1  0.74424461  0.99528743  0.62965835  1
  O  O224  1  0.00591544  0.36945224  0.25567992  1
  O  O225  1  0.00648934  0.36994147  0.75622645  1
  O  O226  1  0.00567564  0.87312732  0.25890943  1
  O  O227  1  0.00644685  0.87498062  0.75829578  1
  O  O228  1  0.50659342  0.37462992  0.25671291  1
  O  O229  1  0.50534211  0.36877382  0.75549503  1
  O  O230  1  0.50680397  0.86899037  0.24956621  1
  O  O231  1  0.50574816  0.86778909  0.75011351  1
  O  O232  1  0.49777705  0.12761002  0.24140446  1
  O  O233  1  0.49507748  0.13037952  0.74439351  1
  O  O234  1  0.49359664  0.62863422  0.24253132  1
  O  O235  1  0.49394376  0.63050829  0.74441317  1
  O  O236  1  1.00014957  0.13059707  0.24315270  1
  O  O237  1  1.00180090  0.12975998  0.74095739  1
  O  O238  1  0.99518425  0.62413402  0.23980738  1
  O  O239  1  0.98587079  0.62564957  0.74925083  1
  O  O240  1  0.36873112  0.25525301  0.00377223  1
  O  O241  1  0.37632783  0.26023698  0.50491856  1
  O  O242  1  0.36887480  0.75860633  0.00181816  1
  O  O243  1  0.36805194  0.75305837  0.50371492  1
  O  O244  1  0.86810601  0.25111492  0.00670058  1
  O  O245  1  0.86251298  0.24925378  0.49927703  1
  O  O246  1  0.86958130  0.75611625  0.00492501  1
  O  O247  1  0.86785481  0.75592695  0.50722309  1
  O  O248  1  0.12506446  0.24101891  0.49401017  1
  O  O249  1  0.13081946  0.24453867  0.99385111  1
  O  O250  1  0.13373169  0.74115435  0.50198170  1
  O  O251  1  0.13330019  0.75040386  0.99290034  1
  O  O252  1  0.63298937  0.24438910  0.49501506  1
  O  O253  1  0.63029088  0.24365166  0.99472981  1
  O  O254  1  0.63111012  0.75047935  0.49338276  1
  O  O255  1  0.62966244  0.75159362  0.99100729  1
  O  O256  1  0.49378217  0.24362826  0.12486272  1
  O  O257  1  0.49587182  0.24402160  0.63042145  1
  O  O258  1  0.49984515  0.74076819  0.13144609  1
  O  O259  1  0.49405765  0.74442213  0.62957702  1
  O  O260  1  0.99565706  0.24488578  0.12907113  1
  O  O261  1  1.00191615  0.23984180  0.63097736  1
  O  O262  1  0.99427302  0.73962518  0.12378841  1
  O  O263  1  0.98986238  0.74803230  0.63010306  1
  O  O264  1  0.00506779  0.25703525  0.36841350  1
  O  O265  1  0.00656573  0.25406190  0.87105910  1
  O  O266  1  0.00077487  0.76248305  0.37391983  1
  O  O267  1  0.00722609  0.75739938  0.87451742  1
  O  O268  1  0.50790485  0.25638799  0.37536347  1
  O  O269  1  0.50573090  0.25385435  0.86910654  1
  O  O270  1  0.50605148  0.75178346  0.36780539  1
  O  O271  1  0.50810391  0.75184515  0.86887104  1
  O  O272  1  0.23603680  0.12692990  0.49947009  1
  O  O273  1  0.24469354  0.12997983  0.99366288  1
  O  O274  1  0.24272023  0.63195895  0.49811112  1
  O  O275  1  0.24930379  0.63422488  0.99932521  1
  O  O276  1  0.74446524  0.13094677  0.49445046  1
  O  O277  1  0.74378373  0.12947240  0.99507248  1
  O  O278  1  0.74824996  0.63265980  0.49449077  1
  O  O279  1  0.74701316  0.63355392  0.99917712  1
  O  O280  1  0.25503512  0.36900414  0.00376861  1
  O  O281  1  0.26268546  0.37616618  0.49944629  1
  O  O282  1  0.25559261  0.87182466  0.00564416  1
  O  O283  1  0.25429312  0.86487202  0.50194243  1
  O  O284  1  0.75030067  0.36752748  0.00720418  1
  O  O285  1  0.75019366  0.36351176  0.50028993  1
  O  O286  1  0.75577170  0.87031139  0.00582000  1
  O  O287  1  0.75501462  0.87002771  0.50577645  1
  O  O288  1  0.13601262  0.49439745  0.24599739  1
  O  O289  1  0.12842312  0.49640271  0.74258050  1
  O  O290  1  0.13039213  0.99375410  0.24445324  1
  O  O291  1  0.13092330  0.99502672  0.74610339  1
  O  O292  1  0.63082764  0.49393093  0.24491670  1
  O  O293  1  0.63480819  0.49495829  0.75332284  1
  O  O294  1  0.63057091  0.99468853  0.24409520  1
  O  O295  1  0.62951816  0.99458784  0.74408324  1
  O  O296  1  0.36968857  0.00034893  0.26030927  1
  O  O297  1  0.37028267  0.00639959  0.75393754  1
  O  O298  1  0.36742626  0.50727940  0.24873871  1
  O  O299  1  0.36962549  0.50422146  0.75434539  1
  O  O300  1  0.86760528  -0.00006855  0.25599318  1
  O  O301  1  0.86760153  0.00114817  0.75774181  1
  O  O302  1  0.86715041  0.50706597  0.25200551  1
  O  O303  1  0.86840128  0.50679953  0.75525579  1
  O  O304  1  0.11745106  0.36972565  0.36818904  1
  O  O305  1  0.11954927  0.36909174  0.86922458  1
  O  O306  1  0.11568001  0.87499803  0.37100557  1
  O  O307  1  0.11993633  0.87040217  0.87015532  1
  O  O308  1  0.61987661  0.36969136  0.36994767  1
  O  O309  1  0.61958095  0.36805042  0.87040609  1
  O  O310  1  0.62305857  0.86931479  0.36746679  1
  O  O311  1  0.62283923  0.86575995  0.86822018  1
  O  O312  1  0.38136825  0.13107877  0.12490612  1
  O  O313  1  0.38071319  0.13026894  0.62958439  1
  O  O314  1  0.38497144  0.62570995  0.13445441  1
  O  O315  1  0.38051301  0.63028764  0.63116384  1
  O  O316  1  0.88244472  0.13076436  0.12621123  1
  O  O317  1  0.88790573  0.12581901  0.62562571  1
  O  O318  1  0.88315839  0.62934091  0.13006728  1
  O  O319  1  0.87396753  0.63166426  0.63612220  1
  O  O320  1  0.25516453  0.25450325  0.11806412  1
  O  O321  1  0.25848611  0.25391101  0.62100805  1
  O  O322  1  0.25201827  0.75847779  0.11731347  1
  O  O323  1  0.25616053  0.74933576  0.61412227  1
  O  O324  1  0.75429640  0.25410561  0.12038782  1
  O  O325  1  0.75070175  0.24897416  0.61353702  1
  O  O326  1  0.75531966  0.75621270  0.12040213  1
  O  O327  1  0.75398331  0.75672538  0.62077842  1
  O  O328  1  0.24110021  0.24756405  0.37714718  1
  O  O329  1  0.24503890  0.24471172  0.87912812  1
  O  O330  1  0.24890100  0.74804609  0.38722114  1
  O  O331  1  0.24393604  0.75036109  0.88275509  1
  O  O332  1  0.74471002  0.24401424  0.38169623  1
  O  O333  1  0.74462393  0.24435104  0.88064692  1
  O  O334  1  0.74492514  0.74558019  0.38036237  1
  O  O335  1  0.73945941  0.74985242  0.88097837  1
  O  O336  1  0.00655570  0.11939962  0.00520228  1
  O  O337  1  0.00915379  0.12445588  0.50855988  1
  O  O338  1  -0.00140667  0.61563408  0.00834189  1
  O  O339  1  0.01201977  0.62523655  0.50195610  1
  O  O340  1  0.50617775  0.11960528  0.00490948  1
  O  O341  1  0.50583188  0.11982270  0.50594373  1
  O  O342  1  0.50031506  0.62532501  0.01308170  1
  O  O343  1  0.49855376  0.61555913  0.50449167  1
  O  O344  1  0.49360612  0.38251964  0.49668109  1
  O  O345  1  0.49328135  0.37513661  0.99254744  1
  O  O346  1  0.49255412  0.88248183  0.49828086  1
  O  O347  1  0.49367956  0.88286191  0.99918690  1
  O  O348  1  0.99988950  0.37545907  0.48680369  1
  O  O349  1  0.99948546  0.38365481  0.99519575  1
  O  O350  1  0.99399317  0.87542830  0.49175135  1
  O  O351  1  0.99493343  0.88072234  0.99580599  1
  O  O352  1  0.49914142  0.49472175  0.38484007  1
  O  O353  1  0.49338966  0.49252404  0.87485811  1
  O  O354  1  0.49067879  0.99968234  0.38114196  1
  O  O355  1  0.49359121  0.99975431  0.88112643  1
  O  O356  1  1.00016501  0.48805583  0.37415894  1
  O  O357  1  0.99617378  0.49517849  0.88263939  1
  O  O358  1  0.99394212  0.98790764  0.37589023  1
  O  O359  1  0.99549391  0.99481557  0.88164470  1
  O  O360  1  0.00586239  0.00426109  0.11970865  1
  O  O361  1  0.00558259  0.00986464  0.62495177  1
  O  O362  1  -0.00121174  0.50680980  0.11704561  1
  O  O363  1  0.01302628  0.50245975  0.62352037  1
  O  O364  1  0.50611246  0.00565539  0.11903966  1
  O  O365  1  0.50490478  0.00587769  0.61984080  1
  O  O366  1  0.50593371  0.50948832  0.12476273  1
  O  O367  1  0.50056002  0.50568976  0.61652579  1
  O  O368  1  0.24687317  0.38235333  0.24405106  1
  O  O369  1  0.24239736  0.38207014  0.74744862  1
  O  O370  1  0.24517812  0.88070796  0.24515725  1
  O  O371  1  0.24343379  0.88232624  0.74845918  1
  O  O372  1  0.74383299  0.37990688  0.24533232  1
  O  O373  1  0.74555538  0.38383642  0.75305825  1
  O  O374  1  0.74492901  0.87981999  0.24367942  1
  O  O375  1  0.74345942  0.88067513  0.74451733  1
  O  O376  1  0.25215039  0.11567265  0.25258721  1
  O  O377  1  0.25539718  0.12070828  0.75459954  1
  O  O378  1  0.25810514  0.61782204  0.24507420  1
  O  O379  1  0.25739285  0.61822351  0.75149418  1
  O  O380  1  0.75068743  0.11736575  0.25650335  1
  O  O381  1  0.75022763  0.11804924  0.75696792  1
  O  O382  1  0.75511966  0.62018169  0.25495344  1
  O  O383  1  0.75847449  0.61651087  0.75337432  1
  O  O384  1  0.37241687  0.11361926  0.37661178  1
  O  O385  1  0.36956679  0.12080866  0.86867396  1
  O  O386  1  0.37355727  0.62245916  0.36024034  1
  O  O387  1  0.37498073  0.61793776  0.86824540  1
  O  O388  1  0.86915801  0.11671078  0.37322586  1
  O  O389  1  0.86830284  0.11744587  0.87548176  1
  O  O390  1  0.86824862  0.62618038  0.36822268  1
  O  O391  1  0.87313703  0.61929733  0.86692901  1
  O  O392  1  0.13274763  0.37528144  0.13088666  1
  O  O393  1  0.12462099  0.38407655  0.62927810  1
  O  O394  1  0.12996147  0.88103086  0.13022763  1
  O  O395  1  0.12510498  0.88166922  0.63151886  1
  O  O396  1  0.62979843  0.37940383  0.13076598  1
  O  O397  1  0.62938123  0.37830195  0.63549593  1
  O  O398  1  0.63112853  0.88092457  0.12958602  1
  O  O399  1  0.62999468  0.88047554  0.62947733  1
  O  O400  1  0.11967263  0.25514950  0.25433892  1
  O  O401  1  0.12064193  0.25540584  0.75541782  1
  O  O402  1  0.12348521  0.75761137  0.25312064  1
  O  O403  1  0.12476633  0.75634585  0.75664949  1
  O  O404  1  0.62450571  0.25685932  0.25719491  1
  O  O405  1  0.62024622  0.25391228  0.75628340  1
  O  O406  1  0.62097525  0.75618944  0.25510021  1
  O  O407  1  0.62029949  0.75449340  0.75716327  1
  O  O408  1  0.37733290  0.24854058  0.24184871  1
  O  O409  1  0.38095612  0.24494903  0.74496002  1
  O  O410  1  0.37980150  0.74120429  0.24819620  1
  O  O411  1  0.37964721  0.74523507  0.74497916  1
  O  O412  1  0.88168376  0.24686068  0.24314036  1
  O  O413  1  0.88409255  0.24521996  0.74953806  1
  O  O414  1  0.87722063  0.74289437  0.24207916  1
  O  O415  1  0.87231894  0.74141598  0.74723124  1
  O  O416  1  0.38399826  0.49246861  0.49991248  1
  O  O417  1  0.37686131  0.49253891  0.99289558  1
  O  O418  1  0.37820109  0.99581346  0.49417923  1
  O  O419  1  0.37964169  0.99666557  0.99387314  1
  O  O420  1  0.87930495  0.49880425  0.49632788  1
  O  O421  1  0.88446091  0.49832574  0.99488929  1
  O  O422  1  0.87607039  0.99231043  0.49330452  1
  O  O423  1  0.88060181  0.99409955  0.99556222  1
  O  O424  1  0.12015211  0.00516202  0.00527081  1
  O  O425  1  0.12288322  0.00911597  0.50595755  1
  O  O426  1  0.11328891  0.50131478  0.00118405  1
  O  O427  1  0.12663569  0.50853607  0.50683021  1
  O  O428  1  0.62034781  0.00458536  0.00508396  1
  O  O429  1  0.61988570  0.00461963  0.50525346  1
  O  O430  1  0.62188324  0.50323747  0.00810641  1
  O  O431  1  0.61267614  0.50075182  0.50255989  1
  O  O432  1  0.37015702  0.36918377  0.11823064  1
  O  O433  1  0.37563326  0.37037532  0.61506453  1
  O  O434  1  0.36823786  0.87630323  0.11896003  1
  O  O435  1  0.37182995  0.86755804  0.61812843  1
  O  O436  1  0.86739890  0.36770605  0.12436334  1
  O  O437  1  0.87164165  0.36953288  0.62192906  1
  O  O438  1  0.87054457  0.87013085  0.11962294  1
  O  O439  1  0.86855029  0.87142380  0.62129008  1
  O  O440  1  0.12228070  0.12918448  0.38471553  1
  O  O441  1  0.13055786  0.12980589  0.88012700  1
  O  O442  1  0.12718782  0.62652139  0.38518196  1
  O  O443  1  0.12744356  0.63417948  0.87738450  1
  O  O444  1  0.63057863  0.12910388  0.38115412  1
  O  O445  1  0.63038821  0.12975140  0.88063354  1
  O  O446  1  0.63188953  0.63280995  0.37621486  1
  O  O447  1  0.62539303  0.63793307  0.87687070  1
