# generated using pymatgen
data_V3Zn3O8
_symmetry_space_group_name_H-M   'P 1'
_cell_length_a   17.08789733
_cell_length_b   17.08738041
_cell_length_c   17.08625003
_cell_angle_alpha   90.01737066
_cell_angle_beta   90.01329279
_cell_angle_gamma   89.99317548
_symmetry_Int_Tables_number   1
_chemical_formula_structural   V3Zn3O8
_chemical_formula_sum   'V96 Zn96 O256'
_cell_volume   4988.96935825
_cell_formula_units_Z   32
loop_
 _symmetry_equiv_pos_site_id
 _symmetry_equiv_pos_as_xyz
  1  'x, y, z'
loop_
 _atom_site_type_symbol
 _atom_site_label
 _atom_site_symmetry_multiplicity
 _atom_site_fract_x
 _atom_site_fract_y
 _atom_site_fract_z
 _atom_site_occupancy
  V  V0  1  0.24955034  0.74937360  0.49998011  1
  V  V1  1  0.25139305  0.87445323  0.12477633  1
  V  V2  1  0.87516799  -0.00000566  0.87432103  1
  V  V3  1  0.62463541  0.49890634  0.62539037  1
  V  V4  1  0.37488872  0.75056394  0.62550603  1
  V  V5  1  0.74967340  0.50028678  0.25008648  1
  V  V6  1  0.62421237  0.37405046  0.25001412  1
  V  V7  1  0.74898546  0.74951099  0.50038561  1
  V  V8  1  0.37573775  0.74993865  0.12358486  1
  V  V9  1  0.50014417  0.62499252  0.62474877  1
  V  V10  1  -0.00048961  0.24977770  0.75029744  1
  V  V11  1  0.62466427  0.87483980  0.24912346  1
  V  V12  1  0.00003666  0.87413086  0.37449028  1
  V  V13  1  0.87479533  0.12512179  0.25010470  1
  V  V14  1  0.00045582  0.12386276  0.12527001  1
  V  V15  1  0.25060995  -0.00156485  0.24970269  1
  V  V16  1  0.75122775  0.25107539  -0.00053975  1
  V  V17  1  0.24816156  0.37490537  0.12642207  1
  V  V18  1  0.87607481  0.50128230  0.87518267  1
  V  V19  1  0.50038482  0.87614298  0.87526958  1
  V  V20  1  0.37597511  0.49970589  0.87699523  1
  V  V21  1  0.87501889  -0.00140306  0.37534903  1
  V  V22  1  0.37499559  -0.00111454  0.37467259  1
  V  V23  1  0.75028230  0.87432132  0.62391899  1
  V  V24  1  0.37572647  0.12540709  0.24980194  1
  V  V25  1  0.49872877  0.49912923  0.49940130  1
  V  V26  1  0.87426212  0.49957831  0.37561156  1
  V  V27  1  0.00137174  0.62502527  0.62420404  1
  V  V28  1  0.50084934  0.74973952  0.24974121  1
  V  V29  1  0.74911720  0.87555350  0.12519612  1
  V  V30  1  0.62463409  0.25184172  0.87438816  1
  V  V31  1  0.50044336  0.75043410  0.74989593  1
  V  V32  1  0.87596936  0.74843680  0.12606554  1
  V  V33  1  0.74939759  0.12399882  0.37416866  1
  V  V34  1  0.37620064  0.87525756  -0.00032188  1
  V  V35  1  0.49977596  0.87402549  0.37416711  1
  V  V36  1  0.62558373  0.62412772  -0.00032059  1
  V  V37  1  0.12485435  0.74953329  0.37535724  1
  V  V38  1  0.87481436  0.87490870  -0.00003944  1
  V  V39  1  -0.00124497  0.49944707  0.50110752  1
  V  V40  1  0.62567255  0.87516615  0.74990091  1
  V  V41  1  0.50023906  0.12460750  0.62439894  1
  V  V42  1  0.00068009  -0.00108348  0.00015364  1
  V  V43  1  0.37530295  0.12599177  0.75001511  1
  V  V44  1  0.37380153  0.49978832  0.37505635  1
  V  V45  1  0.25010466  0.00109632  0.74985382  1
  V  V46  1  0.87469430  0.62532321  0.75096184  1
  V  V47  1  0.12492637  0.12531168  0.49978345  1
  V  V48  1  0.87513615  0.24945909  0.62574326  1
  V  V49  1  0.12394399  0.37687827  0.24979911  1
  V  V50  1  0.87431504  0.37471904  0.49987219  1
  V  V51  1  0.50015886  0.62370557  0.12423342  1
  V  V52  1  0.87636031  0.37554019  0.00130503  1
  V  V53  1  0.62422526  0.37480162  0.74948701  1
  V  V54  1  0.37462102  0.24895938  0.12645459  1
  V  V55  1  0.62432084  0.12420953  0.49973305  1
  V  V56  1  0.74867613  0.37487018  0.62541980  1
  V  V57  1  0.62520300  0.49969723  0.12445775  1
  V  V58  1  0.24921214  0.37569059  0.62560546  1
  V  V59  1  0.62444793  0.24982704  0.37386711  1
  V  V60  1  0.87503329  0.62564641  0.24956087  1
  V  V61  1  0.37583224  0.87541821  0.49942226  1
  V  V62  1  0.37436721  0.24988589  0.62436987  1
  V  V63  1  0.25030928  0.12586435  0.87578304  1
  V  V64  1  -0.00060353  0.24928493  0.25065137  1
  V  V65  1  0.50022153  0.25115424  0.74977604  1
  V  V66  1  0.12478486  0.00078489  0.62408291  1
  V  V67  1  0.62476951  0.00034013  0.62487489  1
  V  V68  1  0.00034578  -0.00014902  0.49936072  1
  V  V69  1  0.62483845  0.62442465  0.49991441  1
  V  V70  1  0.75122709  0.00038595  0.74976592  1
  V  V71  1  0.37429196  0.37497493  0.49893405  1
  V  V72  1  0.12567949  0.87437070  0.25002319  1
  V  V73  1  0.12496548  0.87557191  0.75023858  1
  V  V74  1  0.24983258  0.62492064  0.37517432  1
  V  V75  1  0.12507003  0.62551811  0.00128938  1
  V  V76  1  0.74988272  0.24918652  0.50010017  1
  V  V77  1  0.87429287  0.75022893  0.62473725  1
  V  V78  1  0.37470373  0.37516770  0.00114837  1
  V  V79  1  0.24918966  0.24901485  -0.00000106  1
  V  V80  1  0.12525957  0.25001972  0.87516562  1
  V  V81  1  0.62434770  0.12514027  0.00087996  1
  V  V82  1  0.62626355  0.74940597  0.87506195  1
  V  V83  1  0.74884157  -0.00051946  0.24910580  1
  V  V84  1  0.87498913  0.12490952  0.74987496  1
  V  V85  1  0.24829327  0.50001986  0.74919643  1
  V  V86  1  0.12577838  0.75153519  0.87469653  1
  V  V87  1  0.00077845  0.37383446  0.87482834  1
  V  V88  1  0.37633278  0.00018537  0.87546316  1
  V  V89  1  0.74882815  0.62520144  0.37601036  1
  V  V90  1  0.25042055  0.87544442  0.62454153  1
  V  V91  1  0.37472226  0.62526811  0.75078714  1
  V  V92  1  0.12420338  0.24964047  0.37592423  1
  V  V93  1  0.37485426  0.62358920  0.24973273  1
  V  V94  1  0.24870629  0.24982349  0.50028040  1
  V  V95  1  0.75049441  0.74965798  -0.00087915  1
  Zn  Zn96  1  0.50184052  0.00120619  0.00141474  1
  Zn  Zn97  1  0.49981053  -0.00066698  0.49970149  1
  Zn  Zn98  1  -0.00003225  0.12524640  0.62475527  1
  Zn  Zn99  1  0.74831419  0.49959997  0.75051056  1
  Zn  Zn100  1  0.50057236  0.37495981  0.87684646  1
  Zn  Zn101  1  0.49976573  0.24931107  0.25004250  1
  Zn  Zn102  1  0.00034226  0.87581895  0.87273739  1
  Zn  Zn103  1  0.62364324  0.00116348  0.12389083  1
  Zn  Zn104  1  0.00248490  0.50108176  0.00263625  1
  Zn  Zn105  1  0.49780004  0.37282702  0.37469027  1
  Zn  Zn106  1  0.12425022  0.49896489  0.62446996  1
  Zn  Zn107  1  0.50127400  0.49774224  0.00026087  1
  Zn  Zn108  1  0.50134493  0.12473161  0.12508610  1
  Zn  Zn109  1  -0.00143181  0.37512651  0.37545720  1
  Zn  Zn110  1  0.24883502  0.50054333  0.24961633  1
  Zn  Zn111  1  0.00021914  0.74879070  0.24976684  1
  Zn  Zn112  1  0.12449623  0.50292283  0.12457605  1
  Zn  Zn113  1  0.87535689  0.25191932  0.12600277  1
  Zn  Zn114  1  0.12550843  0.62302660  0.49987210  1
  Zn  Zn115  1  0.87466395  0.87446489  0.49958099  1
  Zn  Zn116  1  0.12622011  -0.00217171  0.12494260  1
  Zn  Zn117  1  0.62459233  0.74963597  0.37502147  1
  Zn  Zn118  1  0.00024254  0.75332130  0.74917517  1
  Zn  Zn119  1  0.24998066  0.12402220  0.37530802  1
  Zn  Zn120  1  0.12619938  0.12320042  0.00082854  1
  Zn  Zn121  1  0.75012446  0.12453740  0.87430111  1
  Zn  Zn122  1  0.00161671  0.62453865  0.12707209  1
  Zn  Zn123  1  0.12366590  0.37555820  0.74969372  1
  Zn  Zn124  1  0.75010360  0.62476010  0.87462601  1
  Zn  Zn125  1  0.75119086  0.37608331  0.12503379  1
  Zn  Zn126  1  0.25148627  0.75003108  -0.00086042  1
  Zn  Zn127  1  0.25030350  0.62635507  0.87616905  1
  Zn  Zn128  1  0.18731913  0.18705287  0.18823739  1
  Zn  Zn129  1  0.18585945  0.18790334  0.68786399  1
  Zn  Zn130  1  0.18922911  0.68957728  0.18803033  1
  Zn  Zn131  1  0.18720462  0.68776275  0.68872716  1
  Zn  Zn132  1  0.68955179  0.18933509  0.18494508  1
  Zn  Zn133  1  0.68791817  0.18700996  0.68762181  1
  Zn  Zn134  1  0.68790371  0.68806933  0.18680778  1
  Zn  Zn135  1  0.68831684  0.68669077  0.68740947  1
  Zn  Zn136  1  0.30927080  0.31168858  0.31379226  1
  Zn  Zn137  1  0.31246277  0.31414708  0.81334165  1
  Zn  Zn138  1  0.31306040  0.81104502  0.31151063  1
  Zn  Zn139  1  0.31144580  0.81385269  0.81305137  1
  Zn  Zn140  1  0.81165228  0.31226985  0.31296441  1
  Zn  Zn141  1  0.81190234  0.31311939  0.81283992  1
  Zn  Zn142  1  0.81176858  0.81175129  0.31309123  1
  Zn  Zn143  1  0.81339178  0.81318918  0.81295247  1
  Zn  Zn144  1  0.18539532  0.43873762  0.43755373  1
  Zn  Zn145  1  0.18815696  0.43743635  0.93752750  1
  Zn  Zn146  1  0.18775740  0.93714642  0.43607593  1
  Zn  Zn147  1  0.18841690  0.93709333  0.93832118  1
  Zn  Zn148  1  0.68691228  0.43719711  0.43707776  1
  Zn  Zn149  1  0.68918808  0.43807201  0.93603121  1
  Zn  Zn150  1  0.68618761  0.93651188  0.43679652  1
  Zn  Zn151  1  0.68889032  0.93819134  0.93675557  1
  Zn  Zn152  1  0.31355822  0.06078992  0.06299209  1
  Zn  Zn153  1  0.31210173  0.06281374  0.56112412  1
  Zn  Zn154  1  0.30791371  0.56224566  0.06314754  1
  Zn  Zn155  1  0.31289009  0.56307527  0.56224974  1
  Zn  Zn156  1  0.81240027  0.06271679  0.06291237  1
  Zn  Zn157  1  0.81322523  0.06203560  0.56220531  1
  Zn  Zn158  1  0.81119231  0.56318935  0.06344057  1
  Zn  Zn159  1  0.81189093  0.56186194  0.56332884  1
  Zn  Zn160  1  0.43794762  0.43750510  0.18749898  1
  Zn  Zn161  1  0.43697047  0.43702683  0.68730199  1
  Zn  Zn162  1  0.44055652  0.94006317  0.18472013  1
  Zn  Zn163  1  0.43804772  0.93820294  0.68785185  1
  Zn  Zn164  1  0.94132468  0.44162671  0.18591475  1
  Zn  Zn165  1  0.93666018  0.43701781  0.68806393  1
  Zn  Zn166  1  0.93694642  0.93580079  0.18840260  1
  Zn  Zn167  1  0.93875704  0.93731415  0.68622985  1
  Zn  Zn168  1  0.06396681  0.06105140  0.31309138  1
  Zn  Zn169  1  0.06245036  0.06441056  0.81293245  1
  Zn  Zn170  1  0.06014447  0.56325878  0.31432071  1
  Zn  Zn171  1  0.06207431  0.56437159  0.81489321  1
  Zn  Zn172  1  0.56114471  0.06025831  0.31231887  1
  Zn  Zn173  1  0.56364426  0.06432155  0.81405876  1
  Zn  Zn174  1  0.56125356  0.56119115  0.31319057  1
  Zn  Zn175  1  0.56182424  0.56244110  0.81273669  1
  Zn  Zn176  1  0.43851908  0.18735127  0.43566559  1
  Zn  Zn177  1  0.43847909  0.18944267  0.93764711  1
  Zn  Zn178  1  0.43704327  0.68775413  0.43681823  1
  Zn  Zn179  1  0.43947306  0.68710006  0.93812713  1
  Zn  Zn180  1  0.93853698  0.18656046  0.43713576  1
  Zn  Zn181  1  0.93751440  0.18615019  0.93591203  1
  Zn  Zn182  1  0.93627124  0.68792190  0.43749616  1
  Zn  Zn183  1  0.94211637  0.68944300  0.93838452  1
  Zn  Zn184  1  0.06246945  0.31061887  0.06281081  1
  Zn  Zn185  1  0.06239934  0.31419432  0.56469256  1
  Zn  Zn186  1  0.06292372  0.81067575  0.06382499  1
  Zn  Zn187  1  0.06241552  0.81246720  0.56095888  1
  Zn  Zn188  1  0.55940069  0.31169383  0.06447755  1
  Zn  Zn189  1  0.56145191  0.31220763  0.56166568  1
  Zn  Zn190  1  0.56276044  0.81214829  0.06213436  1
  Zn  Zn191  1  0.56261640  0.81228553  0.56155806  1
  O  O192  1  0.11185127  0.12167246  0.12482597  1
  O  O193  1  0.12408063  0.11819277  0.61837139  1
  O  O194  1  0.12578390  0.62764930  0.11419001  1
  O  O195  1  0.11198985  0.62410231  0.62534095  1
  O  O196  1  0.62568968  0.12624852  0.11257225  1
  O  O197  1  0.61999897  0.12005060  0.61972197  1
  O  O198  1  0.61994371  0.61965577  0.11972425  1
  O  O199  1  0.61905865  0.61906631  0.62056918  1
  O  O200  1  0.37440555  0.38073220  0.38165485  1
  O  O201  1  0.37517736  0.38400830  0.88154824  1
  O  O202  1  0.38023943  0.87882118  0.37987796  1
  O  O203  1  0.38077062  0.88053188  0.87861778  1
  O  O204  1  0.87437200  0.38147628  0.38223763  1
  O  O205  1  0.87978269  0.38250966  0.88184182  1
  O  O206  1  0.88076441  0.88153013  0.37596927  1
  O  O207  1  0.87788467  0.88138262  0.88173639  1
  O  O208  1  0.25767718  0.00007685  0.36765243  1
  O  O209  1  0.25609501  0.00552170  0.86901513  1
  O  O210  1  0.25649776  0.50694720  0.37449012  1
  O  O211  1  0.26044868  0.50030682  0.86535511  1
  O  O212  1  0.75475879  0.00523378  0.36928513  1
  O  O213  1  0.75736762  0.00050219  0.86684032  1
  O  O214  1  0.75479041  0.50586298  0.37055038  1
  O  O215  1  0.76368636  0.50237501  0.87203621  1
  O  O216  1  0.24529389  0.49008911  0.12906435  1
  O  O217  1  0.25160719  0.49537267  0.63475702  1
  O  O218  1  0.24929137  0.99238802  0.13175366  1
  O  O219  1  0.24522446  0.99487610  0.63035882  1
  O  O220  1  0.74285392  0.49851144  0.13249610  1
  O  O221  1  0.74248371  0.49274047  0.62600564  1
  O  O222  1  0.74932418  0.99335167  0.13170015  1
  O  O223  1  0.74440743  0.99441367  0.63010015  1
  O  O224  1  0.00803413  0.36821540  0.25046222  1
  O  O225  1  -0.00040924  0.36812697  0.75725765  1
  O  O226  1  0.00680663  0.87391253  0.25710831  1
  O  O227  1  0.00940582  0.87399855  0.75147439  1
  O  O228  1  0.51309029  0.37407829  0.25227363  1
  O  O229  1  0.50610602  0.36794601  0.74965456  1
  O  O230  1  0.50462050  0.86911977  0.25427440  1
  O  O231  1  0.50598881  0.86944260  0.75462697  1
  O  O232  1  0.48640334  0.12533026  0.24949067  1
  O  O233  1  0.49474626  0.13114055  0.74419594  1
  O  O234  1  0.49488968  0.62965155  0.24426909  1
  O  O235  1  0.49487836  0.63115330  0.74399184  1
  O  O236  1  0.99490501  0.12775561  0.24307731  1
  O  O237  1  0.99281525  0.13162146  0.74816560  1
  O  O238  1  0.98984049  0.62796617  0.24989926  1
  O  O239  1  0.99014586  0.62535481  0.74134681  1
  O  O240  1  0.36827964  0.25494834  0.00549262  1
  O  O241  1  0.36929612  0.25441164  0.50529683  1
  O  O242  1  0.37518913  0.75665570  0.00540744  1
  O  O243  1  0.36977967  0.75540151  0.50652041  1
  O  O244  1  0.86765240  0.25904725  -0.00293975  1
  O  O245  1  0.86900140  0.25407745  0.50474360  1
  O  O246  1  0.87028599  0.75535387  0.00444078  1
  O  O247  1  0.86643864  0.75059153  0.50730470  1
  O  O248  1  0.12890648  0.24577899  0.49608518  1
  O  O249  1  0.13140591  0.24697673  0.99332917  1
  O  O250  1  0.13269399  0.74817658  0.49378625  1
  O  O251  1  0.12720432  0.74469051  0.99087409  1
  O  O252  1  0.63082330  0.24416299  0.49502685  1
  O  O253  1  0.63314897  0.24606348  0.99538323  1
  O  O254  1  0.63086701  0.74166865  0.50002054  1
  O  O255  1  0.63067696  0.74448070  0.99419677  1
  O  O256  1  0.48998578  0.24596891  0.12976977  1
  O  O257  1  0.49390815  0.24392119  0.62972900  1
  O  O258  1  0.49494648  0.74360955  0.13033665  1
  O  O259  1  0.49469337  0.74497321  0.63067205  1
  O  O260  1  0.99763020  0.23907547  0.13044720  1
  O  O261  1  0.99229092  0.24917796  0.63190274  1
  O  O262  1  0.98975439  0.74809000  0.12802140  1
  O  O263  1  0.99367521  0.74046026  0.62494144  1
  O  O264  1  0.00585304  0.25152767  0.36825727  1
  O  O265  1  0.00483829  0.25429937  0.86998960  1
  O  O266  1  0.00631357  0.75642357  0.37531006  1
  O  O267  1  0.01309891  0.75414267  0.87205998  1
  O  O268  1  0.50883236  0.25265446  0.37140685  1
  O  O269  1  0.50603481  0.25231108  0.86664971  1
  O  O270  1  0.50065673  0.75578155  0.36771323  1
  O  O271  1  0.50614287  0.75587563  0.86828789  1
  O  O272  1  0.24334359  0.13228911  0.49918140  1
  O  O273  1  0.24968977  0.13054065  0.99373490  1
  O  O274  1  0.24977684  0.63214794  0.49455001  1
  O  O275  1  0.23981230  0.62925938  0.99657111  1
  O  O276  1  0.74416081  0.12978772  0.49413184  1
  O  O277  1  0.74444265  0.13523469  0.99810139  1
  O  O278  1  0.74398547  0.62916487  0.49617758  1
  O  O279  1  0.74358362  0.63233386  0.99788436  1
  O  O280  1  0.25474787  0.36827125  0.00621403  1
  O  O281  1  0.25499621  0.36988220  0.50595954  1
  O  O282  1  0.25841595  0.87439528  0.00650994  1
  O  O283  1  0.25608252  0.86926228  0.50564681  1
  O  O284  1  0.75964729  0.36761277  -0.00088353  1
  O  O285  1  0.75413033  0.36848694  0.50548653  1
  O  O286  1  0.75529864  0.86960793  0.00510191  1
  O  O287  1  0.74985223  0.86825938  0.50688647  1
  O  O288  1  0.12507746  0.48688738  0.25156864  1
  O  O289  1  0.13776336  0.50005755  0.75096862  1
  O  O290  1  0.13254247  0.99229314  0.24941499  1
  O  O291  1  0.13141734  0.99645449  0.74485875  1
  O  O292  1  0.63004119  0.49266567  0.24582521  1
  O  O293  1  0.62519343  0.49416198  0.74324323  1
  O  O294  1  0.63229705  0.99362043  0.24870152  1
  O  O295  1  0.63080897  0.99489341  0.74501603  1
  O  O296  1  0.37016105  0.00659978  0.25450123  1
  O  O297  1  0.36947200  0.00617581  0.75488706  1
  O  O298  1  0.37384281  0.50605583  0.25696765  1
  O  O299  1  0.36814853  0.50455549  0.75690457  1
  O  O300  1  0.86892019  0.00545639  0.25590573  1
  O  O301  1  0.87061399  0.00463218  0.75406761  1
  O  O302  1  0.86874217  0.50429167  0.25567619  1
  O  O303  1  0.87447890  0.50794563  0.75843109  1
  O  O304  1  0.12280310  0.36854334  0.36594633  1
  O  O305  1  0.11860911  0.36811772  0.87392475  1
  O  O306  1  0.12033282  0.86904655  0.36968026  1
  O  O307  1  0.12536167  0.86798534  0.86912967  1
  O  O308  1  0.62531930  0.36917860  0.36586914  1
  O  O309  1  0.62362468  0.37004199  0.86784550  1
  O  O310  1  0.61805170  0.87278629  0.36772888  1
  O  O311  1  0.62067722  0.86948332  0.86882180  1
  O  O312  1  0.37356552  0.13046525  0.13482856  1
  O  O313  1  0.37963527  0.13027397  0.63051521  1
  O  O314  1  0.38005329  0.62929950  0.12942514  1
  O  O315  1  0.38113316  0.63117075  0.63053423  1
  O  O316  1  0.88501827  0.12565276  0.13121532  1
  O  O317  1  0.87566160  0.13205195  0.63136320  1
  O  O318  1  0.87361638  0.63188959  0.13175905  1
  O  O319  1  0.88150400  0.62889621  0.63284363  1
  O  O320  1  0.25452126  0.25477751  0.11961050  1
  O  O321  1  0.25567548  0.25533383  0.62065535  1
  O  O322  1  0.25948841  0.75759950  0.12413664  1
  O  O323  1  0.25575296  0.75560293  0.62083872  1
  O  O324  1  0.75459862  0.25381458  0.11151686  1
  O  O325  1  0.75481587  0.25503290  0.61884956  1
  O  O326  1  0.75584606  0.75590171  0.11846712  1
  O  O327  1  0.75447969  0.75478135  0.62030676  1
  O  O328  1  0.24206549  0.24798325  0.38369132  1
  O  O329  1  0.24585560  0.24516821  0.88005709  1
  O  O330  1  0.24584348  0.74484073  0.38093763  1
  O  O331  1  0.23877781  0.74901875  0.87541828  1
  O  O332  1  0.74481300  0.24288880  0.38091960  1
  O  O333  1  0.74442397  0.25002183  0.88511066  1
  O  O334  1  0.74776028  0.74276818  0.38218903  1
  O  O335  1  0.74375375  0.74914337  0.88104323  1
  O  O336  1  -0.00142086  0.11606283  0.00870623  1
  O  O337  1  0.00701859  0.11798069  0.50133947  1
  O  O338  1  0.01300145  0.62480676  0.00124274  1
  O  O339  1  -0.00252557  0.61873487  0.51072067  1
  O  O340  1  0.51306642  0.12652452  -0.00045452  1
  O  O341  1  0.50634740  0.12358405  0.50683126  1
  O  O342  1  0.50781465  0.62280886  0.00681006  1
  O  O343  1  0.50416328  0.61972291  0.50602727  1
  O  O344  1  0.49240266  0.38141528  0.49940055  1
  O  O345  1  0.49072014  0.37752062  0.99805663  1
  O  O346  1  0.49332382  0.87533005  0.49382686  1
  O  O347  1  0.49491884  0.87584363  0.99178918  1
  O  O348  1  0.99137618  0.38123581  0.50028463  1
  O  O349  1  0.99022650  0.37355780  0.99356842  1
  O  O350  1  0.99848510  0.88217210  0.49293327  1
  O  O351  1  0.99373041  0.88571958  1.00124927  1
  O  O352  1  0.49214598  0.49837677  0.38272875  1
  O  O353  1  0.48652836  0.49817788  0.87524770  1
  O  O354  1  0.49262284  0.99178687  0.37680231  1
  O  O355  1  0.49392688  0.99362365  0.87460911  1
  O  O356  1  0.99109924  0.49866921  0.38335577  1
  O  O357  1  0.98951271  0.49400732  0.87643527  1
  O  O358  1  0.99466222  0.99426587  0.37977463  1
  O  O359  1  0.99465830  1.00047236  0.88558333  1
  O  O360  1  -0.00102998  0.00746100  0.11701664  1
  O  O361  1  0.00753745  0.00139459  0.61757723  1
  O  O362  1  0.00646441  0.50596081  0.11990104  1
  O  O363  1  -0.00172678  0.50936320  0.62060831  1
  O  O364  1  0.50561296  0.00598458  0.11922438  1
  O  O365  1  0.50684148  0.00662176  0.62469321  1
  O  O366  1  0.50707946  0.50679247  0.12380342  1
  O  O367  1  0.50402976  0.50588720  0.61939225  1
  O  O368  1  0.23877306  0.37377848  0.24488002  1
  O  O369  1  0.25113029  0.38509446  0.74426348  1
  O  O370  1  0.24640400  0.87933677  0.24450295  1
  O  O371  1  0.24572531  0.88212094  0.74354869  1
  O  O372  1  0.74049653  0.38063508  0.24901405  1
  O  O373  1  0.74272982  0.37540130  0.74265867  1
  O  O374  1  0.74456841  0.88004335  0.24511655  1
  O  O375  1  0.74460790  0.88001298  0.74370079  1
  O  O376  1  0.25966018  0.11853997  0.25112708  1
  O  O377  1  0.25637227  0.12061434  0.75517426  1
  O  O378  1  0.25747945  0.62414860  0.25703069  1
  O  O379  1  0.25693955  0.61572124  0.74998755  1
  O  O380  1  0.75489762  0.12030754  0.25468508  1
  O  O381  1  0.75617702  0.11819626  0.75101438  1
  O  O382  1  0.75399504  0.61929395  0.25618287  1
  O  O383  1  0.76313506  0.62276347  0.75077237  1
  O  O384  1  0.37314845  0.11880907  0.36630745  1
  O  O385  1  0.37010220  0.12083701  0.86900667  1
  O  O386  1  0.36967028  0.62009268  0.36971058  1
  O  O387  1  0.37425598  0.61677287  0.86946946  1
  O  O388  1  0.86876354  0.11912368  0.36955591  1
  O  O389  1  0.87256991  0.11798203  0.86806313  1
  O  O390  1  0.86760387  0.61914070  0.37025720  1
  O  O391  1  0.87798155  0.61811594  0.86735911  1
  O  O392  1  0.12977183  0.37219787  0.13524659  1
  O  O393  1  0.13352773  0.37838441  0.62955792  1
  O  O394  1  0.13268248  0.87473774  0.13190206  1
  O  O395  1  0.13192638  0.88054057  0.62940879  1
  O  O396  1  0.62664120  0.38013360  0.13415903  1
  O  O397  1  0.62934472  0.37950696  0.62923510  1
  O  O398  1  0.63230124  0.87545443  0.13077650  1
  O  O399  1  0.62975746  0.87994261  0.63094253  1
  O  O400  1  0.11962252  0.25694018  0.25554169  1
  O  O401  1  0.11819907  0.25138293  0.75723085  1
  O  O402  1  0.12453451  0.75700183  0.25805906  1
  O  O403  1  0.12480916  0.75637145  0.75787980  1
  O  O404  1  0.62713203  0.25861606  0.25467234  1
  O  O405  1  0.61982933  0.25481750  0.75403635  1
  O  O406  1  0.61828046  0.75613762  0.25094701  1
  O  O407  1  0.62012961  0.75518103  0.75426120  1
  O  O408  1  0.37242552  0.24062521  0.24590570  1
  O  O409  1  0.37928913  0.24524737  0.74423383  1
  O  O410  1  0.38154539  0.74342962  0.24366130  1
  O  O411  1  0.38040893  0.74597044  0.74512992  1
  O  O412  1  0.88016347  0.24336154  0.24900565  1
  O  O413  1  0.87931472  0.24506420  0.74575120  1
  O  O414  1  0.87344069  0.74308759  0.24360241  1
  O  O415  1  0.87680114  0.74095952  0.74507140  1
  O  O416  1  0.37959573  0.49471724  0.49539960  1
  O  O417  1  0.37318366  0.49513715  0.99087312  1
  O  O418  1  0.37581153  0.99295372  0.49395016  1
  O  O419  1  0.37744722  0.99388289  0.99181165  1
  O  O420  1  0.87825105  0.49414940  0.49552665  1
  O  O421  1  0.87471917  0.49225593  0.99131941  1
  O  O422  1  0.88114081  0.99897510  0.49276319  1
  O  O423  1  0.88153404  0.99518289  0.99505877  1
  O  O424  1  0.11331554  0.00140138  0.00216369  1
  O  O425  1  0.12106569  0.00498064  0.50442405  1
  O  O426  1  0.12486595  0.51212812  -0.00221382  1
  O  O427  1  0.11552929  0.50308479  0.50353207  1
  O  O428  1  0.62729597  0.01336601  -0.00123586  1
  O  O429  1  0.62395431  0.00659808  0.50686584  1
  O  O430  1  0.62514786  0.50548507  0.00541531  1
  O  O431  1  0.61900883  0.50461680  0.50591601  1
  O  O432  1  0.36814822  0.36933555  0.12166915  1
  O  O433  1  0.36936131  0.36909711  0.61900273  1
  O  O434  1  0.37182685  0.86938261  0.11952897  1
  O  O435  1  0.37008393  0.86982598  0.62068107  1
  O  O436  1  0.87485097  0.37504886  0.11216622  1
  O  O437  1  0.86814295  0.36915542  0.61990953  1
  O  O438  1  0.86830908  0.86917486  0.12000288  1
  O  O439  1  0.86769536  0.86840218  0.62413895  1
  O  O440  1  0.12703467  0.13140318  0.38140358  1
  O  O441  1  0.13310519  0.13153165  0.87659653  1
  O  O442  1  0.13166066  0.63150068  0.37647383  1
  O  O443  1  0.12663210  0.63489179  0.88129101  1
  O  O444  1  0.63045903  0.12911219  0.37942807  1
  O  O445  1  0.62840885  0.13331943  0.88317251  1
  O  O446  1  0.63081267  0.62480221  0.38235940  1
  O  O447  1  0.62634155  0.63120701  0.88000425  1
