# generated using pymatgen
data_V3Zn3O8
_symmetry_space_group_name_H-M   'P 1'
_cell_length_a   17.08692488
_cell_length_b   17.08576216
_cell_length_c   17.08562770
_cell_angle_alpha   89.99804938
_cell_angle_beta   89.99404054
_cell_angle_gamma   90.00280261
_symmetry_Int_Tables_number   1
_chemical_formula_structural   V3Zn3O8
_chemical_formula_sum   'V96 Zn96 O256'
_cell_volume   4988.03166782
_cell_formula_units_Z   32
loop_
 _symmetry_equiv_pos_site_id
 _symmetry_equiv_pos_as_xyz
  1  'x, y, z'
loop_
 _atom_site_type_symbol
 _atom_site_label
 _atom_site_symmetry_multiplicity
 _atom_site_fract_x
 _atom_site_fract_y
 _atom_site_fract_z
 _atom_site_occupancy
  V  V0  1  0.62574219  0.00019054  0.62710065  1
  V  V1  1  0.62498768  0.37473370  0.75022844  1
  V  V2  1  0.00057954  0.12396187  0.62557059  1
  V  V3  1  0.74931283  0.24992675  0.49960856  1
  V  V4  1  0.00123170  0.37470651  0.37337870  1
  V  V5  1  0.24988673  0.74958810  0.49889214  1
  V  V6  1  0.87476811  0.12710085  0.24968745  1
  V  V7  1  0.87453152  0.49964757  0.87420197  1
  V  V8  1  0.00014167  0.49990202  -0.00052915  1
  V  V9  1  0.75084167  0.37476735  0.62463763  1
  V  V10  1  0.74938374  0.25050131  0.00040866  1
  V  V11  1  0.75100504  0.75099460  0.50163927  1
  V  V12  1  0.24987023  0.87294035  0.62501666  1
  V  V13  1  0.87426252  0.75027209  0.62655011  1
  V  V14  1  0.24908592  -0.00034558  0.25111618  1
  V  V15  1  0.12503544  0.74856233  0.87357395  1
  V  V16  1  0.12484252  0.00041313  0.12438998  1
  V  V17  1  0.25186500  0.49924744  0.24884086  1
  V  V18  1  0.12464238  0.24986551  0.87474906  1
  V  V19  1  0.37471755  0.49996253  0.87372521  1
  V  V20  1  0.62390255  0.87558342  0.25263097  1
  V  V21  1  0.74912532  0.12608226  0.37574106  1
  V  V22  1  0.87435360  0.62489627  0.75035924  1
  V  V23  1  0.62548575  0.12589173  0.50039691  1
  V  V24  1  0.37501939  0.87478115  0.00113788  1
  V  V25  1  0.49963913  -0.00042301  0.50117554  1
  V  V26  1  0.49920765  0.62637455  0.12619890  1
  V  V27  1  0.37513695  -0.00249433  0.37774185  1
  V  V28  1  -0.00238371  0.87576372  0.37489266  1
  V  V29  1  0.62589224  0.62526099  0.49964394  1
  V  V30  1  0.12374569  0.75001887  0.37442994  1
  V  V31  1  0.12477587  0.87292389  0.75064591  1
  V  V32  1  0.62581821  0.50007559  0.62464682  1
  V  V33  1  0.62469238  0.62635718  0.00119104  1
  V  V34  1  0.00007563  0.62617776  0.12411729  1
  V  V35  1  0.12587041  0.37422240  0.25095121  1
  V  V36  1  0.75038313  0.50152795  0.24976568  1
  V  V37  1  0.00034989  0.50065052  0.49873380  1
  V  V38  1  0.62368757  0.75160299  0.87545916  1
  V  V39  1  0.37479079  0.12441907  0.75005243  1
  V  V40  1  0.62616281  0.50117136  0.12515856  1
  V  V41  1  0.25086209  0.12463210  0.87413488  1
  V  V42  1  0.75131167  0.62547647  0.37473879  1
  V  V43  1  0.87483544  -0.00010894  0.37551114  1
  V  V44  1  0.75055944  0.50038635  0.75061296  1
  V  V45  1  0.75019342  0.87537625  0.62713348  1
  V  V46  1  0.12485373  0.62411497  -0.00244226  1
  V  V47  1  0.87524663  0.12438460  0.75068044  1
  V  V48  1  0.49998924  0.12437007  0.62566456  1
  V  V49  1  0.37530565  -0.00064203  0.87519941  1
  V  V50  1  0.87513732  0.37510863  0.00069835  1
  V  V51  1  0.75016021  0.87632783  0.12524867  1
  V  V52  1  0.25021879  0.62243775  0.87201032  1
  V  V53  1  0.87572108  -0.00104041  0.87748472  1
  V  V54  1  0.75118746  0.75256746  0.00122274  1
  V  V55  1  0.12372634  0.62474559  0.49828439  1
  V  V56  1  0.87479152  0.50157429  0.37426592  1
  V  V57  1  0.00070789  0.24978151  0.75067809  1
  V  V58  1  0.00054468  0.37360509  0.87476633  1
  V  V59  1  0.25032220  0.24985230  -0.00040560  1
  V  V60  1  0.37501082  0.25014199  0.62399960  1
  V  V61  1  0.87559552  0.24960280  0.62534722  1
  V  V62  1  0.74896784  0.00129729  0.25056524  1
  V  V63  1  0.62498646  0.12585938  -0.00009261  1
  V  V64  1  0.62406114  0.00068293  0.12564804  1
  V  V65  1  0.12399409  0.87519950  0.24933042  1
  V  V66  1  0.62519469  0.25063481  0.87520748  1
  V  V67  1  0.37510105  0.24879993  0.12406358  1
  V  V68  1  -0.00097640  0.74955605  0.75022082  1
  V  V69  1  -0.00027596  0.74995686  0.24785979  1
  V  V70  1  0.37538497  0.37368258  0.49964434  1
  V  V71  1  0.12656487  0.49763470  0.62423881  1
  V  V72  1  0.62515356  0.75176863  0.37523414  1
  V  V73  1  0.24981407  0.37482610  0.12506090  1
  V  V74  1  0.12394617  0.12493720  0.50070329  1
  V  V75  1  0.74985890  0.00060340  0.75118277  1
  V  V76  1  0.12386728  -0.00087584  0.62692777  1
  V  V77  1  0.50005771  0.62546890  0.62442934  1
  V  V78  1  0.50004256  0.50040162  -0.00057501  1
  V  V79  1  0.37484980  0.75026350  0.12579215  1
  V  V80  1  0.49941702  -0.00072084  0.00026883  1
  V  V81  1  0.87556264  0.25034486  0.12648686  1
  V  V82  1  0.49867102  0.74876429  0.74943049  1
  V  V83  1  0.37513912  0.62467321  0.24924503  1
  V  V84  1  0.37655025  0.49950782  0.37357898  1
  V  V85  1  0.24836291  0.12530959  0.37661837  1
  V  V86  1  0.74980601  0.37742878  0.12547082  1
  V  V87  1  0.87507089  0.37575551  0.49932808  1
  V  V88  1  0.00101198  -0.00012787  0.00067789  1
  V  V89  1  0.12564217  0.12444987  0.00073761  1
  V  V90  1  0.50079734  0.25083916  0.75054198  1
  V  V91  1  0.50068479  0.49976579  0.49855390  1
  V  V92  1  0.37553870  0.37527070  -0.00127098  1
  V  V93  1  0.50148276  0.25035890  0.25004744  1
  V  V94  1  0.49870114  0.12508850  0.12450687  1
  V  V95  1  0.25053196  0.87430242  0.12498403  1
  Zn  Zn96  1  0.25026511  0.62494856  0.37262780  1
  Zn  Zn97  1  -0.00101566  0.62467360  0.62457297  1
  Zn  Zn98  1  0.62444017  0.25162818  0.37450394  1
  Zn  Zn99  1  0.25047600  0.74919614  -0.00095696  1
  Zn  Zn100  1  0.62515493  0.37580589  0.25154070  1
  Zn  Zn101  1  0.12363270  0.25018588  0.37505982  1
  Zn  Zn102  1  0.12679571  0.37450464  0.74842732  1
  Zn  Zn103  1  0.87577732  0.87655196  0.50151784  1
  Zn  Zn104  1  0.00215188  0.87415320  0.87668779  1
  Zn  Zn105  1  0.49985399  0.37681969  0.87408022  1
  Zn  Zn106  1  0.62284465  0.87726607  0.75156265  1
  Zn  Zn107  1  0.00132521  0.24923107  0.25057433  1
  Zn  Zn108  1  0.12569637  0.49897165  0.12454457  1
  Zn  Zn109  1  -0.00295939  -0.00182164  0.50106724  1
  Zn  Zn110  1  0.37515361  0.74781583  0.62452849  1
  Zn  Zn111  1  0.49762703  0.87453826  0.87455527  1
  Zn  Zn112  1  0.87555482  0.62721995  0.24891608  1
  Zn  Zn113  1  0.49899353  0.75238843  0.25327037  1
  Zn  Zn114  1  0.37413076  0.12426516  0.24983885  1
  Zn  Zn115  1  0.25122573  0.49626849  0.74675739  1
  Zn  Zn116  1  0.00040228  0.12665091  0.12703059  1
  Zn  Zn117  1  0.74966915  0.12508349  0.87621495  1
  Zn  Zn118  1  0.37365726  0.62184425  0.74611527  1
  Zn  Zn119  1  0.87577981  0.75319004  0.12484945  1
  Zn  Zn120  1  0.25081393  -0.00167575  0.75049925  1
  Zn  Zn121  1  0.87803219  0.87540772  0.00204661  1
  Zn  Zn122  1  0.75026947  0.62526173  0.87615213  1
  Zn  Zn123  1  0.37808706  0.87267739  0.50216225  1
  Zn  Zn124  1  0.24989175  0.37288325  0.62580524  1
  Zn  Zn125  1  0.50257801  0.37385723  0.37307895  1
  Zn  Zn126  1  0.50053040  0.87414641  0.37757200  1
  Zn  Zn127  1  0.25001554  0.25078069  0.50081975  1
  Zn  Zn128  1  0.18669277  0.18800455  0.18892578  1
  Zn  Zn129  1  0.18960646  0.18872234  0.68756468  1
  Zn  Zn130  1  0.18784917  0.68693906  0.18665636  1
  Zn  Zn131  1  0.18458113  0.68448396  0.68631264  1
  Zn  Zn132  1  0.68748741  0.18826094  0.18636090  1
  Zn  Zn133  1  0.68843223  0.18662027  0.68836093  1
  Zn  Zn134  1  0.68708960  0.68867307  0.18916060  1
  Zn  Zn135  1  0.68719056  0.68693739  0.68894122  1
  Zn  Zn136  1  0.31466049  0.31140069  0.31279176  1
  Zn  Zn137  1  0.31113304  0.31436399  0.81018899  1
  Zn  Zn138  1  0.31221791  0.81255222  0.31212939  1
  Zn  Zn139  1  0.31332226  0.80985071  0.81296581  1
  Zn  Zn140  1  0.81211941  0.31374117  0.31207138  1
  Zn  Zn141  1  0.81215385  0.31242425  0.81353713  1
  Zn  Zn142  1  0.81343203  0.81227731  0.31107922  1
  Zn  Zn143  1  0.81229322  0.81481993  0.81298775  1
  Zn  Zn144  1  0.18988229  0.43825213  0.43595354  1
  Zn  Zn145  1  0.18643973  0.43737633  0.93758161  1
  Zn  Zn146  1  0.18406912  0.93750361  0.43911067  1
  Zn  Zn147  1  0.18933811  0.93667550  0.93730203  1
  Zn  Zn148  1  0.68661410  0.43603957  0.43432258  1
  Zn  Zn149  1  0.68746895  0.43711891  0.93722373  1
  Zn  Zn150  1  0.68849929  0.93750698  0.43961716  1
  Zn  Zn151  1  0.68703121  0.93729776  0.93763658  1
  Zn  Zn152  1  0.31250305  0.06189431  0.06213481  1
  Zn  Zn153  1  0.31158852  0.06079496  0.56358689  1
  Zn  Zn154  1  0.31226722  0.56252941  0.06143762  1
  Zn  Zn155  1  0.31292098  0.56319714  0.56052421  1
  Zn  Zn156  1  0.81210216  0.06430916  0.06344978  1
  Zn  Zn157  1  0.81279972  0.06176272  0.56252398  1
  Zn  Zn158  1  0.81358949  0.56446485  0.06169801  1
  Zn  Zn159  1  0.81298575  0.56370647  0.56309982  1
  Zn  Zn160  1  0.43788403  0.43666847  0.18554234  1
  Zn  Zn161  1  0.43776757  0.43798421  0.68675277  1
  Zn  Zn162  1  0.43754250  0.93704096  0.19026607  1
  Zn  Zn163  1  0.43646093  0.93557320  0.68802862  1
  Zn  Zn164  1  0.93789816  0.43899746  0.18819838  1
  Zn  Zn165  1  0.93987764  0.43732615  0.68733389  1
  Zn  Zn166  1  0.93627862  0.93858757  0.18699163  1
  Zn  Zn167  1  0.93807365  0.93587834  0.68958421  1
  Zn  Zn168  1  0.05978662  0.06180847  0.31182661  1
  Zn  Zn169  1  0.06335340  0.06146374  0.81278066  1
  Zn  Zn170  1  0.06451359  0.56163684  0.31113622  1
  Zn  Zn171  1  0.06121070  0.56163052  0.80951687  1
  Zn  Zn172  1  0.56137407  0.06445432  0.31359526  1
  Zn  Zn173  1  0.56169469  0.06378415  0.81409009  1
  Zn  Zn174  1  0.56286274  0.56358965  0.31189052  1
  Zn  Zn175  1  0.56301999  0.56439813  0.81339871  1
  Zn  Zn176  1  0.43781448  0.18598039  0.43676553  1
  Zn  Zn177  1  0.43879099  0.18759559  0.93608040  1
  Zn  Zn178  1  0.43758323  0.68680692  0.43588471  1
  Zn  Zn179  1  0.43577601  0.68662268  0.93808048  1
  Zn  Zn180  1  0.93774728  0.18833112  0.43623399  1
  Zn  Zn181  1  0.93798376  0.18599962  0.93973719  1
  Zn  Zn182  1  0.93719922  0.68871058  0.43826158  1
  Zn  Zn183  1  0.93690456  0.68711144  0.93570117  1
  Zn  Zn184  1  0.06208297  0.31166855  0.06412619  1
  Zn  Zn185  1  0.06154839  0.31202362  0.56030511  1
  Zn  Zn186  1  0.06459823  0.81251997  0.05984770  1
  Zn  Zn187  1  0.06025122  0.81219208  0.56215841  1
  Zn  Zn188  1  0.56272053  0.31468102  0.06300914  1
  Zn  Zn189  1  0.56158653  0.31239754  0.56281484  1
  Zn  Zn190  1  0.56113934  0.81400288  0.06542794  1
  Zn  Zn191  1  0.56434855  0.81423137  0.56333557  1
  O  O192  1  0.12608771  0.11794219  0.11865052  1
  O  O193  1  0.12109078  0.11981565  0.61902877  1
  O  O194  1  0.11521064  0.62388570  0.11749945  1
  O  O195  1  0.12184865  0.61505889  0.61666654  1
  O  O196  1  0.61917497  0.11930399  0.11893428  1
  O  O197  1  0.61970460  0.11980979  0.62041868  1
  O  O198  1  0.61933790  0.62075752  0.12024769  1
  O  O199  1  0.62108026  0.61899946  0.61889028  1
  O  O200  1  0.37862872  0.37985052  0.38359875  1
  O  O201  1  0.37625372  0.38175298  0.88162445  1
  O  O202  1  0.37369344  0.88797642  0.37840233  1
  O  O203  1  0.37519273  0.88057925  0.88213042  1
  O  O204  1  0.87956439  0.38208622  0.38078546  1
  O  O205  1  0.88071408  0.37954691  0.88121587  1
  O  O206  1  0.88026710  0.88221021  0.37490627  1
  O  O207  1  0.87688149  0.88895906  0.87684227  1
  O  O208  1  0.25523320  0.00615799  0.37251417  1
  O  O209  1  0.25724399  0.00708752  0.87371551  1
  O  O210  1  0.25899900  0.50179792  0.36715487  1
  O  O211  1  0.25512079  0.50819846  0.87449350  1
  O  O212  1  0.75425423  0.00650145  0.36970673  1
  O  O213  1  0.75853899  0.00188169  0.87110533  1
  O  O214  1  0.75527810  0.50614014  0.37025901  1
  O  O215  1  0.75646675  0.50042635  0.86867958  1
  O  O216  1  0.25006024  0.49233233  0.13031002  1
  O  O217  1  0.23815286  0.49949925  0.62266167  1
  O  O218  1  0.24495858  0.99459766  0.13103804  1
  O  O219  1  0.24349822  0.98831111  0.62592060  1
  O  O220  1  0.74607274  0.49733313  0.12903390  1
  O  O221  1  0.74518856  0.49385825  0.63005982  1
  O  O222  1  0.74309407  0.99658750  0.13061754  1
  O  O223  1  0.74553953  0.99617153  0.63171961  1
  O  O224  1  0.00788930  0.37618688  0.25622844  1
  O  O225  1  0.00081767  0.36688302  0.75712779  1
  O  O226  1  0.00560020  0.86998026  0.25370223  1
  O  O227  1  0.00745517  0.86755710  0.75292374  1
  O  O228  1  0.50091255  0.36244609  0.24821717  1
  O  O229  1  0.50799327  0.36859698  0.74974834  1
  O  O230  1  0.50876094  0.87440498  0.25477787  1
  O  O231  1  0.50184412  0.86228300  0.75174437  1
  O  O232  1  0.49773055  0.13272276  0.24243687  1
  O  O233  1  0.49461816  0.13103477  0.74443240  1
  O  O234  1  0.49314209  0.62645126  0.24281640  1
  O  O235  1  0.50166533  0.63393702  0.74319909  1
  O  O236  1  0.99088507  0.12736479  0.24787956  1
  O  O237  1  0.99480529  0.13037436  0.74500149  1
  O  O238  1  1.00170200  0.63039684  0.23928261  1
  O  O239  1  0.99180228  0.63152784  0.74808413  1
  O  O240  1  0.37011195  0.25500035  0.00395577  1
  O  O241  1  0.37754580  0.25816497  0.50527146  1
  O  O242  1  0.37386286  0.75629305  0.00749766  1
  O  O243  1  0.36239100  0.75165859  0.50021851  1
  O  O244  1  0.86938033  0.25560783  0.00518752  1
  O  O245  1  0.86950901  0.25563877  0.50618436  1
  O  O246  1  0.86264950  0.75284107  -0.00101264  1
  O  O247  1  0.86779540  0.75113059  0.50802363  1
  O  O248  1  0.12755856  0.23653627  0.49866217  1
  O  O249  1  0.13089392  0.24447100  0.99485490  1
  O  O250  1  0.13117283  0.74519880  0.49459700  1
  O  O251  1  0.12750789  0.74189058  0.99131747  1
  O  O252  1  0.63145446  0.24315731  0.50129958  1
  O  O253  1  0.62956280  0.24590178  0.99579128  1
  O  O254  1  0.63162218  0.74408266  0.49596970  1
  O  O255  1  0.63061772  0.74682408  0.99422820  1
  O  O256  1  0.49474237  0.24453035  0.13024958  1
  O  O257  1  0.49520546  0.24340116  0.63102865  1
  O  O258  1  0.49344876  0.74345599  0.12776488  1
  O  O259  1  0.50172605  0.74428322  0.63337751  1
  O  O260  1  0.99054424  0.24809109  0.12742952  1
  O  O261  1  0.99428739  0.24418866  0.63012690  1
  O  O262  1  1.00089292  0.74199485  0.12823307  1
  O  O263  1  0.99289040  0.74846368  0.63217491  1
  O  O264  1  0.00178933  0.25970948  0.37323258  1
  O  O265  1  0.00458739  0.25376851  0.87084092  1
  O  O266  1  0.00485740  0.75517875  0.36811694  1
  O  O267  1  0.00662267  0.75097333  0.86834584  1
  O  O268  1  0.50022561  0.24792577  0.36213185  1
  O  O269  1  0.50691132  0.25219191  0.86801107  1
  O  O270  1  0.50904862  0.75284605  0.37461098  1
  O  O271  1  0.50769898  0.74856979  0.86801192  1
  O  O272  1  0.24061863  0.12272383  0.49274026  1
  O  O273  1  0.24523312  0.13043354  0.99421710  1
  O  O274  1  0.24359788  0.63565259  0.49773127  1
  O  O275  1  0.24368522  0.62425101  0.98890040  1
  O  O276  1  0.74495879  0.13079741  0.49612734  1
  O  O277  1  0.74225569  0.13259822  1.00012149  1
  O  O278  1  0.74448911  0.63044225  0.49511459  1
  O  O279  1  0.74366579  0.63645387  0.99984602  1
  O  O280  1  0.25518339  0.36875856  0.00477145  1
  O  O281  1  0.26456293  0.37333036  0.49988473  1
  O  O282  1  0.25705253  0.87382138  0.00792800  1
  O  O283  1  0.24602041  0.86567975  0.50927186  1
  O  O284  1  0.75615513  0.37073363  0.00578960  1
  O  O285  1  0.75582124  0.37056664  0.50562852  1
  O  O286  1  0.74873307  0.86664519  0.00652494  1
  O  O287  1  0.75157531  0.86827312  0.50888421  1
  O  O288  1  0.13353895  0.49186196  0.24796804  1
  O  O289  1  0.12400576  0.49800087  0.73626294  1
  O  O290  1  0.12980287  0.99427879  0.24478596  1
  O  O291  1  0.12803620  0.99246871  0.74447298  1
  O  O292  1  0.63219825  0.50076320  0.24215141  1
  O  O293  1  0.63026760  0.49526368  0.74456079  1
  O  O294  1  0.63005079  0.99687778  0.24498532  1
  O  O295  1  0.63074898  1.00073299  0.74515912  1
  O  O296  1  0.36792153  0.00163457  0.26046547  1
  O  O297  1  0.37424098  0.00643836  0.75633548  1
  O  O298  1  0.37116372  0.50433187  0.25347755  1
  O  O299  1  0.37363571  0.50238813  0.75784401  1
  O  O300  1  0.86731089  0.00670252  0.25515617  1
  O  O301  1  0.87104945  0.00518121  0.75870156  1
  O  O302  1  0.86859219  0.50341315  0.25677201  1
  O  O303  1  0.87012569  0.50382100  0.75456166  1
  O  O304  1  0.12018345  0.37407687  0.36924518  1
  O  O305  1  0.11750118  0.36712479  0.87533745  1
  O  O306  1  0.11852590  0.87030838  0.36848387  1
  O  O307  1  0.12751925  0.86688982  0.86791982  1
  O  O308  1  0.62063385  0.36961051  0.37028705  1
  O  O309  1  0.62360275  0.36898122  0.86795203  1
  O  O310  1  0.62593233  0.86979638  0.36988592  1
  O  O311  1  0.62055413  0.86296428  0.87496051  1
  O  O312  1  0.38052497  0.13104636  0.12527311  1
  O  O313  1  0.38070386  0.12883252  0.62997436  1
  O  O314  1  0.37981233  0.63028544  0.12918821  1
  O  O315  1  0.38384660  0.62707494  0.62566210  1
  O  O316  1  0.87424863  0.13232627  0.13233757  1
  O  O317  1  0.88058325  0.13023710  0.63053584  1
  O  O318  1  0.88886928  0.62842886  0.12406654  1
  O  O319  1  0.87548482  0.63172574  0.63257175  1
  O  O320  1  0.25570865  0.25429134  0.11896033  1
  O  O321  1  0.25978491  0.25083511  0.62052141  1
  O  O322  1  0.25611940  0.75682837  0.12303687  1
  O  O323  1  0.24764406  0.75635831  0.61565818  1
  O  O324  1  0.75508906  0.25734900  0.11935146  1
  O  O325  1  0.75624155  0.25540357  0.62017078  1
  O  O326  1  0.74861795  0.75629854  0.11530400  1
  O  O327  1  0.75394224  0.75514026  0.62177325  1
  O  O328  1  0.25085956  0.23523164  0.37741473  1
  O  O329  1  0.24503413  0.24421490  0.88079633  1
  O  O330  1  0.24240200  0.75154879  0.38404700  1
  O  O331  1  0.24463911  0.73795549  0.87541377  1
  O  O332  1  0.74956200  0.24369616  0.38228909  1
  O  O333  1  0.74396009  0.24879769  0.88235856  1
  O  O334  1  0.74543175  0.74492070  0.38104421  1
  O  O335  1  0.74034524  0.75094979  0.88378450  1
  O  O336  1  0.00823544  0.11773421  0.00258600  1
  O  O337  1  0.00886365  0.12405430  0.50622242  1
  O  O338  1  0.00467343  0.61992878  0.00530959  1
  O  O339  1  0.00609212  0.61828697  0.50054764  1
  O  O340  1  0.50515811  0.11962382  0.00548347  1
  O  O341  1  0.50525534  0.11949462  0.50666960  1
  O  O342  1  0.50534629  0.62038126  0.00645942  1
  O  O343  1  0.50683983  0.61982131  0.50483523  1
  O  O344  1  0.49092876  0.38089295  0.49956657  1
  O  O345  1  0.49355541  0.38260757  0.99895482  1
  O  O346  1  0.49778115  0.88384135  0.49913170  1
  O  O347  1  0.49289832  0.88233333  1.00066048  1
  O  O348  1  0.99361766  0.38046152  0.49336923  1
  O  O349  1  0.99415400  0.37983058  0.99499143  1
  O  O350  1  0.99745624  0.87702665  0.49110182  1
  O  O351  1  0.99905704  0.88428896  0.99693786  1
  O  O352  1  0.49442333  0.49900088  0.38136890  1
  O  O353  1  0.49348849  0.50074483  0.88189423  1
  O  O354  1  0.48964164  1.00211826  0.38200059  1
  O  O355  1  0.49364275  0.99854927  0.88225651  1
  O  O356  1  0.99482363  0.49502562  0.37958616  1
  O  O357  1  0.99410588  0.49387496  0.87975983  1
  O  O358  1  0.99258503  0.99303024  0.37523255  1
  O  O359  1  0.99184827  0.99967567  0.88162768  1
  O  O360  1  0.00744091  0.00171132  0.11851190  1
  O  O361  1  0.00581504  0.00666888  0.62559318  1
  O  O362  1  0.00139341  0.50939971  0.11806768  1
  O  O363  1  0.00810169  0.50038004  0.61654028  1
  O  O364  1  0.50455108  0.00559182  0.12052751  1
  O  O365  1  0.50496412  0.00561889  0.62167489  1
  O  O366  1  0.50544186  0.50638612  0.11879869  1
  O  O367  1  0.50730332  0.50550611  0.61873037  1
  O  O368  1  0.24652449  0.37906293  0.24477191  1
  O  O369  1  0.24450799  0.37835389  0.74430906  1
  O  O370  1  0.24332406  0.88066397  0.24510225  1
  O  O371  1  0.24434224  0.87166964  0.73920134  1
  O  O372  1  0.74946031  0.38340102  0.24253756  1
  O  O373  1  0.74547614  0.37984709  0.74357098  1
  O  O374  1  0.74391313  0.88195732  0.24485003  1
  O  O375  1  0.74680578  0.88272180  0.74480178  1
  O  O376  1  0.24942467  0.11782960  0.26117515  1
  O  O377  1  0.25740247  0.12345150  0.75648150  1
  O  O378  1  0.25683429  0.61778609  0.24940433  1
  O  O379  1  0.24980685  0.62183669  0.76111824  1
  O  O380  1  0.75371340  0.12005872  0.25557508  1
  O  O381  1  0.75792881  0.11898615  0.75198369  1
  O  O382  1  0.75219572  0.61965024  0.25647308  1
  O  O383  1  0.75561588  0.61750257  0.75229860  1
  O  O384  1  0.36459331  0.11382840  0.37693230  1
  O  O385  1  0.37044227  0.11983928  0.86993331  1
  O  O386  1  0.37325685  0.61788085  0.36752384  1
  O  O387  1  0.36493272  0.61841664  0.87521795  1
  O  O388  1  0.86839957  0.12046999  0.36991673  1
  O  O389  1  0.87457450  0.11488501  0.87004165  1
  O  O390  1  0.86875100  0.61883392  0.37469515  1
  O  O391  1  0.87228787  0.61719131  0.86875191  1
  O  O392  1  0.13258683  0.37574810  0.13148288  1
  O  O393  1  0.12620629  0.38545737  0.62154324  1
  O  O394  1  0.13083594  0.88039165  0.13021058  1
  O  O395  1  0.13193112  0.87821400  0.63023605  1
  O  O396  1  0.63266495  0.38405645  0.12491452  1
  O  O397  1  0.63137071  0.38032784  0.62987141  1
  O  O398  1  0.62992506  0.88220086  0.13165956  1
  O  O399  1  0.63235166  0.88328765  0.62798672  1
  O  O400  1  0.12394243  0.25914148  0.25349566  1
  O  O401  1  0.11770921  0.24920717  0.75673507  1
  O  O402  1  0.12034298  0.75623869  0.25460379  1
  O  O403  1  0.11872053  0.75298533  0.75427597  1
  O  O404  1  0.61317690  0.25088300  0.24871672  1
  O  O405  1  0.62086894  0.25497541  0.75435383  1
  O  O406  1  0.62517709  0.75784370  0.25768117  1
  O  O407  1  0.61718144  0.74961436  0.75998512  1
  O  O408  1  0.38335468  0.24664747  0.24268605  1
  O  O409  1  0.38138669  0.24445857  0.74461499  1
  O  O410  1  0.37556512  0.74373956  0.24426255  1
  O  O411  1  0.38715403  0.74514176  0.74917119  1
  O  O412  1  0.87431271  0.24468146  0.24337397  1
  O  O413  1  0.88019958  0.24456420  0.74503628  1
  O  O414  1  0.88369062  0.74732983  0.24605553  1
  O  O415  1  0.87863838  0.74484770  0.74690505  1
  O  O416  1  0.38112352  0.49270742  0.49446176  1
  O  O417  1  0.38044052  0.49485632  0.99393796  1
  O  O418  1  0.37992456  0.99854136  0.49304633  1
  O  O419  1  0.38039955  0.99490854  0.99513054  1
  O  O420  1  0.87966116  0.49478307  0.49492271  1
  O  O421  1  0.87990121  0.49454712  0.99406042  1
  O  O422  1  0.87653054  0.99847587  0.49167264  1
  O  O423  1  0.88073501  1.00154788  0.99232317  1
  O  O424  1  0.12095582  0.00497810  0.00457117  1
  O  O425  1  0.12217825  0.00990491  0.50723069  1
  O  O426  1  0.11729969  0.50601839  0.00083449  1
  O  O427  1  0.12016116  0.50483880  0.50413463  1
  O  O428  1  0.61957374  0.00526823  0.00593906  1
  O  O429  1  0.62043985  0.00683891  0.50714639  1
  O  O430  1  0.62084433  0.50689382  0.00466156  1
  O  O431  1  0.62123798  0.50526962  0.50530105  1
  O  O432  1  0.36907203  0.36881524  0.11792280  1
  O  O433  1  0.37632551  0.36962423  0.61434228  1
  O  O434  1  0.36947284  0.87078507  0.12151707  1
  O  O435  1  0.36162625  0.87157903  0.62334880  1
  O  O436  1  0.86961281  0.37151879  0.11910227  1
  O  O437  1  0.87055684  0.36954250  0.61930078  1
  O  O438  1  0.86558339  0.87436688  0.12231309  1
  O  O439  1  0.86777474  0.86830934  0.62619755  1
  O  O440  1  0.13261038  0.12222405  0.38380843  1
  O  O441  1  0.13104838  0.13020356  0.88057895  1
  O  O442  1  0.12708738  0.63217508  0.38004801  1
  O  O443  1  0.13165680  0.62753387  0.87786616  1
  O  O444  1  0.63161781  0.12651051  0.38289415  1
  O  O445  1  0.62633725  0.13228041  0.88248227  1
  O  O446  1  0.63168970  0.63056484  0.38097243  1
  O  O447  1  0.62665668  0.63608081  0.88218790  1
