# generated using pymatgen
data_V3Zn3O8
_symmetry_space_group_name_H-M   'P 1'
_cell_length_a   17.08606384
_cell_length_b   17.08741485
_cell_length_c   17.08689994
_cell_angle_alpha   89.99421921
_cell_angle_beta   89.99535510
_cell_angle_gamma   89.99889458
_symmetry_Int_Tables_number   1
_chemical_formula_structural   V3Zn3O8
_chemical_formula_sum   'V96 Zn96 O256'
_cell_volume   4988.63420987
_cell_formula_units_Z   32
loop_
 _symmetry_equiv_pos_site_id
 _symmetry_equiv_pos_as_xyz
  1  'x, y, z'
loop_
 _atom_site_type_symbol
 _atom_site_label
 _atom_site_symmetry_multiplicity
 _atom_site_fract_x
 _atom_site_fract_y
 _atom_site_fract_z
 _atom_site_occupancy
  V  V0  1  -0.00033360  0.50042960  0.00022890  1
  V  V1  1  0.87545205  0.25027905  0.62452185  1
  V  V2  1  0.24862539  0.74936217  0.49889187  1
  V  V3  1  0.12473446  -0.00052008  0.62332177  1
  V  V4  1  0.24969746  0.49952376  0.75126821  1
  V  V5  1  0.75060383  0.24941671  -0.00069258  1
  V  V6  1  0.49977404  0.87516998  0.37636375  1
  V  V7  1  0.87496364  0.74937138  0.62413831  1
  V  V8  1  0.37565926  0.24953141  0.62655160  1
  V  V9  1  0.24909511  0.62548073  0.37550384  1
  V  V10  1  0.37653211  0.12658028  0.25149308  1
  V  V11  1  0.37563689  0.37599327  0.50117213  1
  V  V12  1  0.12361226  0.50100554  0.62531033  1
  V  V13  1  0.74814094  0.62554206  0.87690671  1
  V  V14  1  0.87495569  0.87471245  0.49873392  1
  V  V15  1  0.37530997  0.49913155  0.87569810  1
  V  V16  1  0.49946301  0.00007713  0.50166088  1
  V  V17  1  0.62593561  0.12583981  0.49886730  1
  V  V18  1  0.24999110  -0.00020831  0.75008813  1
  V  V19  1  0.37508167  0.62597267  0.25060979  1
  V  V20  1  0.24870405  0.87373801  0.62425140  1
  V  V21  1  0.37453222  0.87442202  0.50055875  1
  V  V22  1  0.50413974  0.12353361  0.12470307  1
  V  V23  1  0.62717016  0.37617969  0.25073979  1
  V  V24  1  0.49924101  0.12433932  0.62583308  1
  V  V25  1  0.50037580  0.24905300  0.75046830  1
  V  V26  1  0.87345862  0.87443088  -0.00047565  1
  V  V27  1  0.24844948  -0.00009481  0.24747658  1
  V  V28  1  0.62719456  0.62622511  0.49926329  1
  V  V29  1  0.50044845  0.50017639  0.50062471  1
  V  V30  1  0.37465841  0.00069813  0.37614355  1
  V  V31  1  0.37633214  0.25095256  0.12543774  1
  V  V32  1  0.24987071  0.37496557  0.62612521  1
  V  V33  1  0.49789466  0.74906332  0.75074699  1
  V  V34  1  0.25137985  0.12637286  0.37544111  1
  V  V35  1  0.50121972  0.37599081  0.37565753  1
  V  V36  1  0.62556666  0.24900902  0.87504535  1
  V  V37  1  0.12533387  0.12420484  0.50017121  1
  V  V38  1  0.87486195  0.37419353  0.00054682  1
  V  V39  1  -0.00011078  0.87496462  0.87353313  1
  V  V40  1  -0.00022785  0.25008700  0.74909284  1
  V  V41  1  0.62565224  0.74957974  0.37589388  1
  V  V42  1  0.74847540  0.00007084  0.24815917  1
  V  V43  1  0.87612624  0.37439681  0.49962572  1
  V  V44  1  0.37318298  0.75047474  0.12581799  1
  V  V45  1  0.87357100  0.62563625  0.74971884  1
  V  V46  1  0.12599924  0.24955933  0.87492311  1
  V  V47  1  0.87572093  0.50028434  0.37333882  1
  V  V48  1  0.37437889  0.62452814  0.75052858  1
  V  V49  1  0.00191346  0.37317634  0.37336952  1
  V  V50  1  0.25027965  0.37567195  0.12596236  1
  V  V51  1  0.37346300  0.87483921  0.00136916  1
  V  V52  1  0.12410192  0.62473340  -0.00036414  1
  V  V53  1  0.74969122  -0.00030760  0.74905087  1
  V  V54  1  0.50134295  0.25153913  0.25179466  1
  V  V55  1  0.12452156  0.37462758  0.75032815  1
  V  V56  1  0.87505924  0.00057826  0.37295147  1
  V  V57  1  0.62566205  0.49986577  0.62620038  1
  V  V58  1  0.62379350  0.75012325  0.87616277  1
  V  V59  1  0.75028991  0.37458652  0.62495035  1
  V  V60  1  0.25025165  0.24926643  -0.00016386  1
  V  V61  1  0.00051070  0.12461724  0.12364731  1
  V  V62  1  0.12427944  0.75010105  0.87489699  1
  V  V63  1  0.24875224  0.62499628  0.87669556  1
  V  V64  1  0.49900572  0.75050976  0.25110286  1
  V  V65  1  0.62468173  0.50123876  0.12498530  1
  V  V66  1  0.87304165  0.50100357  0.87515801  1
  V  V67  1  0.87543837  0.24947852  0.12416421  1
  V  V68  1  0.87540293  0.12559213  0.74818938  1
  V  V69  1  0.00079691  0.00007230  0.49821949  1
  V  V70  1  0.25058750  0.25037008  0.50091948  1
  V  V71  1  0.12583983  0.25082536  0.37445109  1
  V  V72  1  0.62481945  0.87549240  0.25011147  1
  V  V73  1  0.00017696  0.87432403  0.37217368  1
  V  V74  1  0.49888408  0.87413791  0.87454360  1
  V  V75  1  -0.00093285  0.62422034  0.62513935  1
  V  V76  1  0.87558957  0.62398979  0.24952720  1
  V  V77  1  -0.00085999  0.37543289  0.87507169  1
  V  V78  1  0.37477170  0.00050060  0.87462815  1
  V  V79  1  0.37549113  0.37453913  0.00025667  1
  V  V80  1  0.00014970  0.75037200  0.24900012  1
  V  V81  1  0.87552679  0.12509571  0.24886842  1
  V  V82  1  0.74895904  0.87571726  0.62476610  1
  V  V83  1  0.75001414  0.12530248  0.87454608  1
  V  V84  1  0.87524013  -0.00002457  0.87365282  1
  V  V85  1  0.24972718  0.49894991  0.24972760  1
  V  V86  1  0.37448508  0.74836832  0.62570755  1
  V  V87  1  0.00010441  0.62443977  0.12339757  1
  V  V88  1  0.00094898  0.00062669  -0.00112529  1
  V  V89  1  0.37467266  0.50098048  0.37601621  1
  V  V90  1  0.50037011  0.50002798  0.00044749  1
  V  V91  1  0.87321697  0.75080397  0.12321311  1
  V  V92  1  0.50105887  0.37328790  0.87481769  1
  V  V93  1  0.12366683  0.87435867  0.74960276  1
  V  V94  1  0.12473068  0.75001080  0.37323086  1
  V  V95  1  0.12581337  0.12489599  -0.00068502  1
  Zn  Zn96  1  0.12601027  0.37412661  0.24781206  1
  Zn  Zn97  1  0.49966767  0.62551078  0.12450685  1
  Zn  Zn98  1  0.37445971  0.12459243  0.75107280  1
  Zn  Zn99  1  0.12379714  0.62402106  0.50036266  1
  Zn  Zn100  1  0.75042448  0.12849313  0.37474289  1
  Zn  Zn101  1  0.75271187  0.62701333  0.37393560  1
  Zn  Zn102  1  0.75115207  0.24794006  0.49780661  1
  Zn  Zn103  1  0.62843469  0.25215428  0.37701639  1
  Zn  Zn104  1  0.62341785  0.87597085  0.74940069  1
  Zn  Zn105  1  0.12561166  -0.00170578  0.12301879  1
  Zn  Zn106  1  0.62529624  0.37459863  0.75032588  1
  Zn  Zn107  1  0.50249706  0.00101643  -0.00029132  1
  Zn  Zn108  1  0.25095604  0.12547195  0.87429182  1
  Zn  Zn109  1  0.12458916  0.87539550  0.24542096  1
  Zn  Zn110  1  0.00216331  0.24836498  0.24800151  1
  Zn  Zn111  1  0.62275668  -0.00127328  0.62698385  1
  Zn  Zn112  1  0.75099163  0.50106599  0.24875066  1
  Zn  Zn113  1  0.75214835  0.37542917  0.12551806  1
  Zn  Zn114  1  0.24808369  0.74983923  0.00163869  1
  Zn  Zn115  1  0.62404398  -0.00295636  0.12186976  1
  Zn  Zn116  1  0.74809537  0.49967178  0.75171087  1
  Zn  Zn117  1  0.24695999  0.87563044  0.12498041  1
  Zn  Zn118  1  -0.00113642  0.75073189  0.74909244  1
  Zn  Zn119  1  0.75075403  0.75053227  0.49831492  1
  Zn  Zn120  1  0.74670720  0.87334257  0.12266998  1
  Zn  Zn121  1  0.74708863  0.75224137  0.00213241  1
  Zn  Zn122  1  0.49986776  0.62471241  0.62650079  1
  Zn  Zn123  1  0.00255662  0.50124033  0.49964034  1
  Zn  Zn124  1  0.62241352  0.62627350  0.00247763  1
  Zn  Zn125  1  0.00008926  0.12550146  0.62345244  1
  Zn  Zn126  1  0.12503209  0.49858766  0.12570831  1
  Zn  Zn127  1  0.62665831  0.12185777  0.00008481  1
  Zn  Zn128  1  0.18679208  0.18782792  0.18667962  1
  Zn  Zn129  1  0.18807129  0.18512458  0.68842992  1
  Zn  Zn130  1  0.18669321  0.68564510  0.18770087  1
  Zn  Zn131  1  0.18608082  0.68703129  0.68877014  1
  Zn  Zn132  1  0.68935925  0.18890527  0.18772494  1
  Zn  Zn133  1  0.68621737  0.18715466  0.68638681  1
  Zn  Zn134  1  0.68927814  0.68652827  0.18940606  1
  Zn  Zn135  1  0.68802442  0.68887451  0.68927587  1
  Zn  Zn136  1  0.31351137  0.31386525  0.31266609  1
  Zn  Zn137  1  0.31322414  0.31178549  0.81266739  1
  Zn  Zn138  1  0.31124153  0.81429680  0.31273609  1
  Zn  Zn139  1  0.30996829  0.81184830  0.81283226  1
  Zn  Zn140  1  0.81169393  0.31024274  0.31204158  1
  Zn  Zn141  1  0.81176352  0.31273479  0.81105848  1
  Zn  Zn142  1  0.81148004  0.81195764  0.31081724  1
  Zn  Zn143  1  0.81184292  0.81188515  0.81117345  1
  Zn  Zn144  1  0.18706642  0.43857890  0.43878675  1
  Zn  Zn145  1  0.18670380  0.43707579  0.93917554  1
  Zn  Zn146  1  0.18651591  0.93610086  0.43467933  1
  Zn  Zn147  1  0.18801668  0.93711663  0.93700295  1
  Zn  Zn148  1  0.69065842  0.43874343  0.43831436  1
  Zn  Zn149  1  0.68692832  0.43586488  0.93950284  1
  Zn  Zn150  1  0.68742345  0.93995512  0.43693452  1
  Zn  Zn151  1  0.68670021  0.93852719  0.93836615  1
  Zn  Zn152  1  0.31489338  0.06468043  0.06255736  1
  Zn  Zn153  1  0.31251383  0.06280907  0.56388884  1
  Zn  Zn154  1  0.31200740  0.56269433  0.06312980  1
  Zn  Zn155  1  0.31050888  0.56339649  0.56321986  1
  Zn  Zn156  1  0.81307131  0.06194507  0.06223704  1
  Zn  Zn157  1  0.81260078  0.06161678  0.56196956  1
  Zn  Zn158  1  0.81063159  0.56285168  0.06219643  1
  Zn  Zn159  1  0.81310051  0.56096955  0.56030978  1
  Zn  Zn160  1  0.43852751  0.43847623  0.18800760  1
  Zn  Zn161  1  0.43901395  0.43668690  0.68869809  1
  Zn  Zn162  1  0.43687708  0.93840215  0.18886504  1
  Zn  Zn163  1  0.43679628  0.93595627  0.68818472  1
  Zn  Zn164  1  0.93970569  0.43610379  0.18738785  1
  Zn  Zn165  1  0.93635929  0.43978529  0.68891398  1
  Zn  Zn166  1  0.93624710  0.93727766  0.18460307  1
  Zn  Zn167  1  0.93774582  0.93821801  0.68588692  1
  Zn  Zn168  1  0.06281822  0.06403824  0.31179141  1
  Zn  Zn169  1  0.06294154  0.06352663  0.81142309  1
  Zn  Zn170  1  0.06387244  0.56230619  0.31044727  1
  Zn  Zn171  1  0.06045875  0.56348276  0.81177268  1
  Zn  Zn172  1  0.56348774  0.06243967  0.31417897  1
  Zn  Zn173  1  0.56357385  0.06208819  0.81116343  1
  Zn  Zn174  1  0.56147342  0.56381256  0.31252407  1
  Zn  Zn175  1  0.56143530  0.56279305  0.81260556  1
  Zn  Zn176  1  0.44008983  0.18920058  0.43877302  1
  Zn  Zn177  1  0.43876843  0.18648216  0.93885601  1
  Zn  Zn178  1  0.43877116  0.68708551  0.43873078  1
  Zn  Zn179  1  0.43726820  0.68611015  0.93933148  1
  Zn  Zn180  1  0.93759444  0.18718231  0.43683969  1
  Zn  Zn181  1  0.93789103  0.18723028  0.93678684  1
  Zn  Zn182  1  0.93970514  0.68733385  0.43926667  1
  Zn  Zn183  1  0.93723229  0.68943202  0.93771822  1
  Zn  Zn184  1  0.06330259  0.31202407  0.06256508  1
  Zn  Zn185  1  0.06217594  0.31317617  0.56144049  1
  Zn  Zn186  1  0.06208909  0.81380759  0.06270371  1
  Zn  Zn187  1  0.06110478  0.81089021  0.56070978  1
  Zn  Zn188  1  0.56462337  0.31178250  0.06207138  1
  Zn  Zn189  1  0.56253326  0.31107283  0.56271140  1
  Zn  Zn190  1  0.55997508  0.81399244  0.06324296  1
  Zn  Zn191  1  0.56192187  0.81157728  0.56393922  1
  O  O192  1  0.11882359  0.12413407  0.11672690  1
  O  O193  1  0.12476269  0.11757264  0.61758888  1
  O  O194  1  0.11793387  0.62382602  0.11743329  1
  O  O195  1  0.11797972  0.61843439  0.62645281  1
  O  O196  1  0.61336032  0.12540842  0.12655314  1
  O  O197  1  0.61809365  0.12232400  0.61586079  1
  O  O198  1  0.62212011  0.61412443  0.12514514  1
  O  O199  1  0.62524515  0.61666930  0.61745631  1
  O  O200  1  0.38073271  0.38161351  0.38203892  1
  O  O201  1  0.38046511  0.37989143  0.88107640  1
  O  O202  1  0.38017426  0.88026731  0.38163502  1
  O  O203  1  0.37826992  0.88037240  0.88258040  1
  O  O204  1  0.88367829  0.38051392  0.37811477  1
  O  O205  1  0.87987676  0.38049929  0.87967392  1
  O  O206  1  0.88060552  0.88022574  0.37915326  1
  O  O207  1  0.87990650  0.88062071  0.87826362  1
  O  O208  1  0.25558182  0.00670520  0.36866301  1
  O  O209  1  0.26003444  -0.00100528  0.86917889  1
  O  O210  1  0.25650841  0.50513767  0.37109465  1
  O  O211  1  0.25533344  0.50378180  0.87011065  1
  O  O212  1  0.75638963  0.00133517  0.36394366  1
  O  O213  1  0.75652637  0.00511053  0.86861499  1
  O  O214  1  0.76529025  0.50015593  0.37313483  1
  O  O215  1  0.75317417  0.50897577  0.87483507  1
  O  O216  1  0.25087455  0.49332496  0.13176960  1
  O  O217  1  0.24528512  0.49405121  0.63228326  1
  O  O218  1  0.25246763  1.00146556  0.13718326  1
  O  O219  1  0.24490335  0.99277753  0.62887959  1
  O  O220  1  0.73822991  0.49721603  0.12575122  1
  O  O221  1  0.74152818  0.49188832  0.62487018  1
  O  O222  1  0.74889841  0.99875347  0.13772359  1
  O  O223  1  0.75107519  0.98956939  0.63044772  1
  O  O224  1  0.00267144  0.37159775  0.26228537  1
  O  O225  1  0.00481847  0.37025618  0.75593545  1
  O  O226  1  -0.00040443  0.86855079  0.25509756  1
  O  O227  1  0.00626575  0.87490177  0.75556183  1
  O  O228  1  0.50782949  0.37160322  0.25582899  1
  O  O229  1  0.50131522  0.36760584  0.75712810  1
  O  O230  1  0.50363727  0.87059847  0.25784154  1
  O  O231  1  0.49985750  0.86634673  0.75654584  1
  O  O232  1  0.49559106  0.13107526  0.24516319  1
  O  O233  1  0.49786607  0.13096442  0.74326138  1
  O  O234  1  0.49188766  0.63282557  0.25043923  1
  O  O235  1  0.49162568  0.63051395  0.74922359  1
  O  O236  1  0.99332177  0.12516696  0.24228664  1
  O  O237  1  0.99393016  0.13208438  0.74761848  1
  O  O238  1  0.99478657  0.63034846  0.24324306  1
  O  O239  1  0.99140852  0.62684553  0.74295329  1
  O  O240  1  0.37059468  0.25563653  0.00538940  1
  O  O241  1  0.37013339  0.25647259  0.50619544  1
  O  O242  1  0.37422835  0.75770770  0.00855934  1
  O  O243  1  0.36940727  0.75510624  0.50507572  1
  O  O244  1  0.87058493  0.25518731  0.00382204  1
  O  O245  1  0.87483551  0.25670904  0.50696581  1
  O  O246  1  0.87389399  0.75721478  0.00543758  1
  O  O247  1  0.87321094  0.75689482  0.50562109  1
  O  O248  1  0.13188839  0.24477279  0.49528227  1
  O  O249  1  0.13069964  0.24511841  0.99347023  1
  O  O250  1  0.13185111  0.74919133  0.49199436  1
  O  O251  1  0.12577239  0.74313764  0.99306234  1
  O  O252  1  0.62525925  0.23835043  0.49993180  1
  O  O253  1  0.63252970  0.24780748  0.99321694  1
  O  O254  1  0.62444109  0.74032199  0.49576135  1
  O  O255  1  0.62298886  0.74844588  0.98788718  1
  O  O256  1  0.49549886  0.24409108  0.13157445  1
  O  O257  1  0.49414491  0.24555326  0.63044510  1
  O  O258  1  0.48832983  0.74951993  0.13192116  1
  O  O259  1  0.49227502  0.74807858  0.63192561  1
  O  O260  1  0.99330724  0.24281788  0.12443551  1
  O  O261  1  0.99404864  0.25028141  0.63164075  1
  O  O262  1  0.99335177  0.74379499  0.12923524  1
  O  O263  1  0.99292536  0.74345248  0.62626754  1
  O  O264  1  0.00644806  0.25880900  0.37454904  1
  O  O265  1  0.00533878  0.25633675  0.86909575  1
  O  O266  1  0.00454617  0.75486794  0.36858623  1
  O  O267  1  0.00602469  0.75730866  0.87237492  1
  O  O268  1  0.50195814  0.25886636  0.36942659  1
  O  O269  1  0.50507225  0.25382853  0.87075646  1
  O  O270  1  0.50462750  0.75642390  0.37083868  1
  O  O271  1  0.50513778  0.75366259  0.87071594  1
  O  O272  1  0.24586951  0.13071801  0.49487943  1
  O  O273  1  0.24495286  0.13221411  0.99869438  1
  O  O274  1  0.24895959  0.63209244  0.49321504  1
  O  O275  1  0.24314770  0.62528549  0.99350740  1
  O  O276  1  0.73841534  0.12381965  0.49926113  1
  O  O277  1  0.75154112  0.13145177  0.99201588  1
  O  O278  1  0.73781414  0.62597851  0.49806547  1
  O  O279  1  0.74698189  0.62810104  0.98707178  1
  O  O280  1  0.25638277  0.36935277  0.00518968  1
  O  O281  1  0.25617705  0.36999017  0.50637568  1
  O  O282  1  0.26272752  0.87298326  0.00149939  1
  O  O283  1  0.25531231  0.86959591  0.50418792  1
  O  O284  1  0.75799039  0.36752224  0.00076501  1
  O  O285  1  0.75607115  0.37437929  0.51094757  1
  O  O286  1  0.75847044  0.87337247  0.00126633  1
  O  O287  1  0.75583157  0.87672714  0.50915214  1
  O  O288  1  0.13437087  0.49688878  0.24749253  1
  O  O289  1  0.13022475  0.49362803  0.74638941  1
  O  O290  1  0.13795537  1.00193184  0.24909072  1
  O  O291  1  0.12991121  0.99412779  0.74389891  1
  O  O292  1  0.62314903  0.49226590  0.24263186  1
  O  O293  1  0.62531361  0.49856201  0.73766047  1
  O  O294  1  0.63344759  0.99449879  0.25101422  1
  O  O295  1  0.63377983  0.99618449  0.74749032  1
  O  O296  1  0.36822981  0.00656487  0.25728066  1
  O  O297  1  0.36868921  -0.00217458  0.75993352  1
  O  O298  1  0.37084494  0.50578087  0.25664603  1
  O  O299  1  0.36955805  0.50377051  0.75600422  1
  O  O300  1  0.86704906  0.00450842  0.25349131  1
  O  O301  1  0.87050767  0.00576917  0.75458870  1
  O  O302  1  0.87632130  0.50453012  0.25815695  1
  O  O303  1  0.87163601  0.50741491  0.75800211  1
  O  O304  1  0.11722611  0.36950946  0.37608259  1
  O  O305  1  0.11911685  0.36983045  0.86970291  1
  O  O306  1  0.11803491  0.86827982  0.37084395  1
  O  O307  1  0.11990664  0.87036286  0.86946486  1
  O  O308  1  0.61964211  0.37896388  0.36655819  1
  O  O309  1  0.61877726  0.36836250  0.87330516  1
  O  O310  1  0.61833899  0.86989714  0.37130319  1
  O  O311  1  0.61853061  0.86510754  0.87374315  1
  O  O312  1  0.38416969  0.13201649  0.13168151  1
  O  O313  1  0.38124848  0.13187050  0.62554281  1
  O  O314  1  0.37559075  0.63457179  0.13142004  1
  O  O315  1  0.37551069  0.63030149  0.63208270  1
  O  O316  1  0.88120931  0.12999729  0.12887684  1
  O  O317  1  0.87625864  0.13150163  0.63058537  1
  O  O318  1  0.88071371  0.62962187  0.12879253  1
  O  O319  1  0.87795625  0.62915012  0.62935689  1
  O  O320  1  0.25766284  0.25480866  0.11980006  1
  O  O321  1  0.25483432  0.25589504  0.62060196  1
  O  O322  1  0.26248229  0.75196666  0.12534615  1
  O  O323  1  0.25446205  0.75477262  0.61967506  1
  O  O324  1  0.75742625  0.25149114  0.11741356  1
  O  O325  1  0.75573844  0.26003457  0.62404513  1
  O  O326  1  0.75744166  0.75142817  0.12249934  1
  O  O327  1  0.75528464  0.76010523  0.62367316  1
  O  O328  1  0.24731039  0.24569026  0.38186170  1
  O  O329  1  0.24424864  0.24969908  0.88155654  1
  O  O330  1  0.24555116  0.74512253  0.37916062  1
  O  O331  1  0.24309853  0.74253175  0.87707079  1
  O  O332  1  0.74608701  0.24665452  0.38007511  1
  O  O333  1  0.74597201  0.24479197  0.87882662  1
  O  O334  1  0.74162654  0.74860016  0.37822803  1
  O  O335  1  0.74022099  0.74267334  0.87458541  1
  O  O336  1  0.00544869  0.11972333  0.00328058  1
  O  O337  1  0.00763328  0.11783008  0.50012325  1
  O  O338  1  0.00396061  0.61937820  0.00379717  1
  O  O339  1  0.00294869  0.62196314  0.51027542  1
  O  O340  1  0.50090238  0.12483606  0.01348673  1
  O  O341  1  0.50597555  0.11971949  0.50567870  1
  O  O342  1  0.50144190  0.61542357  0.00277534  1
  O  O343  1  0.51055642  0.61930473  0.50240378  1
  O  O344  1  0.49504685  0.38047822  0.49584223  1
  O  O345  1  0.49414261  0.37913806  0.99454224  1
  O  O346  1  0.49381505  0.87964573  0.49606129  1
  O  O347  1  0.48719432  0.87600887  0.99425104  1
  O  O348  1  0.99523983  0.37661785  0.48887169  1
  O  O349  1  0.99460433  0.37996701  0.99357162  1
  O  O350  1  0.99441306  0.88038500  0.49253598  1
  O  O351  1  0.99394001  0.88146137  0.99241578  1
  O  O352  1  0.49384237  0.49559910  0.38124417  1
  O  O353  1  0.49450641  0.49344765  0.87956890  1
  O  O354  1  0.49299292  0.99456219  0.38082916  1
  O  O355  1  0.48956456  0.99329305  0.87425806  1
  O  O356  1  0.99260832  0.49096472  0.37497497  1
  O  O357  1  0.99320233  0.49476318  0.88006020  1
  O  O358  1  0.99519471  0.99427130  0.37869267  1
  O  O359  1  0.99444688  0.99504916  0.87881933  1
  O  O360  1  0.00025605  0.00721124  0.11619791  1
  O  O361  1  0.00702835  0.00042948  0.61621596  1
  O  O362  1  0.00080427  0.50643789  0.11766196  1
  O  O363  1  0.00559175  0.50603402  0.62466559  1
  O  O364  1  0.49904674  0.01258908  0.12640359  1
  O  O365  1  0.49922550  0.00466122  0.61904528  1
  O  O366  1  0.50841536  0.50070044  0.11967379  1
  O  O367  1  0.50972213  0.49994341  0.61929418  1
  O  O368  1  0.25157546  0.38137100  0.24386562  1
  O  O369  1  0.24454064  0.38005977  0.74557180  1
  O  O370  1  0.25034440  0.88870964  0.24994351  1
  O  O371  1  0.24362497  0.87987822  0.74338815  1
  O  O372  1  0.73846953  0.37784687  0.24806659  1
  O  O373  1  0.74848387  0.37773508  0.73734727  1
  O  O374  1  0.74378656  0.88489155  0.24925753  1
  O  O375  1  0.75106624  0.88062726  0.73955058  1
  O  O376  1  0.25707730  0.11968618  0.25581072  1
  O  O377  1  0.25355532  0.11592904  0.75306429  1
  O  O378  1  0.25626173  0.61963087  0.25641858  1
  O  O379  1  0.25483180  0.61840267  0.75674872  1
  O  O380  1  0.75549311  0.11573234  0.25094103  1
  O  O381  1  0.75614696  0.12006481  0.75423042  1
  O  O382  1  0.75949313  0.62082939  0.25425948  1
  O  O383  1  0.75406732  0.62375476  0.76145302  1
  O  O384  1  0.37090080  0.12082450  0.37137132  1
  O  O385  1  0.37463073  0.11203104  0.87529744  1
  O  O386  1  0.36975958  0.62033051  0.37094215  1
  O  O387  1  0.36880856  0.61845308  0.87049659  1
  O  O388  1  0.87509108  0.11747718  0.36758751  1
  O  O389  1  0.87027934  0.11984080  0.86776913  1
  O  O390  1  0.87863114  0.61497395  0.36969248  1
  O  O391  1  0.86640910  0.62157090  0.87099322  1
  O  O392  1  0.13405000  0.37652113  0.12616505  1
  O  O393  1  0.13053528  0.37971353  0.63122469  1
  O  O394  1  0.12947218  0.87972925  0.12731955  1
  O  O395  1  0.12985519  0.87965215  0.62867974  1
  O  O396  1  0.62422380  0.38344162  0.13452804  1
  O  O397  1  0.63301953  0.38387432  0.62323129  1
  O  O398  1  0.62483887  0.87640215  0.13452897  1
  O  O399  1  0.63636421  0.87516963  0.62591563  1
  O  O400  1  0.12390736  0.25203201  0.25916938  1
  O  O401  1  0.12040780  0.25576681  0.75446838  1
  O  O402  1  0.11797504  0.75059445  0.25553426  1
  O  O403  1  0.12338477  0.75737453  0.75647025  1
  O  O404  1  0.61992376  0.26162868  0.25061325  1
  O  O405  1  0.61817248  0.25151350  0.75618128  1
  O  O406  1  0.61840509  0.75474477  0.25626953  1
  O  O407  1  0.61798431  0.75030471  0.76095144  1
  O  O408  1  0.38143632  0.24584615  0.24546362  1
  O  O409  1  0.38130244  0.24837092  0.74406667  1
  O  O410  1  0.37891035  0.74683022  0.24423325  1
  O  O411  1  0.37784473  0.74403056  0.74553943  1
  O  O412  1  0.87633928  0.24280718  0.24210825  1
  O  O413  1  0.88072486  0.24545952  0.74450817  1
  O  O414  1  0.88115062  0.74413946  0.24440148  1
  O  O415  1  0.87575982  0.74315425  0.74239232  1
  O  O416  1  0.38008783  0.49539281  0.49634441  1
  O  O417  1  0.37982890  0.49378973  0.99476167  1
  O  O418  1  0.37894415  0.99407986  0.49525544  1
  O  O419  1  0.37604997  0.99180271  0.99179815  1
  O  O420  1  0.87802498  0.49322607  0.48963079  1
  O  O421  1  0.87993465  0.49461554  0.99436109  1
  O  O422  1  0.88100660  0.99495763  0.49304498  1
  O  O423  1  0.88078990  0.99521694  0.99244898  1
  O  O424  1  0.11904052  0.00680817  -0.00147163  1
  O  O425  1  0.12106861  0.00439808  0.50337167  1
  O  O426  1  0.11701689  0.50654827  0.00005757  1
  O  O427  1  0.12420216  0.50240527  0.50970673  1
  O  O428  1  0.62014858  0.00382535  0.00396464  1
  O  O429  1  0.61715586  0.00832800  0.50149111  1
  O  O430  1  0.61871543  0.49862928  0.01023461  1
  O  O431  1  0.62101868  0.50706063  0.50697139  1
  O  O432  1  0.37156967  0.36973108  0.11962844  1
  O  O433  1  0.36961576  0.37034326  0.62032795  1
  O  O434  1  0.37480934  0.86780839  0.11802797  1
  O  O435  1  0.36798532  0.86842758  0.61955371  1
  O  O436  1  0.87526993  0.36851381  0.11835994  1
  O  O437  1  0.86795990  0.37218092  0.62064263  1
  O  O438  1  0.87397191  0.86797745  0.11677319  1
  O  O439  1  0.86790362  0.87072734  0.61900279  1
  O  O440  1  0.13184360  0.13060184  0.38111022  1
  O  O441  1  0.12656605  0.13232260  0.88083496  1
  O  O442  1  0.13145213  0.63168503  0.37597497  1
  O  O443  1  0.12874653  0.62969427  0.87945042  1
  O  O444  1  0.62401354  0.12730503  0.38710691  1
  O  O445  1  0.63260597  0.13136018  0.87566613  1
  O  O446  1  0.62577238  0.62905450  0.38424218  1
  O  O447  1  0.63152050  0.63246805  0.87560016  1
