# generated using pymatgen
data_V3Zn3O8
_symmetry_space_group_name_H-M   'P 1'
_cell_length_a   17.08666784
_cell_length_b   17.08921442
_cell_length_c   17.08723914
_cell_angle_alpha   90.00138329
_cell_angle_beta   89.98988479
_cell_angle_gamma   89.99620324
_symmetry_Int_Tables_number   1
_chemical_formula_structural   V3Zn3O8
_chemical_formula_sum   'V96 Zn96 O256'
_cell_volume   4989.43495817
_cell_formula_units_Z   32
loop_
 _symmetry_equiv_pos_site_id
 _symmetry_equiv_pos_as_xyz
  1  'x, y, z'
loop_
 _atom_site_type_symbol
 _atom_site_label
 _atom_site_symmetry_multiplicity
 _atom_site_fract_x
 _atom_site_fract_y
 _atom_site_fract_z
 _atom_site_occupancy
  V  V0  1  0.87711107  0.12612022  0.25098086  1
  V  V1  1  0.62369968  0.75163770  0.87401623  1
  V  V2  1  0.12562725  0.00088716  0.12506809  1
  V  V3  1  0.62471662  0.25198718  0.37398176  1
  V  V4  1  -0.00017911  0.87465412  0.87512128  1
  V  V5  1  0.87437213  0.49976040  0.87637921  1
  V  V6  1  0.87570739  0.24954632  0.62673387  1
  V  V7  1  0.50091378  0.25019332  0.74889700  1
  V  V8  1  0.74862734  0.62636242  0.87531036  1
  V  V9  1  0.87407035  0.49925435  0.37691648  1
  V  V10  1  0.37584265  0.12559520  0.24950010  1
  V  V11  1  0.87545615  -0.00042815  0.37593712  1
  V  V12  1  0.00091455  0.87382915  0.37460392  1
  V  V13  1  0.24989697  0.49973330  0.24883112  1
  V  V14  1  -0.00013924  0.37493195  0.37680093  1
  V  V15  1  0.12427616  0.62401351  0.50022325  1
  V  V16  1  0.37464087  0.37487444  -0.00047324  1
  V  V17  1  0.49935991  0.74997238  0.74905976  1
  V  V18  1  0.87361897  0.62523065  0.24988346  1
  V  V19  1  0.75188456  0.12469881  0.37685446  1
  V  V20  1  0.50103314  0.12547321  0.62564226  1
  V  V21  1  0.12558890  0.87390711  0.74925939  1
  V  V22  1  0.74939318  0.62495574  0.37530907  1
  V  V23  1  0.49913862  0.50230308  -0.00093850  1
  V  V24  1  0.74840936  0.74933203  0.49959748  1
  V  V25  1  0.50032239  0.50071539  0.49942086  1
  V  V26  1  0.87404995  0.74936998  0.62531783  1
  V  V27  1  0.75076599  -0.00034937  0.25079276  1
  V  V28  1  0.24891927  0.62496020  0.37454048  1
  V  V29  1  0.00139415  0.12389078  0.62581626  1
  V  V30  1  0.37476158  0.37485813  0.49876216  1
  V  V31  1  0.62332050  0.75047018  0.37430018  1
  V  V32  1  0.12574955  -0.00120904  0.62495640  1
  V  V33  1  0.49940749  0.75213803  0.24804816  1
  V  V34  1  0.87597796  -0.00046083  0.87583847  1
  V  V35  1  0.62340327  0.87488820  0.75028060  1
  V  V36  1  0.25115840  -0.00037751  0.75036961  1
  V  V37  1  0.74897609  0.75111627  0.00079463  1
  V  V38  1  0.12487119  0.37544003  0.24993703  1
  V  V39  1  0.75093843  0.87507716  0.12607267  1
  V  V40  1  0.62653746  0.12442529  0.50141214  1
  V  V41  1  0.25080306  0.24845068  0.50009322  1
  V  V42  1  0.62546452  0.37532081  0.75036378  1
  V  V43  1  0.37509220  0.25100436  0.12411152  1
  V  V44  1  -0.00111212  0.62625869  0.12498002  1
  V  V45  1  0.87444643  0.62494357  0.75013688  1
  V  V46  1  0.62553450  -0.00016856  0.62559572  1
  V  V47  1  0.12549257  0.37388709  0.74949319  1
  V  V48  1  0.50010737  -0.00122121  0.49905486  1
  V  V49  1  0.24805547  0.62458522  0.87349638  1
  V  V50  1  0.87392574  0.37536772  0.00167854  1
  V  V51  1  -0.00051680  0.25024957  0.25012147  1
  V  V52  1  0.12532491  0.25066151  0.87558375  1
  V  V53  1  0.24912512  0.49873528  0.74922834  1
  V  V54  1  0.62424258  0.50032996  0.12608853  1
  V  V55  1  0.62479985  0.49998350  0.62419922  1
  V  V56  1  0.49976831  0.37500205  0.87447023  1
  V  V57  1  0.12456026  0.74857492  0.87479528  1
  V  V58  1  -0.00167929  0.49980442  0.00030142  1
  V  V59  1  0.74983350  0.87438959  0.62554576  1
  V  V60  1  -0.00078050  0.74958371  0.75060058  1
  V  V61  1  0.00058007  0.62392980  0.62413146  1
  V  V62  1  0.87505841  0.25101557  0.12606822  1
  V  V63  1  0.75086612  -0.00021499  0.75169100  1
  V  V64  1  0.25108632  0.12338612  0.37401753  1
  V  V65  1  0.37672601  0.24910777  0.62474478  1
  V  V66  1  0.12660951  0.12399427  0.49952749  1
  V  V67  1  0.37488480  0.49936269  0.37394548  1
  V  V68  1  0.75198444  0.37439201  0.62639895  1
  V  V69  1  0.24982105  0.25125492  -0.00025445  1
  V  V70  1  0.00132910  0.24948403  0.75164329  1
  V  V71  1  0.37418306  0.75140935  0.12296776  1
  V  V72  1  0.00059316  -0.00096144  0.50064345  1
  V  V73  1  0.62656948  0.25018676  0.87612927  1
  V  V74  1  0.62638612  0.12715288  0.00039799  1
  V  V75  1  0.75064875  0.25083257  0.00156035  1
  V  V76  1  0.00039709  0.00051916  0.00108403  1
  V  V77  1  0.25094854  0.75050317  0.49921236  1
  V  V78  1  0.62686267  0.00219770  0.12571719  1
  V  V79  1  0.24969002  0.74933524  -0.00134946  1
  V  V80  1  0.24941309  0.37399111  0.62482313  1
  V  V81  1  0.37367535  0.62592509  0.24815786  1
  V  V82  1  0.87607767  0.12364023  0.75160486  1
  V  V83  1  0.12445163  0.50016229  0.12511327  1
  V  V84  1  0.25059792  0.87401342  0.62370486  1
  V  V85  1  0.24974980  0.87434213  0.12314623  1
  V  V86  1  0.87510798  0.87420010  0.50024408  1
  V  V87  1  0.50044409  0.12684989  0.12531527  1
  V  V88  1  0.49858219  -0.00087908  -0.00213047  1
  V  V89  1  0.12457554  0.75019466  0.37386219  1
  V  V90  1  0.37550921  0.87572899  0.49831686  1
  V  V91  1  0.37480855  0.62516275  0.74734511  1
  V  V92  1  0.75204402  0.24984852  0.50223186  1
  V  V93  1  0.12496574  0.87421783  0.24967931  1
  V  V94  1  0.74963439  0.50039274  0.75066823  1
  V  V95  1  0.25117533  0.12389672  0.87474547  1
  Zn  Zn96  1  0.49903116  0.62746591  0.12104282  1
  Zn  Zn97  1  0.62377132  0.62495116  0.50134234  1
  Zn  Zn98  1  0.62360178  0.37657351  0.25029067  1
  Zn  Zn99  1  0.37560310  -0.00195267  0.87284954  1
  Zn  Zn100  1  0.49879361  0.87730696  0.37441272  1
  Zn  Zn101  1  -0.00082389  0.75057008  0.24884276  1
  Zn  Zn102  1  0.74833388  0.37624792  0.12893005  1
  Zn  Zn103  1  0.12476013  0.24942603  0.37421542  1
  Zn  Zn104  1  0.12436892  0.62357825  -0.00104189  1
  Zn  Zn105  1  0.74477883  0.49844204  0.25034423  1
  Zn  Zn106  1  0.37449706  0.87527431  -0.00325742  1
  Zn  Zn107  1  0.12299062  0.49831302  0.62341694  1
  Zn  Zn108  1  0.50156716  0.25277452  0.24946928  1
  Zn  Zn109  1  0.87714723  0.37505493  0.50269985  1
  Zn  Zn110  1  0.25175357  -0.00106227  0.24871125  1
  Zn  Zn111  1  0.62371733  0.87735256  0.25127520  1
  Zn  Zn112  1  0.37379222  0.49877843  0.87386966  1
  Zn  Zn113  1  0.49974810  0.37423503  0.37240160  1
  Zn  Zn114  1  0.62285108  0.62642468  -0.00020532  1
  Zn  Zn115  1  0.75183795  0.12480510  0.87663432  1
  Zn  Zn116  1  0.24972280  0.37551564  0.12448887  1
  Zn  Zn117  1  0.50079541  0.62587812  0.62418911  1
  Zn  Zn118  1  0.37673154  0.12350180  0.74963913  1
  Zn  Zn119  1  0.00003412  0.37479961  0.87560322  1
  Zn  Zn120  1  0.37670155  0.74952173  0.62233448  1
  Zn  Zn121  1  0.00149395  0.49871843  0.50247384  1
  Zn  Zn122  1  0.00145652  0.12635749  0.12604285  1
  Zn  Zn123  1  0.87438391  0.75047310  0.12546450  1
  Zn  Zn124  1  0.12554467  0.12767604  0.00245504  1
  Zn  Zn125  1  0.87574516  0.87472459  0.00141073  1
  Zn  Zn126  1  0.37885423  -0.00102502  0.37218481  1
  Zn  Zn127  1  0.49693122  0.87612095  0.87330558  1
  Zn  Zn128  1  0.18775414  0.18937204  0.18771205  1
  Zn  Zn129  1  0.18852770  0.18711337  0.68830996  1
  Zn  Zn130  1  0.18651393  0.68792773  0.18675662  1
  Zn  Zn131  1  0.18766913  0.68720328  0.68573229  1
  Zn  Zn132  1  0.69044301  0.18741367  0.18847355  1
  Zn  Zn133  1  0.68878250  0.18678122  0.68979822  1
  Zn  Zn134  1  0.68461636  0.68403259  0.18670773  1
  Zn  Zn135  1  0.68530992  0.68625180  0.68712980  1
  Zn  Zn136  1  0.31197063  0.31209983  0.31199994  1
  Zn  Zn137  1  0.31359419  0.31144308  0.81219175  1
  Zn  Zn138  1  0.31214411  0.81408352  0.31194985  1
  Zn  Zn139  1  0.31460945  0.81281204  0.81361551  1
  Zn  Zn140  1  0.80928287  0.31496029  0.31036892  1
  Zn  Zn141  1  0.81350940  0.31259047  0.81500264  1
  Zn  Zn142  1  0.81225661  0.81166217  0.31232252  1
  Zn  Zn143  1  0.81215922  0.81386708  0.81393003  1
  Zn  Zn144  1  0.18705337  0.43834241  0.43786421  1
  Zn  Zn145  1  0.18637022  0.43795327  0.93689716  1
  Zn  Zn146  1  0.18933197  0.93799956  0.43640786  1
  Zn  Zn147  1  0.18705953  0.93622046  0.93751365  1
  Zn  Zn148  1  0.68915885  0.43601921  0.43970923  1
  Zn  Zn149  1  0.68711844  0.43680569  0.93993160  1
  Zn  Zn150  1  0.68683528  0.93587882  0.43785685  1
  Zn  Zn151  1  0.68605494  0.93762710  0.93753946  1
  Zn  Zn152  1  0.31280033  0.06395625  0.06149160  1
  Zn  Zn153  1  0.31509848  0.06094104  0.56259688  1
  Zn  Zn154  1  0.31222049  0.56371210  0.06179385  1
  Zn  Zn155  1  0.31094420  0.56095229  0.56262248  1
  Zn  Zn156  1  0.81454014  0.06486195  0.06341449  1
  Zn  Zn157  1  0.81331860  0.06232505  0.56460789  1
  Zn  Zn158  1  0.80953083  0.56287714  0.06234808  1
  Zn  Zn159  1  0.81184426  0.56276427  0.56159989  1
  Zn  Zn160  1  0.44001362  0.43506639  0.18745872  1
  Zn  Zn161  1  0.43660039  0.43777108  0.68571062  1
  Zn  Zn162  1  0.43697756  0.93787984  0.18386304  1
  Zn  Zn163  1  0.43595247  0.93738875  0.68623378  1
  Zn  Zn164  1  0.93657870  0.43775536  0.18859940  1
  Zn  Zn165  1  0.93895889  0.43714434  0.68936767  1
  Zn  Zn166  1  0.93776991  0.93744355  0.18847997  1
  Zn  Zn167  1  0.93757496  0.93668363  0.68823998  1
  Zn  Zn168  1  0.06318009  0.06172664  0.31218515  1
  Zn  Zn169  1  0.06522056  0.06261439  0.81398299  1
  Zn  Zn170  1  0.06143848  0.56166615  0.31220426  1
  Zn  Zn171  1  0.06245612  0.56039944  0.81151857  1
  Zn  Zn172  1  0.56318687  0.06499769  0.31320064  1
  Zn  Zn173  1  0.56464992  0.06424893  0.81359341  1
  Zn  Zn174  1  0.55942887  0.56547449  0.31167365  1
  Zn  Zn175  1  0.56216003  0.56406767  0.81308501  1
  Zn  Zn176  1  0.43902939  0.18598083  0.43817714  1
  Zn  Zn177  1  0.43753317  0.18717474  0.93723072  1
  Zn  Zn178  1  0.43638429  0.68706455  0.43560556  1
  Zn  Zn179  1  0.43494308  0.68812803  0.93366357  1
  Zn  Zn180  1  0.93846626  0.18816778  0.43902422  1
  Zn  Zn181  1  0.93799599  0.18704989  0.93890239  1
  Zn  Zn182  1  0.93831271  0.68730723  0.43805873  1
  Zn  Zn183  1  0.93498226  0.68737676  0.93866337  1
  Zn  Zn184  1  0.06152511  0.31396127  0.06269127  1
  Zn  Zn185  1  0.06404532  0.31003122  0.56228720  1
  Zn  Zn186  1  0.06373803  0.81183489  0.06153378  1
  Zn  Zn187  1  0.06332575  0.81011794  0.56186769  1
  Zn  Zn188  1  0.56174048  0.31505657  0.06279750  1
  Zn  Zn189  1  0.56353315  0.31424235  0.56080295  1
  Zn  Zn190  1  0.56428041  0.81597946  0.06315724  1
  Zn  Zn191  1  0.56019295  0.81232561  0.56342037  1
  O  O192  1  0.12354473  0.11328129  0.12463364  1
  O  O193  1  0.12083028  0.11835309  0.61975915  1
  O  O194  1  0.11328490  0.61963315  0.12537551  1
  O  O195  1  0.11810802  0.62476979  0.61832942  1
  O  O196  1  0.62077542  0.12127183  0.12034498  1
  O  O197  1  0.62143653  0.11958409  0.62049551  1
  O  O198  1  0.61942570  0.61572122  0.12004650  1
  O  O199  1  0.62277172  0.61534999  0.62203399  1
  O  O200  1  0.37486619  0.38125978  0.38173629  1
  O  O201  1  0.38247889  0.37560551  0.88077768  1
  O  O202  1  0.37600405  0.87907786  0.38212582  1
  O  O203  1  0.37888293  0.88000566  0.87915223  1
  O  O204  1  0.88296084  0.38340789  0.37474383  1
  O  O205  1  0.87660327  0.38256501  0.88223107  1
  O  O206  1  0.87996200  0.87972551  0.38078593  1
  O  O207  1  0.88256874  0.88181997  0.87635938  1
  O  O208  1  0.25245197  0.01310082  0.37243113  1
  O  O209  1  0.24793916  0.00891974  0.87013576  1
  O  O210  1  0.25539752  0.50586689  0.36903916  1
  O  O211  1  0.25087458  0.50634603  0.86750359  1
  O  O212  1  0.75597371  0.00442130  0.37171722  1
  O  O213  1  0.75719042  0.00038914  0.86933845  1
  O  O214  1  0.75867690  0.50578849  0.37564489  1
  O  O215  1  0.75375775  0.50603894  0.87033914  1
  O  O216  1  0.24288071  0.50026086  0.13131761  1
  O  O217  1  0.24816445  0.49108156  0.63089949  1
  O  O218  1  0.23968842  0.99468983  0.12281010  1
  O  O219  1  0.24381247  0.99456964  0.62933279  1
  O  O220  1  0.73668543  0.50058031  0.12494876  1
  O  O221  1  0.74612938  0.49466455  0.63104809  1
  O  O222  1  0.74705830  0.99367647  0.12998691  1
  O  O223  1  0.74552558  0.99388827  0.63099571  1
  O  O224  1  0.00400424  0.37084048  0.25916136  1
  O  O225  1  0.00670410  0.36681551  0.75222516  1
  O  O226  1  0.00558301  0.87304561  0.25683169  1
  O  O227  1  0.00564432  0.86908962  0.75467503  1
  O  O228  1  0.50470003  0.36973837  0.25534012  1
  O  O229  1  0.50612198  0.37030711  0.75397126  1
  O  O230  1  0.50085979  0.86403701  0.25053183  1
  O  O231  1  0.50691441  0.86911322  0.74902920  1
  O  O232  1  0.49127954  0.12752807  0.24427819  1
  O  O233  1  0.50107751  0.13233006  0.74324047  1
  O  O234  1  0.49186348  0.63779821  0.24811586  1
  O  O235  1  0.48978934  0.62916212  0.74961918  1
  O  O236  1  0.99391192  0.13172987  0.25152285  1
  O  O237  1  0.99658537  0.12861299  0.74452323  1
  O  O238  1  0.99098498  0.62486018  0.24158956  1
  O  O239  1  0.99351428  0.63093312  0.74520881  1
  O  O240  1  0.37023471  0.25514737  0.00448892  1
  O  O241  1  0.37070905  0.25475231  0.50504714  1
  O  O242  1  0.36804326  0.75042304  0.00565692  1
  O  O243  1  0.36826545  0.75604159  0.49940503  1
  O  O244  1  0.87110250  0.25482865  0.00584656  1
  O  O245  1  0.86973819  0.24961181  0.50914409  1
  O  O246  1  0.86119871  0.75291318  0.00184304  1
  O  O247  1  0.86878309  0.75530326  0.50519389  1
  O  O248  1  0.13264247  0.24124173  0.49790553  1
  O  O249  1  0.13094152  0.24966850  0.99454407  1
  O  O250  1  0.13125182  0.74482629  0.49292690  1
  O  O251  1  0.13068575  0.74685867  0.99236403  1
  O  O252  1  0.63233568  0.24378702  0.49483945  1
  O  O253  1  0.63000427  0.24647678  0.99578096  1
  O  O254  1  0.62923699  0.74877022  0.49084285  1
  O  O255  1  0.63458125  0.75111367  0.99447366  1
  O  O256  1  0.49345385  0.24310062  0.12446491  1
  O  O257  1  0.49731616  0.24557298  0.62894065  1
  O  O258  1  0.49521819  0.75101164  0.13238839  1
  O  O259  1  0.49730177  0.74556058  0.63243565  1
  O  O260  1  0.99361071  0.24864863  0.13235900  1
  O  O261  1  0.99586694  0.24257912  0.63117599  1
  O  O262  1  0.99655846  0.73936446  0.12530087  1
  O  O263  1  0.99337932  0.74532696  0.63095378  1
  O  O264  1  -0.00040388  0.25991633  0.36999819  1
  O  O265  1  0.00704274  0.24933692  0.86887771  1
  O  O266  1  0.00648105  0.75679566  0.37434217  1
  O  O267  1  0.00342177  0.75435757  0.87007969  1
  O  O268  1  0.51342106  0.24898891  0.37699954  1
  O  O269  1  0.50652522  0.25514785  0.86967289  1
  O  O270  1  0.50718025  0.75041895  0.36581273  1
  O  O271  1  0.50678271  0.75168389  0.86773380  1
  O  O272  1  0.24675320  0.12843887  0.49290728  1
  O  O273  1  0.24844545  0.13144068  0.99067485  1
  O  O274  1  0.24546465  0.63013036  0.49360806  1
  O  O275  1  0.24783624  0.63095439  0.99181785  1
  O  O276  1  0.74620681  0.12913560  0.49674308  1
  O  O277  1  0.74409266  0.13182809  0.99957182  1
  O  O278  1  0.74873996  0.63240625  0.49301692  1
  O  O279  1  0.74812202  0.63567604  0.99385371  1
  O  O280  1  0.25680624  0.36916844  0.00008053  1
  O  O281  1  0.25478448  0.36841291  0.50417923  1
  O  O282  1  0.24953291  0.86709952  0.00587367  1
  O  O283  1  0.25468960  0.87036234  0.50411947  1
  O  O284  1  0.75667193  0.36834877  0.00288882  1
  O  O285  1  0.75400494  0.36782443  0.50893772  1
  O  O286  1  0.75047278  0.86874737  0.00908395  1
  O  O287  1  0.75586339  0.86943967  0.50600142  1
  O  O288  1  0.13005043  0.49533608  0.24528003  1
  O  O289  1  0.13120915  0.49212196  0.74751414  1
  O  O290  1  0.12511622  0.99368567  0.23955550  1
  O  O291  1  0.12980322  0.99324928  0.74401414  1
  O  O292  1  0.62186869  0.50257967  0.23869635  1
  O  O293  1  0.63038000  0.49427696  0.74541651  1
  O  O294  1  0.63273767  1.00077857  0.24419591  1
  O  O295  1  0.63081601  0.99543989  0.74454481  1
  O  O296  1  0.37369566  0.01346049  0.24842574  1
  O  O297  1  0.36667415  0.00355990  0.75087758  1
  O  O298  1  0.37021578  0.50569969  0.25401015  1
  O  O299  1  0.36903022  0.50783883  0.75061037  1
  O  O300  1  0.87086245  0.00530204  0.25729364  1
  O  O301  1  0.87110681  0.00404026  0.75531443  1
  O  O302  1  0.87410237  0.50969704  0.26038649  1
  O  O303  1  0.86860322  0.50559755  0.75601378  1
  O  O304  1  0.11494124  0.37480857  0.36955762  1
  O  O305  1  0.12364574  0.36775736  0.86743590  1
  O  O306  1  0.12051142  0.87078662  0.37004214  1
  O  O307  1  0.11915664  0.86872897  0.86818360  1
  O  O308  1  0.62552718  0.36191173  0.37758998  1
  O  O309  1  0.61993859  0.36979145  0.86930464  1
  O  O310  1  0.62422062  0.86212695  0.37231519  1
  O  O311  1  0.62317789  0.86929490  0.86707763  1
  O  O312  1  0.37948023  0.13078577  0.13205984  1
  O  O313  1  0.38312669  0.13192867  0.62498588  1
  O  O314  1  0.37571868  0.63330084  0.13133495  1
  O  O315  1  0.37444293  0.62589805  0.63693664  1
  O  O316  1  0.87818774  0.13160255  0.13378690  1
  O  O317  1  0.88204354  0.12884807  0.63180561  1
  O  O318  1  0.88164524  0.62333020  0.13402570  1
  O  O319  1  0.87874956  0.63086325  0.63080840  1
  O  O320  1  0.25675902  0.25136425  0.11776118  1
  O  O321  1  0.25636659  0.25362012  0.61934285  1
  O  O322  1  0.25370074  0.75457986  0.11888155  1
  O  O323  1  0.25011264  0.75707129  0.61675171  1
  O  O324  1  0.75721141  0.25125587  0.11894201  1
  O  O325  1  0.75597277  0.25441890  0.62248496  1
  O  O326  1  0.74820882  0.75760763  0.11809464  1
  O  O327  1  0.75462059  0.75494691  0.62013088  1
  O  O328  1  0.24935891  0.23854788  0.38073131  1
  O  O329  1  0.24540911  0.24214694  0.87897519  1
  O  O330  1  0.24408337  0.74425154  0.37931307  1
  O  O331  1  0.24327794  0.74461848  0.87838598  1
  O  O332  1  0.74521584  0.24356084  0.38220549  1
  O  O333  1  0.74403154  0.24863927  0.88234795  1
  O  O334  1  0.74222843  0.74562899  0.37928722  1
  O  O335  1  0.74472209  0.74717615  0.88214017  1
  O  O336  1  0.00363956  0.11201285  0.00224000  1
  O  O337  1  0.00595330  0.11851515  0.50570533  1
  O  O338  1  -0.00234214  0.61947061  0.01042591  1
  O  O339  1  0.00612616  0.62477785  0.50635486  1
  O  O340  1  0.50621501  0.11887464  0.00557862  1
  O  O341  1  0.50730641  0.11924939  0.50670211  1
  O  O342  1  0.49960441  0.61389752  -0.00230867  1
  O  O343  1  0.49873182  0.61219350  0.50099291  1
  O  O344  1  0.49373442  0.38533711  0.49838104  1
  O  O345  1  0.49440093  0.38315765  0.99368825  1
  O  O346  1  0.49356691  0.88114570  0.49912509  1
  O  O347  1  0.50103437  0.88872806  0.99962980  1
  O  O348  1  0.99873803  0.37492770  0.48926942  1
  O  O349  1  0.99199096  0.38257040  0.99843992  1
  O  O350  1  0.99479802  0.87967440  0.49535819  1
  O  O351  1  0.99897821  0.88416048  0.99473936  1
  O  O352  1  0.49358397  0.50014305  0.38390258  1
  O  O353  1  0.50020939  0.49354932  0.88357979  1
  O  O354  1  0.50064483  0.99851385  0.38295806  1
  O  O355  1  0.50039859  1.00188515  0.88640954  1
  O  O356  1  0.99115272  0.49110976  0.37508165  1
  O  O357  1  0.99177762  0.50043484  0.88169374  1
  O  O358  1  0.99513057  0.99388714  0.38152401  1
  O  O359  1  0.99774459  0.99444074  0.88251987  1
  O  O360  1  0.00838635  -0.00122396  0.11757979  1
  O  O361  1  0.00564263  0.00402013  0.62015870  1
  O  O362  1  0.00333833  0.50859492  0.12113755  1
  O  O363  1  0.00084585  0.50802945  0.62327367  1
  O  O364  1  0.50686440  0.00664105  0.11745792  1
  O  O365  1  0.50729941  0.00567708  0.61996777  1
  O  O366  1  0.50522657  0.50171480  0.11378468  1
  O  O367  1  0.50573802  0.49935760  0.61509641  1
  O  O368  1  0.24333092  0.38191564  0.24939076  1
  O  O369  1  0.24572324  0.37823256  0.74417507  1
  O  O370  1  0.24320283  0.87767917  0.24220596  1
  O  O371  1  0.24384448  0.87907222  0.74412326  1
  O  O372  1  0.74291625  0.38108615  0.24699367  1
  O  O373  1  0.74505668  0.38082062  0.74613273  1
  O  O374  1  0.74964403  0.88080462  0.24211750  1
  O  O375  1  0.74457939  0.87982497  0.74415378  1
  O  O376  1  0.25812049  0.12486434  0.25741732  1
  O  O377  1  0.25035014  0.11910744  0.75868589  1
  O  O378  1  0.25406807  0.62002850  0.25534739  1
  O  O379  1  0.25613300  0.62000633  0.75318756  1
  O  O380  1  0.75775651  0.11881033  0.25729017  1
  O  O381  1  0.75780795  0.11725928  0.75163647  1
  O  O382  1  0.75868771  0.62278206  0.25594337  1
  O  O383  1  0.75554728  0.62017601  0.75518982  1
  O  O384  1  0.36804545  0.12495188  0.36691246  1
  O  O385  1  0.36220241  0.12418845  0.87279148  1
  O  O386  1  0.36775693  0.61959108  0.36801970  1
  O  O387  1  0.36719735  0.62313821  0.86220318  1
  O  O388  1  0.87098983  0.11867611  0.37215674  1
  O  O389  1  0.87514400  0.11737446  0.86869942  1
  O  O390  1  0.87163379  0.61833670  0.36839136  1
  O  O391  1  0.86821344  0.62031101  0.86907098  1
  O  O392  1  0.12535352  0.38288198  0.13262036  1
  O  O393  1  0.13218255  0.37357193  0.63127478  1
  O  O394  1  0.12930141  0.88188272  0.12971518  1
  O  O395  1  0.12975533  0.87959598  0.62946228  1
  O  O396  1  0.62479177  0.38767402  0.12542667  1
  O  O397  1  0.63218379  0.37978467  0.63104477  1
  O  O398  1  0.63686399  0.88279170  0.12767580  1
  O  O399  1  0.63127604  0.88055474  0.62996659  1
  O  O400  1  0.11828020  0.25703287  0.25197952  1
  O  O401  1  0.12050835  0.25412800  0.75517718  1
  O  O402  1  0.12307578  0.75629042  0.25650687  1
  O  O403  1  0.11862135  0.75500956  0.75454670  1
  O  O404  1  0.62590468  0.24654881  0.26384749  1
  O  O405  1  0.62084938  0.25615399  0.75527426  1
  O  O406  1  0.61621589  0.75016555  0.25688151  1
  O  O407  1  0.62015140  0.75538704  0.75435991  1
  O  O408  1  0.37519539  0.23962575  0.24432692  1
  O  O409  1  0.38343600  0.24881544  0.74223359  1
  O  O410  1  0.38123826  0.74633532  0.24431641  1
  O  O411  1  0.37964351  0.74039092  0.74798837  1
  O  O412  1  0.87962605  0.24526428  0.24629256  1
  O  O413  1  0.88094336  0.24358190  0.74628412  1
  O  O414  1  0.87626702  0.73650190  0.24974440  1
  O  O415  1  0.87922925  0.74506331  0.74516301  1
  O  O416  1  0.38088234  0.49486665  0.49461191  1
  O  O417  1  0.38382499  0.49484519  0.99833603  1
  O  O418  1  0.38260952  0.99375427  0.49865734  1
  O  O419  1  0.38807550  1.00116184  1.00026285  1
  O  O420  1  0.87752688  0.49892083  0.48758784  1
  O  O421  1  0.87812052  0.49572515  0.99560363  1
  O  O422  1  0.88064623  0.99407384  0.49612951  1
  O  O423  1  0.88499498  0.99893202  0.99584060  1
  O  O424  1  0.11629834  -0.00083784  0.00884553  1
  O  O425  1  0.11982041  0.00398620  0.50567434  1
  O  O426  1  0.11706540  0.50190360  0.00665194  1
  O  O427  1  0.12286663  0.50858670  0.50210352  1
  O  O428  1  0.61882575  0.00695984  0.00576593  1
  O  O429  1  0.62185440  0.00476640  0.50637270  1
  O  O430  1  0.61455843  0.50074604  0.00610834  1
  O  O431  1  0.61602083  0.50003797  0.50423016  1
  O  O432  1  0.37323272  0.36845850  0.11772386  1
  O  O433  1  0.36935217  0.36844808  0.61831239  1
  O  O434  1  0.36716947  0.86885067  0.12165076  1
  O  O435  1  0.36723270  0.87322625  0.61659151  1
  O  O436  1  0.87363314  0.36932317  0.11963825  1
  O  O437  1  0.86977531  0.36751565  0.62626258  1
  O  O438  1  0.86309353  0.87307649  0.12493816  1
  O  O439  1  0.86989548  0.86910753  0.62019519  1
  O  O440  1  0.13425548  0.12500592  0.38034449  1
  O  O441  1  0.13622477  0.13102417  0.87645736  1
  O  O442  1  0.12968514  0.63016810  0.37887542  1
  O  O443  1  0.12993244  0.63155254  0.87439632  1
  O  O444  1  0.63295256  0.13177290  0.38253822  1
  O  O445  1  0.62821908  0.13311146  0.88229566  1
  O  O446  1  0.62999270  0.63587738  0.37546987  1
  O  O447  1  0.63216720  0.63310944  0.87556453  1
