# generated using pymatgen
data_V3Zn3O8
_symmetry_space_group_name_H-M   'P 1'
_cell_length_a   17.08685441
_cell_length_b   17.08752039
_cell_length_c   17.08757137
_cell_angle_alpha   90.01323810
_cell_angle_beta   90.00425148
_cell_angle_gamma   90.00875027
_symmetry_Int_Tables_number   1
_chemical_formula_structural   V3Zn3O8
_chemical_formula_sum   'V96 Zn96 O256'
_cell_volume   4989.09172451
_cell_formula_units_Z   32
loop_
 _symmetry_equiv_pos_site_id
 _symmetry_equiv_pos_as_xyz
  1  'x, y, z'
loop_
 _atom_site_type_symbol
 _atom_site_label
 _atom_site_symmetry_multiplicity
 _atom_site_fract_x
 _atom_site_fract_y
 _atom_site_fract_z
 _atom_site_occupancy
  V  V0  1  0.87508836  0.62531730  0.75056382  1
  V  V1  1  0.49800139  0.87622465  0.87589514  1
  V  V2  1  0.62610613  0.87474639  0.25011177  1
  V  V3  1  0.74997052  -0.00077589  0.25077343  1
  V  V4  1  -0.00030365  0.50016079  0.00035148  1
  V  V5  1  0.24934258  0.62678422  0.87642117  1
  V  V6  1  0.62532689  0.50029170  0.62594770  1
  V  V7  1  0.75094966  0.24891314  0.50095518  1
  V  V8  1  0.62525166  0.74860936  0.37586577  1
  V  V9  1  -0.00069869  0.12515194  0.12486640  1
  V  V10  1  0.62538926  0.24898734  0.37405813  1
  V  V11  1  0.12500789  0.25023341  0.37328469  1
  V  V12  1  0.49940828  0.87545625  0.37443129  1
  V  V13  1  0.62517921  0.62533471  0.50004470  1
  V  V14  1  0.87414395  0.12366940  0.25023880  1
  V  V15  1  0.62388841  0.87527708  0.74989115  1
  V  V16  1  0.00007991  0.12551036  0.62413952  1
  V  V17  1  0.50081066  0.37391941  0.37539013  1
  V  V18  1  -0.00030990  0.62460106  0.12630326  1
  V  V19  1  0.75028608  0.49955184  0.75127909  1
  V  V20  1  0.12483072  -0.00058673  0.12507125  1
  V  V21  1  0.75017333  0.87335813  0.12444020  1
  V  V22  1  0.37467152  0.25096007  0.12425181  1
  V  V23  1  0.37600750  -0.00004520  0.37415287  1
  V  V24  1  0.12556667  0.62660141  -0.00057540  1
  V  V25  1  0.25023790  0.50099416  0.75011718  1
  V  V26  1  0.62435360  -0.00158469  0.62355985  1
  V  V27  1  0.24913910  0.00136333  0.74922279  1
  V  V28  1  0.12458154  0.87530580  0.24964422  1
  V  V29  1  0.62491253  0.25001950  0.87524410  1
  V  V30  1  0.24942306  0.12619944  0.87304503  1
  V  V31  1  0.49940340  0.37652239  0.87543995  1
  V  V32  1  0.24992396  0.12578591  0.37389355  1
  V  V33  1  0.62506130  0.74962857  0.87611136  1
  V  V34  1  0.87434909  0.24915126  0.12422783  1
  V  V35  1  0.37404999  0.75182339  0.12221476  1
  V  V36  1  0.62582623  0.37498685  0.75089405  1
  V  V37  1  0.37446661  0.62574075  0.75086970  1
  V  V38  1  0.24970345  0.75063143  0.50002431  1
  V  V39  1  0.87532360  0.49971633  0.87607784  1
  V  V40  1  0.37639876  0.50013378  0.87583087  1
  V  V41  1  0.00036756  0.49891440  0.50059618  1
  V  V42  1  0.37646539  0.25079801  0.62396471  1
  V  V43  1  0.49882140  0.75058124  0.75072462  1
  V  V44  1  0.49817701  0.00100828  -0.00081698  1
  V  V45  1  0.00033859  0.37553000  0.87522927  1
  V  V46  1  0.50001968  0.24992100  0.24962039  1
  V  V47  1  0.74963856  -0.00097656  0.74992602  1
  V  V48  1  0.00084324  0.75070613  0.75127469  1
  V  V49  1  0.50038568  0.12402310  0.62375864  1
  V  V50  1  0.74886597  0.62601111  0.87639677  1
  V  V51  1  0.12478415  0.37516074  0.74999239  1
  V  V52  1  0.24862775  0.00021870  0.24882068  1
  V  V53  1  0.25050464  0.37531836  0.12397006  1
  V  V54  1  0.12467316  0.12519867  0.49938243  1
  V  V55  1  0.24968130  0.87590864  0.62478916  1
  V  V56  1  0.00002045  0.74894322  0.25029449  1
  V  V57  1  -0.00117469  -0.00011746  -0.00065570  1
  V  V58  1  0.75028663  0.12422197  0.37419534  1
  V  V59  1  0.62311255  0.12528931  -0.00108621  1
  V  V60  1  -0.00004228  0.87506793  0.37558218  1
  V  V61  1  0.37360481  0.75098207  0.62461333  1
  V  V62  1  0.12354347  0.87553304  0.75122401  1
  V  V63  1  0.49873207  0.12591320  0.12406558  1
  V  V64  1  0.50064959  0.74943949  0.24990098  1
  V  V65  1  0.62552698  0.50000965  0.12583211  1
  V  V66  1  0.87467650  0.75010292  0.62551014  1
  V  V67  1  0.50060238  0.25051018  0.74898315  1
  V  V68  1  0.74895230  0.24836644  0.00044392  1
  V  V69  1  0.87637600  0.62361575  0.25166060  1
  V  V70  1  0.12606178  0.62537892  0.50007100  1
  V  V71  1  0.37660214  0.37527822  0.49985388  1
  V  V72  1  0.12551073  0.50007920  0.12507015  1
  V  V73  1  0.87501326  -0.00070428  0.87435199  1
  V  V74  1  0.12636291  0.74956083  0.37549191  1
  V  V75  1  0.37358529  0.00128682  0.87452500  1
  V  V76  1  0.87538400  0.87440591  0.50041281  1
  V  V77  1  0.87574596  0.49914212  0.37674019  1
  V  V78  1  0.87504805  0.12560692  0.74954771  1
  V  V79  1  0.12530594  0.49972167  0.62510086  1
  V  V80  1  0.25122140  0.37519122  0.62371985  1
  V  V81  1  0.75089181  0.37358078  0.62545678  1
  V  V82  1  0.50022556  0.49940510  0.49954582  1
  V  V83  1  0.50237984  0.62374665  0.12508735  1
  V  V84  1  0.49980460  0.62547745  0.62540603  1
  V  V85  1  0.00058250  0.25039507  0.24954365  1
  V  V86  1  0.75077502  0.62358443  0.37638058  1
  V  V87  1  0.74994593  0.37446445  0.12701343  1
  V  V88  1  0.12440829  0.25121592  0.87403090  1
  V  V89  1  0.00029133  0.37493112  0.37538613  1
  V  V90  1  0.00035453  0.62434564  0.62577002  1
  V  V91  1  0.37563380  0.62466537  0.25038221  1
  V  V92  1  0.12423247  0.12532141  -0.00061282  1
  V  V93  1  0.87399844  0.87521405  0.00004450  1
  V  V94  1  0.25011170  0.25204703  -0.00045653  1
  V  V95  1  0.25104694  0.50081412  0.25106546  1
  Zn  Zn96  1  0.50008809  0.50014124  0.00015822  1
  Zn  Zn97  1  0.49995109  -0.00199071  0.49888060  1
  Zn  Zn98  1  0.37459775  0.87495625  0.49974747  1
  Zn  Zn99  1  0.25240190  0.62521997  0.37601368  1
  Zn  Zn100  1  0.74897637  0.74977737  0.50225643  1
  Zn  Zn101  1  0.37437182  0.12611167  0.24903979  1
  Zn  Zn102  1  0.62632844  0.12095861  0.49779198  1
  Zn  Zn103  1  0.37652094  0.37751834  -0.00029100  1
  Zn  Zn104  1  0.12559954  0.37522641  0.25004273  1
  Zn  Zn105  1  0.75028478  0.74898453  0.00008121  1
  Zn  Zn106  1  0.37171275  0.87620532  0.00022026  1
  Zn  Zn107  1  0.87469625  0.74756899  0.12383949  1
  Zn  Zn108  1  0.24950029  0.87499829  0.12261994  1
  Zn  Zn109  1  0.12472205  0.75085146  0.87774458  1
  Zn  Zn110  1  0.62263377  -0.00013248  0.12392746  1
  Zn  Zn111  1  0.75120154  0.49847688  0.25214008  1
  Zn  Zn112  1  0.24771385  0.75332984  -0.00066477  1
  Zn  Zn113  1  0.74956681  0.87275851  0.62421660  1
  Zn  Zn114  1  0.25181871  0.25121381  0.49803492  1
  Zn  Zn115  1  0.62516805  0.37494365  0.25168656  1
  Zn  Zn116  1  0.12588160  0.00129942  0.62369540  1
  Zn  Zn117  1  0.74895989  0.12477908  0.87526897  1
  Zn  Zn118  1  0.62650551  0.62636906  0.00125883  1
  Zn  Zn119  1  0.37288144  0.12594002  0.74807564  1
  Zn  Zn120  1  -0.00093267  0.25117189  0.74975172  1
  Zn  Zn121  1  -0.00040329  0.00046272  0.49811899  1
  Zn  Zn122  1  -0.00064559  0.87317049  0.87616029  1
  Zn  Zn123  1  0.37591086  0.50101174  0.37543958  1
  Zn  Zn124  1  0.87585061  0.37381765  -0.00018164  1
  Zn  Zn125  1  0.87597823  0.37447700  0.50283507  1
  Zn  Zn126  1  0.87480183  0.25093460  0.62608640  1
  Zn  Zn127  1  0.87562526  -0.00054161  0.37612245  1
  Zn  Zn128  1  0.18777694  0.18721455  0.18732805  1
  Zn  Zn129  1  0.18779548  0.19036987  0.68627394  1
  Zn  Zn130  1  0.18828889  0.68728006  0.18694512  1
  Zn  Zn131  1  0.18734154  0.68918990  0.68829724  1
  Zn  Zn132  1  0.68489934  0.18651685  0.18709676  1
  Zn  Zn133  1  0.68747437  0.18590239  0.68753190  1
  Zn  Zn134  1  0.68982711  0.68640782  0.19070930  1
  Zn  Zn135  1  0.68824501  0.68848962  0.68875221  1
  Zn  Zn136  1  0.31423609  0.31308174  0.31197998  1
  Zn  Zn137  1  0.31363453  0.31333032  0.81101642  1
  Zn  Zn138  1  0.31132104  0.81330272  0.31031947  1
  Zn  Zn139  1  0.31081758  0.81351693  0.81383656  1
  Zn  Zn140  1  0.81426356  0.31199257  0.31309988  1
  Zn  Zn141  1  0.81292175  0.31146235  0.81413958  1
  Zn  Zn142  1  0.81287652  0.80951407  0.31375695  1
  Zn  Zn143  1  0.81123176  0.81357158  0.81229827  1
  Zn  Zn144  1  0.18789151  0.43683811  0.43674043  1
  Zn  Zn145  1  0.18797232  0.43923351  0.93769522  1
  Zn  Zn146  1  0.18799424  0.93849678  0.43699012  1
  Zn  Zn147  1  0.18889437  0.93721765  0.93809644  1
  Zn  Zn148  1  0.68774610  0.43597132  0.43865283  1
  Zn  Zn149  1  0.68762637  0.43726860  0.94053085  1
  Zn  Zn150  1  0.68962758  0.93570176  0.43756574  1
  Zn  Zn151  1  0.68648976  0.93885390  0.93712209  1
  Zn  Zn152  1  0.31186481  0.06397653  0.06145314  1
  Zn  Zn153  1  0.31210735  0.06250582  0.56053839  1
  Zn  Zn154  1  0.31358467  0.56390681  0.06155859  1
  Zn  Zn155  1  0.31303988  0.56266981  0.56212165  1
  Zn  Zn156  1  0.81016149  0.06102920  0.06283539  1
  Zn  Zn157  1  0.81242460  0.06052704  0.56231025  1
  Zn  Zn158  1  0.81264285  0.56209762  0.06199650  1
  Zn  Zn159  1  0.81275914  0.56213977  0.56221104  1
  Zn  Zn160  1  0.43780632  0.43565259  0.18785131  1
  Zn  Zn161  1  0.43793770  0.43781128  0.68818289  1
  Zn  Zn162  1  0.43771087  0.93787392  0.18780021  1
  Zn  Zn163  1  0.43526432  0.93785215  0.68934290  1
  Zn  Zn164  1  0.93709673  0.43693432  0.18897877  1
  Zn  Zn165  1  0.93674176  0.43687938  0.68831157  1
  Zn  Zn166  1  0.93645025  0.93708500  0.18784012  1
  Zn  Zn167  1  0.93928176  0.93913590  0.68495816  1
  Zn  Zn168  1  0.06076459  0.06138012  0.31319422  1
  Zn  Zn169  1  0.06159385  0.06147964  0.81267937  1
  Zn  Zn170  1  0.06393269  0.56239543  0.31389599  1
  Zn  Zn171  1  0.06301810  0.56284526  0.81382457  1
  Zn  Zn172  1  0.56319569  0.06330913  0.30950657  1
  Zn  Zn173  1  0.56117214  0.06333146  0.81172189  1
  Zn  Zn174  1  0.56332265  0.56084698  0.31155130  1
  Zn  Zn175  1  0.56292159  0.56314354  0.81313689  1
  Zn  Zn176  1  0.43847180  0.18655465  0.43829429  1
  Zn  Zn177  1  0.43547972  0.18838776  0.93690856  1
  Zn  Zn178  1  0.43629046  0.68739548  0.43723236  1
  Zn  Zn179  1  0.43998592  0.68512578  0.94009952  1
  Zn  Zn180  1  0.93633935  0.18843698  0.43628193  1
  Zn  Zn181  1  0.93685747  0.18789842  0.93659470  1
  Zn  Zn182  1  0.93843922  0.68800556  0.43805289  1
  Zn  Zn183  1  0.93703218  0.68950663  0.93824001  1
  Zn  Zn184  1  0.06366514  0.31414715  0.06233632  1
  Zn  Zn185  1  0.06263676  0.31091885  0.56215208  1
  Zn  Zn186  1  0.06091644  0.81220740  0.06342016  1
  Zn  Zn187  1  0.06228184  0.81198186  0.56385671  1
  Zn  Zn188  1  0.56176835  0.31379754  0.06143071  1
  Zn  Zn189  1  0.56532635  0.31199178  0.56138810  1
  Zn  Zn190  1  0.56246827  0.81303608  0.06059538  1
  Zn  Zn191  1  0.55938749  0.81287069  0.56031781  1
  O  O192  1  0.11857478  0.11983594  0.11881060  1
  O  O193  1  0.11783474  0.12703163  0.61595101  1
  O  O194  1  0.11917223  0.61914665  0.11992402  1
  O  O195  1  0.11991965  0.61932866  0.62083056  1
  O  O196  1  0.61676759  0.12376980  0.11689590  1
  O  O197  1  0.61698486  0.11459169  0.62559628  1
  O  O198  1  0.62187353  0.61605503  0.12724091  1
  O  O199  1  0.61915555  0.61981739  0.62138059  1
  O  O200  1  0.38293257  0.37613013  0.38249236  1
  O  O201  1  0.38171999  0.38259533  0.87345327  1
  O  O202  1  0.38020625  0.88440046  0.37310960  1
  O  O203  1  0.38102617  0.88267007  0.87497989  1
  O  O204  1  0.88236240  0.38080432  0.37739407  1
  O  O205  1  0.88137859  0.38173287  0.87618124  1
  O  O206  1  0.88118853  0.87282111  0.38487678  1
  O  O207  1  0.87567219  0.88217990  0.88150966  1
  O  O208  1  0.25692839  0.00507870  0.36876381  1
  O  O209  1  0.25373646  0.00725586  0.86913328  1
  O  O210  1  0.25183222  0.50122961  0.36304307  1
  O  O211  1  0.25565575  0.50603081  0.86822030  1
  O  O212  1  0.75186812  0.00617965  0.36858261  1
  O  O213  1  0.75624566  0.00267809  0.86756134  1
  O  O214  1  0.75664240  0.50479641  0.37526039  1
  O  O215  1  0.75474046  0.50424224  0.87002356  1
  O  O216  1  0.24584230  0.49607330  0.13261379  1
  O  O217  1  0.24466171  0.49520597  0.63080632  1
  O  O218  1  0.24249223  1.00113998  0.13109985  1
  O  O219  1  0.24852355  0.99477194  0.63078578  1
  O  O220  1  0.74426579  0.49043559  0.12666341  1
  O  O221  1  0.74467080  0.49488235  0.63147047  1
  O  O222  1  0.74759693  0.98886915  0.13131696  1
  O  O223  1  0.73858546  0.99853245  0.63058200  1
  O  O224  1  0.00228988  0.36806009  0.25632272  1
  O  O225  1  0.00707349  0.37442374  0.75634017  1
  O  O226  1  0.00484531  0.86902665  0.25532407  1
  O  O227  1  0.00884671  0.87079681  0.74889844  1
  O  O228  1  0.50150230  0.36740996  0.25727014  1
  O  O229  1  0.50727794  0.37015660  0.75436524  1
  O  O230  1  0.50660267  0.86924423  0.25501022  1
  O  O231  1  0.50414794  0.86965533  0.75595469  1
  O  O232  1  0.49823640  0.13223207  0.24208270  1
  O  O233  1  0.49925227  0.13137070  0.73836057  1
  O  O234  1  0.49571101  0.63038947  0.24471919  1
  O  O235  1  0.49413607  0.63080247  0.74449177  1
  O  O236  1  0.99456732  0.13026505  0.24401817  1
  O  O237  1  0.99203462  0.12522216  0.74174031  1
  O  O238  1  0.99628307  0.62918781  0.24599083  1
  O  O239  1  0.99473651  0.62911986  0.74471737  1
  O  O240  1  0.36672737  0.25278848  0.00540667  1
  O  O241  1  0.37523796  0.25722472  0.50682485  1
  O  O242  1  0.37612761  0.75003675  0.01278688  1
  O  O243  1  0.36810466  0.75069601  0.50704663  1
  O  O244  1  0.86793186  0.25008967  0.00683942  1
  O  O245  1  0.86154993  0.25087060  0.50143452  1
  O  O246  1  0.87183835  0.75952409  0.00302268  1
  O  O247  1  0.87586993  0.75832061  0.50703884  1
  O  O248  1  0.12639071  0.23959013  0.49294451  1
  O  O249  1  0.13019890  0.24453825  0.99432177  1
  O  O250  1  0.12995272  0.74456489  0.49587921  1
  O  O251  1  0.12526241  0.74168804  0.99886665  1
  O  O252  1  0.63637555  0.24716218  0.49437325  1
  O  O253  1  0.62914076  0.24479451  0.99418280  1
  O  O254  1  0.62442753  0.74272269  0.49402383  1
  O  O255  1  0.62806920  0.74869238  0.99091798  1
  O  O256  1  0.49444797  0.24602198  0.12906591  1
  O  O257  1  0.49817276  0.24271636  0.62917967  1
  O  O258  1  0.49454005  0.74478306  0.13130520  1
  O  O259  1  0.49397595  0.74475225  0.63101782  1
  O  O260  1  0.99492544  0.24458779  0.12903592  1
  O  O261  1  0.99714475  0.23801022  0.62683826  1
  O  O262  1  0.99850242  0.74201046  0.13322649  1
  O  O263  1  0.99487626  0.74267252  0.63164921  1
  O  O264  1  0.00486472  0.25490076  0.36912507  1
  O  O265  1  0.00700118  0.25682199  0.87419697  1
  O  O266  1  0.00736255  0.75486543  0.36977592  1
  O  O267  1  0.00263757  0.75263500  0.86596106  1
  O  O268  1  0.50590201  0.25370865  0.37067884  1
  O  O269  1  0.50491520  0.25575825  0.86824334  1
  O  O270  1  0.50515466  0.75460475  0.36881006  1
  O  O271  1  0.50398436  0.75530189  0.86911215  1
  O  O272  1  0.24028416  0.12745799  0.49359704  1
  O  O273  1  0.24269282  0.13173412  0.99327386  1
  O  O274  1  0.24338278  0.63133861  0.49995737  1
  O  O275  1  0.24256849  0.62565727  0.99377524  1
  O  O276  1  0.74927442  0.13258800  0.49472523  1
  O  O277  1  0.74188639  0.13070140  0.99931386  1
  O  O278  1  0.74266942  0.62571814  0.49474971  1
  O  O279  1  0.74833796  0.62760064  0.99210428  1
  O  O280  1  0.25053408  0.36928103  0.00593137  1
  O  O281  1  0.25722075  0.37492414  0.50650162  1
  O  O282  1  0.25363193  0.87143187  0.00456820  1
  O  O283  1  0.24959799  0.86865479  0.50682780  1
  O  O284  1  0.75141405  0.36792977  0.01145041  1
  O  O285  1  0.75058864  0.36501446  0.50692389  1
  O  O286  1  0.75486268  0.87651005  0.00946935  1
  O  O287  1  0.76189472  0.87117718  0.50215133  1
  O  O288  1  0.13532497  0.50018778  0.24407643  1
  O  O289  1  0.13072164  0.49530450  0.74427183  1
  O  O290  1  0.12862058  0.99520630  0.24463206  1
  O  O291  1  0.12995223  0.99166136  0.74823125  1
  O  O292  1  0.62906790  0.49645580  0.23864357  1
  O  O293  1  0.63097330  0.49466304  0.74497715  1
  O  O294  1  0.63185548  0.99204356  0.24757882  1
  O  O295  1  0.62840709  0.99513557  0.74223546  1
  O  O296  1  0.36903599  0.00175029  0.25956882  1
  O  O297  1  0.36681154  0.00290244  0.75644164  1
  O  O298  1  0.36578455  0.50555362  0.24909829  1
  O  O299  1  0.36954881  0.50662072  0.75430553  1
  O  O300  1  0.86784208  0.00643156  0.25122266  1
  O  O301  1  0.87054297  0.00704365  0.75322375  1
  O  O302  1  0.87537141  0.50626385  0.25892492  1
  O  O303  1  0.86951199  0.50612343  0.75599508  1
  O  O304  1  0.11847214  0.36827677  0.37353178  1
  O  O305  1  0.12033377  0.37138754  0.86918502  1
  O  O306  1  0.11978013  0.86938947  0.36990238  1
  O  O307  1  0.12352721  0.87466611  0.86189361  1
  O  O308  1  0.61906834  0.36753543  0.37429028  1
  O  O309  1  0.62056409  0.37030365  0.86948725  1
  O  O310  1  0.62016673  0.86885372  0.36959182  1
  O  O311  1  0.61808275  0.87072147  0.86857912  1
  O  O312  1  0.38078615  0.13307759  0.12553902  1
  O  O313  1  0.38470347  0.13018852  0.62449825  1
  O  O314  1  0.38202773  0.63238068  0.13093791  1
  O  O315  1  0.38044252  0.63044635  0.63134205  1
  O  O316  1  0.87982134  0.12961746  0.13011120  1
  O  O317  1  0.88240176  0.12438002  0.63312989  1
  O  O318  1  0.88179463  0.62430302  0.13271338  1
  O  O319  1  0.88106236  0.62890386  0.63132896  1
  O  O320  1  0.25388656  0.25523451  0.11956031  1
  O  O321  1  0.25778116  0.25780803  0.62280250  1
  O  O322  1  0.26259026  0.75034177  0.12503173  1
  O  O323  1  0.25486955  0.75577746  0.62035555  1
  O  O324  1  0.75387116  0.25648696  0.12071422  1
  O  O325  1  0.74876140  0.25416337  0.61644281  1
  O  O326  1  0.75149786  0.76242835  0.12590855  1
  O  O327  1  0.75830161  0.75190221  0.62365465  1
  O  O328  1  0.24389416  0.24418317  0.37544011  1
  O  O329  1  0.24414772  0.24637009  0.87893745  1
  O  O330  1  0.24360448  0.74913528  0.38094311  1
  O  O331  1  0.24785762  0.74112545  0.87690073  1
  O  O332  1  0.74567705  0.24495831  0.38195671  1
  O  O333  1  0.74275888  0.24872142  0.88204314  1
  O  O334  1  0.74235265  0.74178316  0.37748951  1
  O  O335  1  0.74259992  0.74351534  0.87347844  1
  O  O336  1  0.00477016  0.12022192  0.00546376  1
  O  O337  1  0.00705996  0.12580698  0.50637121  1
  O  O338  1  0.00466440  0.61910173  0.00603329  1
  O  O339  1  0.00645287  0.61939937  0.50674358  1
  O  O340  1  0.50415334  0.12112192  0.00418999  1
  O  O341  1  0.50401828  0.12250408  0.51264760  1
  O  O342  1  0.50540036  0.62101915  0.00990800  1
  O  O343  1  0.50519604  0.61978092  0.50625823  1
  O  O344  1  0.49666466  0.38021735  0.49605098  1
  O  O345  1  0.49808445  0.37809142  0.99048987  1
  O  O346  1  0.49518140  0.87768193  0.49021367  1
  O  O347  1  0.49770864  0.88295816  0.99261674  1
  O  O348  1  0.99918975  0.38097640  0.49469160  1
  O  O349  1  0.99929977  0.38241566  0.99367162  1
  O  O350  1  0.99231051  0.87510946  0.49534142  1
  O  O351  1  0.99242308  0.88264222  0.99995403  1
  O  O352  1  0.50025489  0.49291361  0.38187053  1
  O  O353  1  0.49447470  0.49416906  0.87405704  1
  O  O354  1  0.49137250  0.99570436  0.37334502  1
  O  O355  1  0.49334865  0.99621001  0.87844173  1
  O  O356  1  0.99658689  0.49476022  0.38173651  1
  O  O357  1  0.99487654  0.49533574  0.88033560  1
  O  O358  1  0.99644351  0.99087227  0.37708963  1
  O  O359  1  0.99306254  0.99862589  0.88202935  1
  O  O360  1  0.00464073  0.00649192  0.11982720  1
  O  O361  1  0.00365376  0.01415434  0.62158063  1
  O  O362  1  0.00567258  0.50461647  0.12076287  1
  O  O363  1  0.00602464  0.50494593  0.62086869  1
  O  O364  1  0.49961064  0.00707154  0.11816066  1
  O  O365  1  0.50715767  0.00718179  0.62602499  1
  O  O366  1  0.50974692  0.50431030  0.12673904  1
  O  O367  1  0.50620428  0.50575437  0.62072016  1
  O  O368  1  0.24952713  0.38545402  0.24381866  1
  O  O369  1  0.24471615  0.38192680  0.74377377  1
  O  O370  1  0.24149055  0.88239014  0.24751057  1
  O  O371  1  0.24145809  0.88043796  0.74475405  1
  O  O372  1  0.74911081  0.37415274  0.23794674  1
  O  O373  1  0.74467759  0.37991170  0.74604417  1
  O  O374  1  0.74633651  0.87859859  0.24379406  1
  O  O375  1  0.74200203  0.88163755  0.74701661  1
  O  O376  1  0.25058827  0.11792821  0.25669259  1
  O  O377  1  0.24914971  0.11977546  0.75505833  1
  O  O378  1  0.25569422  0.61472884  0.24981634  1
  O  O379  1  0.25513298  0.61987914  0.75457685  1
  O  O380  1  0.75468125  0.11974157  0.25381781  1
  O  O381  1  0.76001865  0.11840137  0.74961837  1
  O  O382  1  0.75837989  0.62237479  0.25853111  1
  O  O383  1  0.75579122  0.61844514  0.75549422  1
  O  O384  1  0.36977968  0.11622166  0.37400364  1
  O  O385  1  0.36715018  0.12040756  0.87130929  1
  O  O386  1  0.37326819  0.62240085  0.36624293  1
  O  O387  1  0.37065160  0.62042351  0.86884081  1
  O  O388  1  0.86835229  0.12406093  0.36752257  1
  O  O389  1  0.87466644  0.11874348  0.86436444  1
  O  O390  1  0.87128202  0.61874317  0.37202450  1
  O  O391  1  0.86980058  0.61953086  0.86903793  1
  O  O392  1  0.13199757  0.38236222  0.12690841  1
  O  O393  1  0.13035768  0.38037040  0.62955130  1
  O  O394  1  0.12389732  0.88242397  0.13237030  1
  O  O395  1  0.13000121  0.87703123  0.63488843  1
  O  O396  1  0.63395905  0.38135217  0.12652772  1
  O  O397  1  0.63049353  0.38092675  0.63150285  1
  O  O398  1  0.63375735  0.87559878  0.13122531  1
  O  O399  1  0.62219792  0.88391812  0.63081541  1
  O  O400  1  0.11792667  0.25070444  0.25558037  1
  O  O401  1  0.12371395  0.25786160  0.75625561  1
  O  O402  1  0.12005515  0.75475974  0.25531011  1
  O  O403  1  0.11936775  0.76009908  0.75022330  1
  O  O404  1  0.61811285  0.25126743  0.25662540  1
  O  O405  1  0.62063527  0.25555742  0.75485940  1
  O  O406  1  0.61957615  0.75470530  0.25650098  1
  O  O407  1  0.61761286  0.75545853  0.75478612  1
  O  O408  1  0.38155577  0.24827485  0.24261349  1
  O  O409  1  0.38297019  0.24931807  0.74175243  1
  O  O410  1  0.38083542  0.74493349  0.24233485  1
  O  O411  1  0.37954830  0.74482094  0.74458037  1
  O  O412  1  0.88067313  0.24317922  0.24362280  1
  O  O413  1  0.87581095  0.23716667  0.74954363  1
  O  O414  1  0.88319229  0.74166994  0.25020762  1
  O  O415  1  0.88064750  0.74489491  0.74507968  1
  O  O416  1  0.38285719  0.49404603  0.49978365  1
  O  O417  1  0.37751439  0.49846289  0.99123830  1
  O  O418  1  0.37528950  0.99795096  0.48587793  1
  O  O419  1  0.38062607  1.00081896  0.99202055  1
  O  O420  1  0.88310665  0.49873765  0.49509538  1
  O  O421  1  0.88222787  0.49839282  0.99330921  1
  O  O422  1  0.87708874  0.98753901  0.49908062  1
  O  O423  1  0.87936119  0.99571708  0.99474672  1
  O  O424  1  0.11892826  0.00622528  0.00470224  1
  O  O425  1  0.12324499  0.01395206  0.50017791  1
  O  O426  1  0.11921919  0.50649077  0.00565592  1
  O  O427  1  0.12032625  0.50513572  0.50614211  1
  O  O428  1  0.61619508  0.00756823  -0.00034880  1
  O  O429  1  0.62359592  -0.00060055  0.51163156  1
  O  O430  1  0.62442479  0.50152723  0.01472088  1
  O  O431  1  0.61964961  0.50524427  0.50707128  1
  O  O432  1  0.36827480  0.36852810  0.12252474  1
  O  O433  1  0.37143839  0.37080565  0.61971941  1
  O  O434  1  0.37514006  0.86311828  0.12508717  1
  O  O435  1  0.36805044  0.86851788  0.62453749  1
  O  O436  1  0.86614000  0.36860197  0.12414321  1
  O  O437  1  0.86704422  0.37126517  0.62458614  1
  O  O438  1  0.86537180  0.87454296  0.11956915  1
  O  O439  1  0.87583617  0.86932887  0.61656070  1
  O  O440  1  0.12834373  0.13016701  0.38184423  1
  O  O441  1  0.12918254  0.13094531  0.88000573  1
  O  O442  1  0.12670858  0.63182912  0.38281725  1
  O  O443  1  0.13174581  0.62515283  0.88142348  1
  O  O444  1  0.63209645  0.13063630  0.37642656  1
  O  O445  1  0.62505783  0.13263304  0.87983754  1
  O  O446  1  0.62973236  0.62879469  0.38048575  1
  O  O447  1  0.63144221  0.63138939  0.87466364  1
