# generated using pymatgen
data_V3Zn3O8
_symmetry_space_group_name_H-M   'P 1'
_cell_length_a   17.08988435
_cell_length_b   17.08876928
_cell_length_c   17.08913191
_cell_angle_alpha   89.99308312
_cell_angle_beta   89.99966298
_cell_angle_gamma   90.01702640
_symmetry_Int_Tables_number   1
_chemical_formula_structural   V3Zn3O8
_chemical_formula_sum   'V96 Zn96 O256'
_cell_volume   4990.79682322
_cell_formula_units_Z   32
loop_
 _symmetry_equiv_pos_site_id
 _symmetry_equiv_pos_as_xyz
  1  'x, y, z'
loop_
 _atom_site_type_symbol
 _atom_site_label
 _atom_site_symmetry_multiplicity
 _atom_site_fract_x
 _atom_site_fract_y
 _atom_site_fract_z
 _atom_site_occupancy
  V  V0  1  0.50047637  0.62527503  0.12570204  1
  V  V1  1  0.00165025  0.50060462  0.00005945  1
  V  V2  1  0.49942448  0.24978906  0.25021397  1
  V  V3  1  0.25057800  0.37525253  0.12556835  1
  V  V4  1  0.25023740  0.25177571  0.00075005  1
  V  V5  1  0.49983797  0.37591628  0.87519743  1
  V  V6  1  0.25006131  0.25094529  0.50031807  1
  V  V7  1  0.87337667  -0.00040402  0.87590098  1
  V  V8  1  0.62566311  0.49925394  0.12479098  1
  V  V9  1  0.24994564  -0.00051148  0.25030028  1
  V  V10  1  0.75074144  0.37267134  0.12420827  1
  V  V11  1  -0.00060016  0.24988251  0.24946664  1
  V  V12  1  0.62386305  -0.00237020  0.12448620  1
  V  V13  1  0.00011400  0.37507212  0.87500552  1
  V  V14  1  0.12642474  0.37578875  0.24971379  1
  V  V15  1  0.49908666  0.12414103  0.62487272  1
  V  V16  1  0.12166864  0.87734174  0.74965409  1
  V  V17  1  0.50051878  0.37450487  0.37516983  1
  V  V18  1  0.75140816  0.74966162  0.49983389  1
  V  V19  1  0.50011761  0.49919418  -0.00056225  1
  V  V20  1  0.74982256  0.12398106  0.37427412  1
  V  V21  1  0.37488910  0.25026363  0.62534598  1
  V  V22  1  0.75094057  0.62437327  0.37537661  1
  V  V23  1  -0.00106790  0.25038554  0.74947336  1
  V  V24  1  0.37609527  -0.00088596  0.37594420  1
  V  V25  1  0.87498083  0.37467395  0.49949298  1
  V  V26  1  0.62473886  0.24998387  0.37413074  1
  V  V27  1  0.75077037  -0.00151397  0.24975508  1
  V  V28  1  0.62301205  0.75054096  0.87250107  1
  V  V29  1  0.25036935  0.12488198  0.37573912  1
  V  V30  1  0.37509221  0.24962237  0.12556112  1
  V  V31  1  0.62299903  0.12356405  0.00061704  1
  V  V32  1  -0.00146984  0.12548191  0.12538274  1
  V  V33  1  0.49932333  0.62804225  0.62667049  1
  V  V34  1  0.50011404  0.87549049  0.37634483  1
  V  V35  1  0.12316161  0.00136478  0.62544801  1
  V  V36  1  0.12549603  0.37674430  0.74927068  1
  V  V37  1  0.00047871  0.37502006  0.37475598  1
  V  V38  1  0.62575947  0.37428709  0.74984390  1
  V  V39  1  0.74958235  0.37401364  0.62509698  1
  V  V40  1  0.87500137  0.87489430  0.49974257  1
  V  V41  1  0.74910617  0.24897812  0.49898670  1
  V  V42  1  0.25017116  0.87525027  0.62454093  1
  V  V43  1  0.87511515  0.37416160  0.00025338  1
  V  V44  1  0.50125895  0.74862466  0.24965808  1
  V  V45  1  0.25114063  0.50048449  0.24938344  1
  V  V46  1  0.00082293  0.62447602  0.62418988  1
  V  V47  1  0.62471103  0.24867161  0.87568734  1
  V  V48  1  0.37613388  0.62549226  0.24892977  1
  V  V49  1  0.12634638  0.87564360  0.24940804  1
  V  V50  1  0.50114598  0.49991736  0.49971839  1
  V  V51  1  0.62272207  -0.00075616  0.62482629  1
  V  V52  1  0.12389284  0.12497719  0.00009587  1
  V  V53  1  0.25018923  0.62548616  0.87436415  1
  V  V54  1  0.37463963  -0.00102365  0.87730681  1
  V  V55  1  0.75059838  0.49925246  0.24960047  1
  V  V56  1  0.12690588  0.74979408  0.37534794  1
  V  V57  1  0.24879475  0.12685556  0.87447757  1
  V  V58  1  0.25139336  0.62642084  0.37649604  1
  V  V59  1  0.00033536  0.87530582  0.37538451  1
  V  V60  1  0.25048530  0.50169133  0.75001462  1
  V  V61  1  0.37555105  0.50101177  0.87416942  1
  V  V62  1  0.87551070  0.62490567  0.74980390  1
  V  V63  1  0.62520327  0.74956172  0.37453446  1
  V  V64  1  0.87461556  0.24943780  0.62516904  1
  V  V65  1  0.12381589  0.12615978  0.50005056  1
  V  V66  1  0.62536483  0.62374473  0.50010490  1
  V  V67  1  0.87416206  0.75066157  0.62448093  1
  V  V68  1  0.00181747  0.62411670  0.12465147  1
  V  V69  1  0.75119203  0.62345964  0.87514945  1
  V  V70  1  0.25209539  0.75267934  0.00014886  1
  V  V71  1  -0.00133729  0.75118960  0.75014172  1
  V  V72  1  0.87591445  0.49965964  0.37482952  1
  V  V73  1  0.74803780  -0.00207718  0.74971374  1
  V  V74  1  0.37274198  0.12641415  0.75086475  1
  V  V75  1  0.12519240  0.25054883  0.37519998  1
  V  V76  1  0.87613857  0.49955897  0.87478428  1
  V  V77  1  -0.00128814  0.87590428  0.87454329  1
  V  V78  1  0.37525855  0.12521639  0.25049939  1
  V  V79  1  0.37614817  0.37532714  0.49947067  1
  V  V80  1  0.12587465  0.62576474  -0.00028336  1
  V  V81  1  0.00166024  0.50110851  0.50070676  1
  V  V82  1  0.12556092  -0.00016204  0.12535886  1
  V  V83  1  0.87569997  0.87364792  0.00039865  1
  V  V84  1  0.62594942  0.62406622  -0.00011043  1
  V  V85  1  -0.00171718  0.12657953  0.62454049  1
  V  V86  1  0.49926363  0.25111287  0.75005042  1
  V  V87  1  -0.00201271  0.00034201  0.49905601  1
  V  V88  1  0.74907916  0.12400682  0.87557529  1
  V  V89  1  0.87592597  0.74969040  0.12476384  1
  V  V90  1  0.87694673  0.62480301  0.25032468  1
  V  V91  1  0.75162696  0.74833280  0.00099143  1
  V  V92  1  0.00134660  0.75000527  0.25002320  1
  V  V93  1  0.24997159  0.37709256  0.62520068  1
  V  V94  1  0.12440889  0.25068876  0.87503783  1
  V  V95  1  0.75077424  0.49796325  0.74964546  1
  Zn  Zn96  1  0.37417956  0.62880838  0.74900852  1
  Zn  Zn97  1  -0.00066962  -0.00060707  0.00005838  1
  Zn  Zn98  1  0.74761777  0.87384062  0.62461581  1
  Zn  Zn99  1  0.37402070  0.75222525  0.62613325  1
  Zn  Zn100  1  0.12690925  0.62602085  0.50211827  1
  Zn  Zn101  1  0.12653870  0.50284145  0.62373648  1
  Zn  Zn102  1  0.75060947  0.87258950  0.12664249  1
  Zn  Zn103  1  0.62528019  0.49922649  0.62550170  1
  Zn  Zn104  1  0.25304396  0.87537398  0.12443388  1
  Zn  Zn105  1  0.37421364  0.87502078  0.50263241  1
  Zn  Zn106  1  0.49533922  0.75241553  0.75072836  1
  Zn  Zn107  1  0.62274418  0.12404222  0.49994750  1
  Zn  Zn108  1  0.25140353  0.75073326  0.50187824  1
  Zn  Zn109  1  0.87500897  -0.00016789  0.37355202  1
  Zn  Zn110  1  0.62433094  0.37431394  0.24924858  1
  Zn  Zn111  1  0.12499605  0.75243032  0.87503169  1
  Zn  Zn112  1  0.49781968  -0.00411282  0.00131561  1
  Zn  Zn113  1  0.49864961  0.00040059  0.50114948  1
  Zn  Zn114  1  0.62094790  0.87191503  0.74923934  1
  Zn  Zn115  1  0.37659189  0.50062234  0.37470928  1
  Zn  Zn116  1  0.75111086  0.24881090  0.00010606  1
  Zn  Zn117  1  0.87477199  0.12555303  0.24867766  1
  Zn  Zn118  1  0.37743808  0.75426464  0.12374255  1
  Zn  Zn119  1  0.37529490  0.37491627  0.00054047  1
  Zn  Zn120  1  0.12665338  0.49999395  0.12454294  1
  Zn  Zn121  1  0.37684321  0.87623214  0.00194613  1
  Zn  Zn122  1  0.49846276  0.12400777  0.12517704  1
  Zn  Zn123  1  0.87367113  0.24817758  0.12440883  1
  Zn  Zn124  1  0.87412675  0.12508902  0.75093844  1
  Zn  Zn125  1  0.62590555  0.87284143  0.24838151  1
  Zn  Zn126  1  0.24779745  0.00171709  0.75047720  1
  Zn  Zn127  1  0.49841586  0.87492856  0.87513864  1
  Zn  Zn128  1  0.18747188  0.18754291  0.18781975  1
  Zn  Zn129  1  0.18660281  0.18926654  0.68743810  1
  Zn  Zn130  1  0.18902520  0.68784144  0.18586962  1
  Zn  Zn131  1  0.18516259  0.68967963  0.68891382  1
  Zn  Zn132  1  0.68536382  0.18618874  0.18835448  1
  Zn  Zn133  1  0.68666694  0.18536866  0.68830087  1
  Zn  Zn134  1  0.68792748  0.68626888  0.18791655  1
  Zn  Zn135  1  0.68710257  0.68529841  0.68649394  1
  Zn  Zn136  1  0.31375180  0.31294186  0.31275989  1
  Zn  Zn137  1  0.31274486  0.31498872  0.81313671  1
  Zn  Zn138  1  0.31508318  0.81187495  0.31074102  1
  Zn  Zn139  1  0.31097285  0.81269116  0.80915097  1
  Zn  Zn140  1  0.81350773  0.31120296  0.31026846  1
  Zn  Zn141  1  0.81212291  0.31067167  0.81333203  1
  Zn  Zn142  1  0.81364288  0.81297552  0.31296922  1
  Zn  Zn143  1  0.81056022  0.81289554  0.81314867  1
  Zn  Zn144  1  0.18787712  0.44048112  0.43751655  1
  Zn  Zn145  1  0.18841129  0.43858563  0.93789244  1
  Zn  Zn146  1  0.18634312  0.93807564  0.43860816  1
  Zn  Zn147  1  0.18726843  0.93839533  0.93666661  1
  Zn  Zn148  1  0.68621707  0.43673529  0.43729892  1
  Zn  Zn149  1  0.68736135  0.43654529  0.93752505  1
  Zn  Zn150  1  0.68588841  0.93652473  0.43884991  1
  Zn  Zn151  1  0.68887724  0.93426185  0.93954909  1
  Zn  Zn152  1  0.31073010  0.06406203  0.06289626  1
  Zn  Zn153  1  0.31261535  0.05966124  0.56222632  1
  Zn  Zn154  1  0.31416095  0.56355896  0.06201054  1
  Zn  Zn155  1  0.31590336  0.56178607  0.56196159  1
  Zn  Zn156  1  0.81162481  0.06049682  0.06187883  1
  Zn  Zn157  1  0.81161468  0.06201367  0.56196331  1
  Zn  Zn158  1  0.81425571  0.56121463  0.06263507  1
  Zn  Zn159  1  0.81374914  0.56163777  0.56315464  1
  Zn  Zn160  1  0.43683682  0.43705799  0.18821845  1
  Zn  Zn161  1  0.43753540  0.44093801  0.68683847  1
  Zn  Zn162  1  0.43733135  0.93545448  0.18802509  1
  Zn  Zn163  1  0.43721232  0.93666564  0.69494506  1
  Zn  Zn164  1  0.93820889  0.43740250  0.18646707  1
  Zn  Zn165  1  0.93777815  0.43754949  0.68633576  1
  Zn  Zn166  1  0.93772651  0.93718172  0.18705112  1
  Zn  Zn167  1  0.93470954  0.93808921  0.68643084  1
  Zn  Zn168  1  0.06273889  0.06223553  0.31206232  1
  Zn  Zn169  1  0.05958021  0.06269596  0.81230603  1
  Zn  Zn170  1  0.06558750  0.56180708  0.31281214  1
  Zn  Zn171  1  0.06477879  0.56372101  0.81218564  1
  Zn  Zn172  1  0.56309297  0.06214047  0.31090856  1
  Zn  Zn173  1  0.55976081  0.06215853  0.81160751  1
  Zn  Zn174  1  0.56344907  0.56077897  0.31251396  1
  Zn  Zn175  1  0.56343967  0.56266019  0.81116503  1
  Zn  Zn176  1  0.43835505  0.18680058  0.43863229  1
  Zn  Zn177  1  0.43708774  0.18636151  0.93862220  1
  Zn  Zn178  1  0.43451846  0.69125283  0.44166159  1
  Zn  Zn179  1  0.43657028  0.68545334  0.93798275  1
  Zn  Zn180  1  0.93540749  0.18742381  0.43631477  1
  Zn  Zn181  1  0.93539615  0.18742157  0.93864413  1
  Zn  Zn182  1  0.93922436  0.68786640  0.43804396  1
  Zn  Zn183  1  0.93914481  0.68809591  0.93694945  1
  Zn  Zn184  1  0.06328301  0.31279199  0.06332230  1
  Zn  Zn185  1  0.06293620  0.31428504  0.56311291  1
  Zn  Zn186  1  0.06431746  0.81293980  0.06170516  1
  Zn  Zn187  1  0.06402696  0.81145802  0.56168608  1
  Zn  Zn188  1  0.56219718  0.31141039  0.06268996  1
  Zn  Zn189  1  0.56320466  0.31153348  0.56198899  1
  Zn  Zn190  1  0.56093602  0.81394173  0.05878667  1
  Zn  Zn191  1  0.56387693  0.81248074  0.56153962  1
  O  O192  1  0.11679564  0.12088034  0.12081357  1
  O  O193  1  0.11832697  0.12258317  0.61876664  1
  O  O194  1  0.11829313  0.62310010  0.11868307  1
  O  O195  1  0.11606885  0.62353629  0.62314484  1
  O  O196  1  0.62509752  0.11616822  0.11653202  1
  O  O197  1  0.61781867  0.11588744  0.62558477  1
  O  O198  1  0.62125013  0.61820889  0.11921833  1
  O  O199  1  0.61820017  0.62178362  0.61762857  1
  O  O200  1  0.38219474  0.37505616  0.38249522  1
  O  O201  1  0.38265538  0.38195088  0.87672576  1
  O  O202  1  0.38532797  0.88074034  0.37364637  1
  O  O203  1  0.37005378  0.89014310  0.87516220  1
  O  O204  1  0.88046384  0.37986047  0.37990904  1
  O  O205  1  0.88063168  0.38020136  0.87965244  1
  O  O206  1  0.88310551  0.87555329  0.38151516  1
  O  O207  1  0.87887931  0.87963967  0.88063413  1
  O  O208  1  0.25440477  0.00606605  0.37015796  1
  O  O209  1  0.25614938  0.00990982  0.87374923  1
  O  O210  1  0.25176103  0.51005438  0.36810950  1
  O  O211  1  0.25569613  0.50485347  0.87007704  1
  O  O212  1  0.74746876  0.00763824  0.36691185  1
  O  O213  1  0.75251949  0.00377093  0.86772940  1
  O  O214  1  0.75634079  0.50460557  0.37007628  1
  O  O215  1  0.75659552  0.50386337  0.86987393  1
  O  O216  1  0.24975747  0.49379955  0.13132801  1
  O  O217  1  0.25006776  0.49389394  0.63100430  1
  O  O218  1  0.24231070  1.00132356  0.13323769  1
  O  O219  1  0.24038805  0.99423786  0.62684344  1
  O  O220  1  0.74616991  0.49233802  0.12937517  1
  O  O221  1  0.75079023  0.49184775  0.63164640  1
  O  O222  1  0.74191059  0.99916666  0.13362634  1
  O  O223  1  0.74109385  1.00111956  0.63348452  1
  O  O224  1  0.00575426  0.37076619  0.25563946  1
  O  O225  1  0.00475633  0.37036137  0.75571807  1
  O  O226  1  0.00565073  0.86935147  0.25529308  1
  O  O227  1  0.00165664  0.87059772  0.75426914  1
  O  O228  1  0.50100299  0.36794412  0.25681380  1
  O  O229  1  0.50567137  0.37027128  0.75478537  1
  O  O230  1  0.50319412  0.86820559  0.26067271  1
  O  O231  1  0.50448978  0.87003069  0.75829787  1
  O  O232  1  0.49263047  0.13189513  0.25001720  1
  O  O233  1  0.49298967  0.13281106  0.74467705  1
  O  O234  1  0.49633263  0.62895448  0.24550657  1
  O  O235  1  0.50099157  0.62516271  0.73759176  1
  O  O236  1  1.00049315  0.13034038  0.24105694  1
  O  O237  1  0.99782699  0.13311530  0.74263395  1
  O  O238  1  0.99585678  0.62977220  0.24569392  1
  O  O239  1  0.99368635  0.63023874  0.74553650  1
  O  O240  1  0.36796931  0.25047917  0.00667032  1
  O  O241  1  0.36894956  0.25494823  0.50610749  1
  O  O242  1  0.36357598  0.74996713  0.00016722  1
  O  O243  1  0.36931006  0.75743205  0.50728200  1
  O  O244  1  0.87139491  0.25858154  0.00307826  1
  O  O245  1  0.86923130  0.25607734  0.50463897  1
  O  O246  1  0.87089580  0.75290943  0.00556499  1
  O  O247  1  0.87068394  0.75469184  0.50488492  1
  O  O248  1  0.13015150  0.24591571  0.49456106  1
  O  O249  1  0.12983944  0.24538419  0.99380882  1
  O  O250  1  0.12851171  0.74686617  0.49002350  1
  O  O251  1  0.13377372  0.74396391  0.99800452  1
  O  O252  1  0.63231101  0.24742864  0.49288844  1
  O  O253  1  0.62624415  0.23979203  0.99460507  1
  O  O254  1  0.63212682  0.74356638  0.49343258  1
  O  O255  1  0.63211331  0.74218719  0.99305528  1
  O  O256  1  0.49362522  0.24830114  0.13188814  1
  O  O257  1  0.49389415  0.24562575  0.63084382  1
  O  O258  1  0.50287550  0.74198672  0.13113916  1
  O  O259  1  0.50272792  0.73846383  0.62530198  1
  O  O260  1  1.00127878  0.24024950  0.13063726  1
  O  O261  1  0.99435315  0.24640320  0.62928119  1
  O  O262  1  0.99562821  0.74390205  0.13093033  1
  O  O263  1  0.99315233  0.74514893  0.63038686  1
  O  O264  1  0.00547073  0.25542449  0.37061876  1
  O  O265  1  0.00472963  0.25556052  0.86987861  1
  O  O266  1  0.00590905  0.75502291  0.36870412  1
  O  O267  1  -0.00056981  0.75767612  0.86739855  1
  O  O268  1  0.50488639  0.25460777  0.37030210  1
  O  O269  1  0.50464983  0.25503568  0.86933095  1
  O  O270  1  0.50548675  0.75646781  0.37046883  1
  O  O271  1  0.51408374  0.74431141  0.87508589  1
  O  O272  1  0.24388966  0.13139065  0.49551479  1
  O  O273  1  0.24243563  0.13321813  0.99466809  1
  O  O274  1  0.25032102  0.62475176  0.48708230  1
  O  O275  1  0.24535034  0.63177660  0.99459948  1
  O  O276  1  0.74865902  0.13037699  0.48994788  1
  O  O277  1  0.73900269  0.12502447  0.99473863  1
  O  O278  1  0.74676707  0.62916886  0.49407931  1
  O  O279  1  0.74631974  0.62793098  0.99470148  1
  O  O280  1  0.25075560  0.36873230  0.00672440  1
  O  O281  1  0.25539246  0.37013336  0.50448507  1
  O  O282  1  0.24928334  0.86373442  0.00023985  1
  O  O283  1  0.24816606  0.87631050  0.51254834  1
  O  O284  1  0.75550600  0.37545191  0.00926373  1
  O  O285  1  0.75590336  0.36931812  0.50449320  1
  O  O286  1  0.75842834  0.86583155  0.00276172  1
  O  O287  1  0.75661038  0.86715530  0.49985774  1
  O  O288  1  0.13235844  0.49272614  0.24844374  1
  O  O289  1  0.13179788  0.49287503  0.74897163  1
  O  O290  1  0.13068246  0.99521715  0.24595549  1
  O  O291  1  0.12299568  0.99561422  0.74233981  1
  O  O292  1  0.63307937  0.49843592  0.24288802  1
  O  O293  1  0.63351463  0.49189964  0.74976836  1
  O  O294  1  0.63439441  0.99991869  0.24088970  1
  O  O295  1  0.63258083  1.00022599  0.74269568  1
  O  O296  1  0.36938018  0.00614861  0.25622554  1
  O  O297  1  0.37084395  0.00991535  0.76000673  1
  O  O298  1  0.36930395  0.50740837  0.25274919  1
  O  O299  1  0.36794367  0.50218884  0.75681035  1
  O  O300  1  0.86304176  0.00215568  0.25121701  1
  O  O301  1  0.86402723  0.00152956  0.75529545  1
  O  O302  1  0.87107873  0.50534994  0.25573573  1
  O  O303  1  0.87073725  0.50445887  0.75598191  1
  O  O304  1  0.12009550  0.36942809  0.37005542  1
  O  O305  1  0.11931295  0.36984892  0.86980330  1
  O  O306  1  0.11949783  0.87036694  0.36899385  1
  O  O307  1  0.11640330  0.87659576  0.86741987  1
  O  O308  1  0.61906193  0.36765565  0.37272468  1
  O  O309  1  0.61999249  0.36880560  0.86963717  1
  O  O310  1  0.61644950  0.86846436  0.37350303  1
  O  O311  1  0.62745762  0.86024958  0.87584371  1
  O  O312  1  0.37538627  0.13158176  0.13283188  1
  O  O313  1  0.37825416  0.13100660  0.63061803  1
  O  O314  1  0.38404476  0.62658787  0.13140090  1
  O  O315  1  0.38794370  0.62576328  0.62518433  1
  O  O316  1  0.88673459  0.12546638  0.12481780  1
  O  O317  1  0.88078036  0.13209909  0.62546094  1
  O  O318  1  0.88176191  0.62948169  0.13086485  1
  O  O319  1  0.88020131  0.63065959  0.63102061  1
  O  O320  1  0.25494502  0.25502882  0.12071829  1
  O  O321  1  0.25530359  0.25642102  0.61947407  1
  O  O322  1  0.25215980  0.75063319  0.11297717  1
  O  O323  1  0.24668494  0.76388590  0.62474580  1
  O  O324  1  0.75000925  0.26157832  0.12454228  1
  O  O325  1  0.75464404  0.25394475  0.61987232  1
  O  O326  1  0.75781407  0.74852249  0.11939632  1
  O  O327  1  0.75628714  0.74965129  0.61783683  1
  O  O328  1  0.24481263  0.24476849  0.38088665  1
  O  O329  1  0.24371763  0.24703140  0.88014522  1
  O  O330  1  0.24505795  0.74069189  0.37278448  1
  O  O331  1  0.24772029  0.74408230  0.88343874  1
  O  O332  1  0.74558750  0.24268527  0.37809301  1
  O  O333  1  0.74196999  0.24292227  0.87572407  1
  O  O334  1  0.74625365  0.74307258  0.37940772  1
  O  O335  1  0.74480076  0.74196769  0.88098478  1
  O  O336  1  0.00586319  0.12484773  0.00960284  1
  O  O337  1  0.00451175  0.12151003  0.50423303  1
  O  O338  1  0.00503452  0.62017026  0.00460958  1
  O  O339  1  -0.00027669  0.61829475  0.50612455  1
  O  O340  1  0.51285738  0.12200116  0.00178572  1
  O  O341  1  0.50224637  0.12236982  0.50912257  1
  O  O342  1  0.50695867  0.61830587  0.00592953  1
  O  O343  1  0.50594541  0.62022315  0.50581286  1
  O  O344  1  0.49550576  0.37901720  0.49565818  1
  O  O345  1  0.50012765  0.38145639  0.99293281  1
  O  O346  1  0.49988730  0.87638060  0.48655885  1
  O  O347  1  0.49546328  0.87850687  0.99196272  1
  O  O348  1  0.99431253  0.37954021  0.49384592  1
  O  O349  1  0.99606330  0.38019910  0.99429881  1
  O  O350  1  0.99535059  0.88063385  0.49476487  1
  O  O351  1  0.99345980  0.87578987  0.99337644  1
  O  O352  1  0.49980553  0.49290155  0.38153049  1
  O  O353  1  0.49656078  0.49547791  0.87989248  1
  O  O354  1  0.49624277  0.99100383  0.37402908  1
  O  O355  1  0.48618381  1.00244297  0.87635689  1
  O  O356  1  0.99480737  0.49434090  0.37925909  1
  O  O357  1  0.99498867  0.49451691  0.87958771  1
  O  O358  1  0.99896366  0.99413327  0.38094254  1
  O  O359  1  0.99097318  0.99428159  0.87615973  1
  O  O360  1  0.00629495  0.01023178  0.12532139  1
  O  O361  1  0.00310861  0.00691669  0.61867732  1
  O  O362  1  0.00143028  0.50637968  0.11790285  1
  O  O363  1  -0.00031802  0.50624242  0.61854050  1
  O  O364  1  0.51252221  0.00254990  0.12585624  1
  O  O365  1  0.50819889  0.00531747  0.62770762  1
  O  O366  1  0.50635353  0.50420622  0.11998177  1
  O  O367  1  0.50298249  0.50846245  0.61788078  1
  O  O368  1  0.24553562  0.37976391  0.24600435  1
  O  O369  1  0.24481365  0.38060882  0.74479828  1
  O  O370  1  0.24329609  0.88188103  0.25043873  1
  O  O371  1  0.23939709  0.87911484  0.74121197  1
  O  O372  1  0.75020711  0.38119745  0.24030693  1
  O  O373  1  0.74556186  0.37857201  0.74504790  1
  O  O374  1  0.74759566  0.88515067  0.24950232  1
  O  O375  1  0.74669222  0.88749965  0.74856855  1
  O  O376  1  0.25449483  0.12031628  0.25718820  1
  O  O377  1  0.25486344  0.12729299  0.75671363  1
  O  O378  1  0.25557960  0.62075951  0.25674708  1
  O  O379  1  0.24864749  0.61881549  0.75654577  1
  O  O380  1  0.75032119  0.11673337  0.25758445  1
  O  O381  1  0.74996688  0.11414559  0.75655338  1
  O  O382  1  0.75739369  0.61904483  0.25572821  1
  O  O383  1  0.75677814  0.61781743  0.75514459  1
  O  O384  1  0.36895204  0.12034627  0.37043338  1
  O  O385  1  0.36811362  0.12110949  0.87036819  1
  O  O386  1  0.36631736  0.62554785  0.36859764  1
  O  O387  1  0.36815437  0.61721451  0.87319077  1
  O  O388  1  0.86168082  0.12295606  0.37233805  1
  O  O389  1  0.86734094  0.11824437  0.87465666  1
  O  O390  1  0.87075669  0.61947096  0.36957856  1
  O  O391  1  0.87078240  0.61893103  0.86968995  1
  O  O392  1  0.13207688  0.37583917  0.13243936  1
  O  O393  1  0.13220394  0.37620957  0.63173475  1
  O  O394  1  0.12599541  0.88208220  0.13237486  1
  O  O395  1  0.12851719  0.88233578  0.62993638  1
  O  O396  1  0.63503904  0.38089117  0.12481886  1
  O  O397  1  0.63207679  0.37474653  0.63196690  1
  O  O398  1  0.62839286  0.88547064  0.12534455  1
  O  O399  1  0.62678117  0.88586975  0.62705923  1
  O  O400  1  0.12025130  0.25574896  0.25679712  1
  O  O401  1  0.11873754  0.25683821  0.75558569  1
  O  O402  1  0.11995593  0.75540342  0.25483057  1
  O  O403  1  0.11503023  0.75911349  0.75217618  1
  O  O404  1  0.61785518  0.25119125  0.25644667  1
  O  O405  1  0.61880332  0.25430816  0.75585582  1
  O  O406  1  0.62007829  0.74925630  0.25717575  1
  O  O407  1  0.62795720  0.74848367  0.76226758  1
  O  O408  1  0.37926994  0.24407100  0.24553251  1
  O  O409  1  0.37998111  0.24678285  0.74460068  1
  O  O410  1  0.38390549  0.74261077  0.24767284  1
  O  O411  1  0.37727542  0.74596981  0.74463775  1
  O  O412  1  0.88397013  0.24701990  0.24572057  1
  O  O413  1  0.88114479  0.24899216  0.74325476  1
  O  O414  1  0.88160439  0.74397838  0.24552049  1
  O  O415  1  0.87805592  0.74429149  0.74466902  1
  O  O416  1  0.38303206  0.49200136  0.49694135  1
  O  O417  1  0.38285181  0.49855948  0.99292057  1
  O  O418  1  0.37779351  0.99657366  0.49110601  1
  O  O419  1  0.37465529  1.00335052  0.98951304  1
  O  O420  1  0.88030430  0.49359798  0.49357143  1
  O  O421  1  0.88169805  0.49490292  0.99347067  1
  O  O422  1  0.88051006  0.99336459  0.49793902  1
  O  O423  1  0.87503421  0.99190549  0.99361366  1
  O  O424  1  0.12321220  0.00788807  0.00674327  1
  O  O425  1  0.11732489  0.00777808  0.50498371  1
  O  O426  1  0.11853890  0.50681866  0.00104121  1
  O  O427  1  0.11649673  0.50292931  0.50214342  1
  O  O428  1  0.62688007  0.00733977  0.00802309  1
  O  O429  1  0.62382786  0.00219087  0.51292285  1
  O  O430  1  0.62030351  0.50531863  0.00445325  1
  O  O431  1  0.61981477  0.50618294  0.50142010  1
  O  O432  1  0.36816589  0.36748498  0.12380373  1
  O  O433  1  0.37009035  0.36932138  0.61970659  1
  O  O434  1  0.37078684  0.87263855  0.12125405  1
  O  O435  1  0.36089812  0.87982965  0.62716610  1
  O  O436  1  0.86561670  0.37588581  0.11905256  1
  O  O437  1  0.86959122  0.36885578  0.61903304  1
  O  O438  1  0.87507523  0.86685997  0.11917433  1
  O  O439  1  0.87228797  0.86806947  0.61758619  1
  O  O440  1  0.13028216  0.13093633  0.38071550  1
  O  O441  1  0.12795981  0.13169329  0.87962485  1
  O  O442  1  0.13600032  0.63143724  0.37382373  1
  O  O443  1  0.13163408  0.62741318  0.88219614  1
  O  O444  1  0.63533182  0.13000887  0.37550198  1
  O  O445  1  0.62852951  0.12822716  0.88235261  1
  O  O446  1  0.63174439  0.62951873  0.38017426  1
  O  O447  1  0.63257094  0.62964983  0.88078015  1
