# generated using pymatgen
data_V3Zn3O8
_symmetry_space_group_name_H-M   'P 1'
_cell_length_a   17.08705196
_cell_length_b   17.08822861
_cell_length_c   17.08753512
_cell_angle_alpha   90.00260841
_cell_angle_beta   90.00083205
_cell_angle_gamma   90.00726352
_symmetry_Int_Tables_number   1
_chemical_formula_structural   V3Zn3O8
_chemical_formula_sum   'V96 Zn96 O256'
_cell_volume   4989.34576336
_cell_formula_units_Z   32
loop_
 _symmetry_equiv_pos_site_id
 _symmetry_equiv_pos_as_xyz
  1  'x, y, z'
loop_
 _atom_site_type_symbol
 _atom_site_label
 _atom_site_symmetry_multiplicity
 _atom_site_fract_x
 _atom_site_fract_y
 _atom_site_fract_z
 _atom_site_occupancy
  V  V0  1  0.62615188  0.87632001  0.25030903  1
  V  V1  1  -0.00022866  0.62371075  0.62416655  1
  V  V2  1  0.37505700  0.87595782  -0.00049031  1
  V  V3  1  0.24954743  0.12497628  0.87383588  1
  V  V4  1  0.25118323  0.24843702  0.49942839  1
  V  V5  1  0.12498906  0.87395593  0.74962288  1
  V  V6  1  0.87455806  0.12420143  0.25115581  1
  V  V7  1  0.00062415  0.87364530  0.37414307  1
  V  V8  1  0.62585279  -0.00032096  0.62559315  1
  V  V9  1  0.37556353  0.50006742  0.37467602  1
  V  V10  1  0.24905385  0.87524261  0.12471663  1
  V  V11  1  0.37497955  0.75063446  0.12619014  1
  V  V12  1  0.87423067  0.25155162  0.12258412  1
  V  V13  1  0.12414271  -0.00028295  0.62433803  1
  V  V14  1  0.62305169  0.50149266  0.12392087  1
  V  V15  1  0.12543245  0.37498191  0.24996091  1
  V  V16  1  0.25087138  0.00028508  0.25034194  1
  V  V17  1  0.87495457  0.62535821  0.75037378  1
  V  V18  1  0.74916463  0.50066152  0.75033534  1
  V  V19  1  0.74920620  0.74886911  0.49950516  1
  V  V20  1  0.62559096  0.75077228  0.87662152  1
  V  V21  1  0.37570109  0.62460810  0.75035517  1
  V  V22  1  0.62459076  0.37490387  0.24963298  1
  V  V23  1  0.50039184  0.12524445  0.12408547  1
  V  V24  1  0.50018606  0.12526946  0.62588568  1
  V  V25  1  0.49976006  0.87551337  0.87617037  1
  V  V26  1  0.37507020  0.12460245  0.25041951  1
  V  V27  1  0.37564453  0.74945630  0.62530110  1
  V  V28  1  0.75011834  0.49973910  0.24920543  1
  V  V29  1  0.62491467  0.12670206  -0.00012895  1
  V  V30  1  0.62514736  0.74994481  0.37531069  1
  V  V31  1  0.49977470  0.37496863  0.87419796  1
  V  V32  1  0.62562161  0.12587759  0.50064214  1
  V  V33  1  -0.00052183  0.49939161  0.49996751  1
  V  V34  1  0.87499805  0.62478185  0.25093098  1
  V  V35  1  0.50047560  0.25025701  0.25047898  1
  V  V36  1  0.62444981  0.25048649  0.37435207  1
  V  V37  1  0.37579786  0.24815837  0.62454163  1
  V  V38  1  0.37450570  0.25018884  0.12511973  1
  V  V39  1  0.87467869  0.75101632  0.12595274  1
  V  V40  1  0.24896245  0.74991236  -0.00070873  1
  V  V41  1  0.24931675  0.62513843  0.87470105  1
  V  V42  1  0.87557055  0.87470701  0.49977495  1
  V  V43  1  0.74938104  0.75109925  0.00029504  1
  V  V44  1  0.74942757  0.12662909  0.87572530  1
  V  V45  1  -0.00056909  0.12437009  0.62417797  1
  V  V46  1  0.12611739  0.24858144  0.37516032  1
  V  V47  1  0.87419928  0.25046842  0.62429740  1
  V  V48  1  0.75016716  0.25155856  0.50023300  1
  V  V49  1  0.12438203  0.24946200  0.87385689  1
  V  V50  1  0.00160126  0.12449230  0.12415322  1
  V  V51  1  0.74996878  0.62654429  0.87648029  1
  V  V52  1  0.00182098  0.62363497  0.12279180  1
  V  V53  1  0.62506210  0.62503796  0.49936442  1
  V  V54  1  0.25056891  0.37487879  0.62556386  1
  V  V55  1  0.37510570  0.12439076  0.74933477  1
  V  V56  1  0.50074379  0.49981587  0.49874151  1
  V  V57  1  0.87500453  0.37509173  0.49982667  1
  V  V58  1  0.74953903  0.87679398  0.12706699  1
  V  V59  1  -0.00080636  0.87505169  0.87555899  1
  V  V60  1  0.12616466  0.62422099  0.49887370  1
  V  V61  1  0.37420918  0.50013677  0.87537573  1
  V  V62  1  0.00000228  0.74941086  0.74960789  1
  V  V63  1  0.24909714  0.24946519  -0.00152390  1
  V  V64  1  0.25008011  -0.00022409  0.75001791  1
  V  V65  1  0.62471482  0.37606021  0.75033967  1
  V  V66  1  0.00026921  0.37490827  0.37562242  1
  V  V67  1  -0.00156408  0.37524911  0.87545780  1
  V  V68  1  0.25010667  0.50159278  0.24981960  1
  V  V69  1  0.49939042  0.50113906  0.00151363  1
  V  V70  1  0.50052241  0.74967142  0.75117391  1
  V  V71  1  0.62556007  0.87540288  0.75016335  1
  V  V72  1  0.87545735  0.00014658  0.87568386  1
  V  V73  1  0.49823234  0.75057290  0.24921372  1
  V  V74  1  0.00001049  -0.00071089  0.50074636  1
  V  V75  1  0.12540386  0.74892434  0.87470392  1
  V  V76  1  0.87513601  0.87638040  0.00072884  1
  V  V77  1  0.49921136  0.00060822  0.00018685  1
  V  V78  1  0.25007283  0.87436073  0.62535816  1
  V  V79  1  0.25037662  0.49866340  0.74860070  1
  V  V80  1  0.74992766  0.87528591  0.62536959  1
  V  V81  1  0.75120277  0.12505247  0.37497218  1
  V  V82  1  0.87593553  0.49987641  0.87599634  1
  V  V83  1  0.12412889  0.87442654  0.25034893  1
  V  V84  1  0.12486191  0.00041928  0.12474512  1
  V  V85  1  0.50090143  0.62397334  0.62465395  1
  V  V86  1  0.50059004  0.87451960  0.37575095  1
  V  V87  1  -0.00077390  0.24954123  0.75003574  1
  V  V88  1  0.37470728  -0.00013511  0.37484661  1
  V  V89  1  0.50029504  -0.00048173  0.50065366  1
  V  V90  1  0.87488750  0.75001391  0.62472640  1
  V  V91  1  0.37529555  0.87418063  0.50075326  1
  V  V92  1  0.24880311  0.37499624  0.12451967  1
  V  V93  1  0.24979415  0.74826176  0.49980493  1
  V  V94  1  0.37386982  0.37523557  -0.00062515  1
  V  V95  1  0.87381112  0.12479033  0.75052622  1
  Zn  Zn96  1  0.75054454  0.62458083  0.37592995  1
  Zn  Zn97  1  0.00119888  0.25109534  0.24994035  1
  Zn  Zn98  1  0.12377870  0.37553325  0.74825750  1
  Zn  Zn99  1  0.87269426  0.37646919  0.00073539  1
  Zn  Zn100  1  0.12724326  0.74915961  0.37296232  1
  Zn  Zn101  1  0.12407402  0.49913417  0.12150336  1
  Zn  Zn102  1  0.75124746  0.37466671  0.12141345  1
  Zn  Zn103  1  0.12450017  0.12327825  0.49908971  1
  Zn  Zn104  1  0.12413695  0.62227719  -0.00125882  1
  Zn  Zn105  1  0.00196234  0.74878114  0.25017730  1
  Zn  Zn106  1  0.74993647  0.00040165  0.74950348  1
  Zn  Zn107  1  0.37443419  0.62703054  0.24909316  1
  Zn  Zn108  1  0.12559338  0.12304303  -0.00118096  1
  Zn  Zn109  1  0.12470639  0.49785777  0.62531890  1
  Zn  Zn110  1  0.74892938  0.37695054  0.62458189  1
  Zn  Zn111  1  0.62301434  0.62693805  0.00128484  1
  Zn  Zn112  1  0.37431188  0.00043511  0.87463462  1
  Zn  Zn113  1  0.24967071  0.62676061  0.37363413  1
  Zn  Zn114  1  0.87423128  0.00000390  0.37571704  1
  Zn  Zn115  1  0.00077895  0.49910954  -0.00001990  1
  Zn  Zn116  1  0.50096546  0.24972630  0.75031231  1
  Zn  Zn117  1  0.74906781  -0.00044811  0.25177968  1
  Zn  Zn118  1  0.37848040  0.37412616  0.49932792  1
  Zn  Zn119  1  0.62303152  0.25055716  0.87458861  1
  Zn  Zn120  1  0.62624850  0.49994228  0.62287077  1
  Zn  Zn121  1  0.00168146  -0.00106208  -0.00014482  1
  Zn  Zn122  1  0.62688791  0.00183969  0.12827269  1
  Zn  Zn123  1  0.24971192  0.12332468  0.37535616  1
  Zn  Zn124  1  0.74854231  0.25354139  0.00036193  1
  Zn  Zn125  1  0.50011593  0.37425256  0.37644095  1
  Zn  Zn126  1  0.49737198  0.62659478  0.12533783  1
  Zn  Zn127  1  0.87441535  0.49921352  0.37534862  1
  Zn  Zn128  1  0.18873080  0.18721769  0.18812548  1
  Zn  Zn129  1  0.18553886  0.18661971  0.68800210  1
  Zn  Zn130  1  0.18620086  0.68835756  0.18736862  1
  Zn  Zn131  1  0.18750184  0.68585949  0.68625907  1
  Zn  Zn132  1  0.68911563  0.18798756  0.18715248  1
  Zn  Zn133  1  0.68748564  0.19003555  0.68827714  1
  Zn  Zn134  1  0.68659088  0.68812650  0.18770820  1
  Zn  Zn135  1  0.68693605  0.68738585  0.68734548  1
  Zn  Zn136  1  0.31343320  0.31483141  0.31245767  1
  Zn  Zn137  1  0.31334279  0.31079612  0.81109209  1
  Zn  Zn138  1  0.31112997  0.81298544  0.31359095  1
  Zn  Zn139  1  0.31339492  0.81227814  0.81335404  1
  Zn  Zn140  1  0.81264661  0.31214671  0.31118625  1
  Zn  Zn141  1  0.81166371  0.31238502  0.81236060  1
  Zn  Zn142  1  0.81238802  0.81127150  0.31304561  1
  Zn  Zn143  1  0.81220525  0.81301419  0.81262881  1
  Zn  Zn144  1  0.18809720  0.43658443  0.43785326  1
  Zn  Zn145  1  0.18381303  0.43795251  0.93729476  1
  Zn  Zn146  1  0.18705635  0.93641908  0.43751958  1
  Zn  Zn147  1  0.18643851  0.93855674  0.93772326  1
  Zn  Zn148  1  0.68739319  0.43734271  0.43549867  1
  Zn  Zn149  1  0.68886808  0.43739589  0.93822663  1
  Zn  Zn150  1  0.68910941  0.93849152  0.43691675  1
  Zn  Zn151  1  0.68778651  0.94006198  0.93911640  1
  Zn  Zn152  1  0.31238208  0.06310211  0.06146490  1
  Zn  Zn153  1  0.31193504  0.06231258  0.56269180  1
  Zn  Zn154  1  0.31208037  0.56477019  0.06341250  1
  Zn  Zn155  1  0.31419918  0.56162783  0.56159785  1
  Zn  Zn156  1  0.81179192  0.06112230  0.06275537  1
  Zn  Zn157  1  0.81278361  0.06177758  0.56162432  1
  Zn  Zn158  1  0.81366591  0.56262932  0.06110873  1
  Zn  Zn159  1  0.81171612  0.56097704  0.56340392  1
  Zn  Zn160  1  0.43745742  0.43629101  0.18814439  1
  Zn  Zn161  1  0.43789404  0.43763054  0.68589332  1
  Zn  Zn162  1  0.43881190  0.93754939  0.18649369  1
  Zn  Zn163  1  0.43783310  0.93802385  0.68827318  1
  Zn  Zn164  1  0.93964195  0.43724198  0.18828590  1
  Zn  Zn165  1  0.93605158  0.43757071  0.68733615  1
  Zn  Zn166  1  0.93739317  0.93965757  0.18843982  1
  Zn  Zn167  1  0.93669382  0.93830258  0.68874927  1
  Zn  Zn168  1  0.06214753  0.06164474  0.31203717  1
  Zn  Zn169  1  0.06225813  0.06216833  0.81182542  1
  Zn  Zn170  1  0.06219768  0.56042198  0.31307863  1
  Zn  Zn171  1  0.06456894  0.56054706  0.81048978  1
  Zn  Zn172  1  0.56306104  0.06256367  0.31286120  1
  Zn  Zn173  1  0.56186242  0.06090126  0.81269037  1
  Zn  Zn174  1  0.56082840  0.56568248  0.31178907  1
  Zn  Zn175  1  0.56370257  0.56209018  0.81475602  1
  Zn  Zn176  1  0.43827679  0.18612551  0.43684155  1
  Zn  Zn177  1  0.43671326  0.18874589  0.93484711  1
  Zn  Zn178  1  0.43734195  0.68521320  0.43600044  1
  Zn  Zn179  1  0.43716043  0.68743010  0.93989651  1
  Zn  Zn180  1  0.93849390  0.18853221  0.43832421  1
  Zn  Zn181  1  0.93789670  0.18729174  0.93938683  1
  Zn  Zn182  1  0.93793803  0.68775443  0.43671476  1
  Zn  Zn183  1  0.93670643  0.68858540  0.93871813  1
  Zn  Zn184  1  0.06271885  0.31096874  0.06086419  1
  Zn  Zn185  1  0.06313392  0.31207084  0.56213889  1
  Zn  Zn186  1  0.06183189  0.81065166  0.06234783  1
  Zn  Zn187  1  0.06306889  0.81092420  0.56170966  1
  Zn  Zn188  1  0.56180399  0.31384868  0.06261463  1
  Zn  Zn189  1  0.56270046  0.31424271  0.56365354  1
  Zn  Zn190  1  0.56310684  0.81440207  0.06421527  1
  Zn  Zn191  1  0.56315829  0.81159063  0.56324997  1
  O  O192  1  0.11610878  0.12060033  0.12662949  1
  O  O193  1  0.11710773  0.11788480  0.62380572  1
  O  O194  1  0.11251113  0.62475964  0.12462842  1
  O  O195  1  0.11878735  0.62370366  0.61473932  1
  O  O196  1  0.61944673  0.12542586  0.11609759  1
  O  O197  1  0.62063011  0.12011568  0.61983788  1
  O  O198  1  0.62281832  0.61273780  0.12452206  1
  O  O199  1  0.61774265  0.62485855  0.61836127  1
  O  O200  1  0.37735036  0.38718002  0.37689700  1
  O  O201  1  0.37867309  0.38098869  0.87978209  1
  O  O202  1  0.38098512  0.88044104  0.38183725  1
  O  O203  1  0.38169006  0.87588417  0.88133613  1
  O  O204  1  0.88244444  0.37415118  0.38116802  1
  O  O205  1  0.88416491  0.37994915  0.87356398  1
  O  O206  1  0.88425444  0.87551042  0.38064969  1
  O  O207  1  0.87961782  0.87976197  0.87995163  1
  O  O208  1  0.25671163  -0.00001667  0.36916000  1
  O  O209  1  0.25024769  0.00590299  0.86730545  1
  O  O210  1  0.25778751  0.49895986  0.36631392  1
  O  O211  1  0.25572495  0.50463078  0.86914941  1
  O  O212  1  0.75428530  0.00917421  0.37445509  1
  O  O213  1  0.75553436  0.01132866  0.87386376  1
  O  O214  1  0.75146983  0.50304416  0.36084945  1
  O  O215  1  0.75587596  0.50738138  0.86982467  1
  O  O216  1  0.25050839  0.49364424  0.13480643  1
  O  O217  1  0.25250020  0.48928803  0.62898872  1
  O  O218  1  0.24543380  0.99455770  0.13052174  1
  O  O219  1  0.24440584  0.99348035  0.62967836  1
  O  O220  1  0.74186091  0.50006550  0.13367661  1
  O  O221  1  0.74722420  0.49790675  0.63466730  1
  O  O222  1  0.74803390  0.99207248  0.12862808  1
  O  O223  1  0.74351457  0.99324057  0.62549724  1
  O  O224  1  0.00753053  0.37293954  0.25744936  1
  O  O225  1  -0.00035172  0.36817239  0.75863825  1
  O  O226  1  0.00429359  0.87544978  0.25922561  1
  O  O227  1  0.00507814  0.86879971  0.75496315  1
  O  O228  1  0.50647958  0.36726192  0.25130908  1
  O  O229  1  0.50847334  0.37671305  0.75547282  1
  O  O230  1  0.50514654  0.87070537  0.25702027  1
  O  O231  1  0.50520342  0.86896729  0.75513662  1
  O  O232  1  0.49499978  0.13041562  0.24416003  1
  O  O233  1  0.49441027  0.12494165  0.74301833  1
  O  O234  1  0.49644122  0.63560181  0.24711613  1
  O  O235  1  0.49505164  0.63013586  0.74608656  1
  O  O236  1  0.99249861  0.12664779  0.24129197  1
  O  O237  1  0.99305742  0.12980910  0.74440181  1
  O  O238  1  0.99074555  0.62438024  0.24282440  1
  O  O239  1  0.99465842  0.63028840  0.74433907  1
  O  O240  1  0.36936106  0.25594399  0.00546281  1
  O  O241  1  0.36622526  0.25004149  0.50418450  1
  O  O242  1  0.36876252  0.75724404  0.00500297  1
  O  O243  1  0.37096202  0.75439480  0.50598845  1
  O  O244  1  0.87366489  0.24879813  0.01256802  1
  O  O245  1  0.86975009  0.25515166  0.50500050  1
  O  O246  1  0.86857461  0.75702171  0.00574485  1
  O  O247  1  0.86987579  0.75451684  0.50584454  1
  O  O248  1  0.13434509  0.24953719  0.49138796  1
  O  O249  1  0.13220208  0.24744910  0.99217348  1
  O  O250  1  0.13090760  0.74002613  0.50041067  1
  O  O251  1  0.13169741  0.74873630  0.99212697  1
  O  O252  1  0.62995492  0.24477350  0.49512623  1
  O  O253  1  0.62445039  0.23786807  0.99802306  1
  O  O254  1  0.62950545  0.74532390  0.49492531  1
  O  O255  1  0.63161668  0.75066117  0.99429905  1
  O  O256  1  0.49356077  0.24499094  0.13012341  1
  O  O257  1  0.49345089  0.24268541  0.62481718  1
  O  O258  1  0.49277679  0.75234239  0.13151108  1
  O  O259  1  0.49469745  0.74476806  0.63132111  1
  O  O260  1  0.99375335  0.24053370  0.12742408  1
  O  O261  1  0.99442444  0.24452450  0.62938959  1
  O  O262  1  0.99270698  0.74138679  0.12761430  1
  O  O263  1  0.99412633  0.74468022  0.63030397  1
  O  O264  1  0.01202914  0.25524099  0.37576253  1
  O  O265  1  0.00297536  0.25583075  0.86963805  1
  O  O266  1  0.00206664  0.76284314  0.37444503  1
  O  O267  1  0.00457113  0.75489886  0.86860334  1
  O  O268  1  0.50667916  0.25000908  0.36856703  1
  O  O269  1  0.50104979  0.25958195  0.87125552  1
  O  O270  1  0.50447047  0.75651895  0.37080339  1
  O  O271  1  0.50522679  0.75543431  0.87040075  1
  O  O272  1  0.24787553  0.13680417  0.49905170  1
  O  O273  1  0.24942391  0.13227897  0.99310252  1
  O  O274  1  0.24089688  0.62888327  0.50097074  1
  O  O275  1  0.24932949  0.63243273  0.99226626  1
  O  O276  1  0.74509859  0.13148396  0.49539246  1
  O  O277  1  0.74109248  0.12525633  0.99266787  1
  O  O278  1  0.74418307  0.63136069  0.49902657  1
  O  O279  1  0.74916811  0.63334145  0.99407032  1
  O  O280  1  0.25523005  0.36959633  0.00405802  1
  O  O281  1  0.25229690  0.36495706  0.50821147  1
  O  O282  1  0.25467782  0.86993723  0.00498348  1
  O  O283  1  0.25585136  0.86941865  0.50655296  1
  O  O284  1  0.75422314  0.37065265  0.00309660  1
  O  O285  1  0.75593616  0.36898059  0.50040651  1
  O  O286  1  0.75557901  0.87046164  0.00561759  1
  O  O287  1  0.75533886  0.86887980  0.50577380  1
  O  O288  1  0.13578574  0.49329194  0.25080920  1
  O  O289  1  0.13469338  0.49692790  0.74476238  1
  O  O290  1  0.13134125  0.99460842  0.24450541  1
  O  O291  1  0.12991486  0.99295737  0.74379667  1
  O  O292  1  0.63106517  0.49659641  0.24313489  1
  O  O293  1  0.63032604  0.49201336  0.75019574  1
  O  O294  1  0.62711114  0.99241135  0.24936345  1
  O  O295  1  0.62619666  0.99291090  0.74306205  1
  O  O296  1  0.37074480  0.00424045  0.25515050  1
  O  O297  1  0.36758192  0.00571278  0.75000418  1
  O  O298  1  0.36609108  0.49941899  0.25704839  1
  O  O299  1  0.37047528  0.50573239  0.75569972  1
  O  O300  1  0.87369209  0.01379650  0.25218333  1
  O  O301  1  0.87265680  0.00695745  0.75675019  1
  O  O302  1  0.86599663  0.50808423  0.24834725  1
  O  O303  1  0.86937878  0.50677193  0.75556124  1
  O  O304  1  0.12143244  0.36635705  0.37118684  1
  O  O305  1  0.11514568  0.36843686  0.87120537  1
  O  O306  1  0.11575950  0.87452776  0.36994933  1
  O  O307  1  0.11973491  0.86902522  0.86850259  1
  O  O308  1  0.62364394  0.36762029  0.36714942  1
  O  O309  1  0.61877074  0.37541586  0.86662698  1
  O  O310  1  0.61939625  0.86940597  0.37165652  1
  O  O311  1  0.62011327  0.87062457  0.87049654  1
  O  O312  1  0.38033430  0.13120509  0.13023289  1
  O  O313  1  0.38060954  0.12853394  0.62940965  1
  O  O314  1  0.37580241  0.63533368  0.12782953  1
  O  O315  1  0.38060784  0.63044087  0.63076276  1
  O  O316  1  0.88194977  0.13046492  0.13197901  1
  O  O317  1  0.87969429  0.13007910  0.63021874  1
  O  O318  1  0.88147354  0.62988113  0.13301090  1
  O  O319  1  0.88030840  0.63107543  0.63042893  1
  O  O320  1  0.25541684  0.25522001  0.11960537  1
  O  O321  1  0.25433249  0.25522385  0.61788585  1
  O  O322  1  0.25404290  0.75693443  0.11942773  1
  O  O323  1  0.25665617  0.75502438  0.62067753  1
  O  O324  1  0.76167683  0.25122932  0.12414122  1
  O  O325  1  0.75659390  0.25150965  0.61785964  1
  O  O326  1  0.75528387  0.75587693  0.12017551  1
  O  O327  1  0.75543597  0.75551060  0.61964233  1
  O  O328  1  0.24336854  0.25126751  0.38343247  1
  O  O329  1  0.24464558  0.24503737  0.87865663  1
  O  O330  1  0.24824659  0.74735280  0.38403390  1
  O  O331  1  0.24501786  0.74490499  0.87886990  1
  O  O332  1  0.74421362  0.24453099  0.38031841  1
  O  O333  1  0.74948481  0.23631841  0.87744744  1
  O  O334  1  0.74326585  0.74859493  0.38240095  1
  O  O335  1  0.74527368  0.74633041  0.88063410  1
  O  O336  1  0.00168658  0.12255287  0.01302178  1
  O  O337  1  0.00077644  0.11797175  0.50662688  1
  O  O338  1  -0.00045599  0.62507190  0.01141487  1
  O  O339  1  0.00671445  0.62038907  0.50453857  1
  O  O340  1  0.50619062  0.12143125  0.00359937  1
  O  O341  1  0.50610958  0.11871452  0.50561205  1
  O  O342  1  0.50215902  0.61695176  0.00334969  1
  O  O343  1  0.50514661  0.62008025  0.50528546  1
  O  O344  1  0.49838873  0.38401990  0.49786764  1
  O  O345  1  0.49310534  0.38111533  0.99487003  1
  O  O346  1  0.49490227  0.87968936  0.49602274  1
  O  O347  1  0.49499329  0.88062553  0.99534006  1
  O  O348  1  0.99527987  0.37977896  0.49586062  1
  O  O349  1  0.99738392  0.37394364  0.98554652  1
  O  O350  1  0.99552057  0.87875060  0.49355452  1
  O  O351  1  0.99270802  0.87470206  0.99342679  1
  O  O352  1  0.49159614  0.49971206  0.37951229  1
  O  O353  1  0.49305608  0.49535180  0.88115022  1
  O  O354  1  0.49484725  0.99422193  0.38163235  1
  O  O355  1  0.49771616  0.99296208  0.88182290  1
  O  O356  1  0.99830891  0.49206436  0.38196222  1
  O  O357  1  0.99436623  0.49030689  0.87175848  1
  O  O358  1  0.99917233  0.98936899  0.38095855  1
  O  O359  1  0.99416224  0.99282367  0.87592386  1
  O  O360  1  0.00565904  0.00932901  0.12513248  1
  O  O361  1  0.00476771  0.00414015  0.62075312  1
  O  O362  1  0.00088991  0.51103823  0.12413136  1
  O  O363  1  0.00108064  0.50618214  0.61874801  1
  O  O364  1  0.50162406  0.00794304  0.11820724  1
  O  O365  1  0.50573206  0.00442363  0.61903470  1
  O  O366  1  0.50794578  0.50026421  0.12079287  1
  O  O367  1  0.49993604  0.50748058  0.61682359  1
  O  O368  1  0.24575992  0.38273099  0.24417867  1
  O  O369  1  0.25051868  0.37902320  0.73997950  1
  O  O370  1  0.24462811  0.88113334  0.24423151  1
  O  O371  1  0.24491139  0.87864156  0.74437581  1
  O  O372  1  0.74491253  0.38493543  0.24688179  1
  O  O373  1  0.74061987  0.38152653  0.75163812  1
  O  O374  1  0.74445783  0.87533543  0.24513527  1
  O  O375  1  0.74366726  0.87586517  0.74345929  1
  O  O376  1  0.25788400  0.11811851  0.25102666  1
  O  O377  1  0.25486258  0.11903742  0.75353369  1
  O  O378  1  0.24966455  0.61285355  0.25137522  1
  O  O379  1  0.25697194  0.62005746  0.75410569  1
  O  O380  1  0.75924660  0.12529024  0.25626275  1
  O  O381  1  0.75462712  0.12413734  0.75937331  1
  O  O382  1  0.75874038  0.61717596  0.24906127  1
  O  O383  1  0.75568146  0.62202023  0.75609778  1
  O  O384  1  0.37412528  0.11739997  0.36838314  1
  O  O385  1  0.36765191  0.12354633  0.86752382  1
  O  O386  1  0.37164193  0.61256992  0.37222158  1
  O  O387  1  0.36949095  0.62007087  0.86935092  1
  O  O388  1  0.87178377  0.12720725  0.36587263  1
  O  O389  1  0.86812826  0.12064717  0.87132362  1
  O  O390  1  0.87438393  0.62307733  0.36272916  1
  O  O391  1  0.87026457  0.62157264  0.86874870  1
  O  O392  1  0.13092575  0.37452583  0.13185267  1
  O  O393  1  0.13837511  0.37458235  0.62546613  1
  O  O394  1  0.12941222  0.88008327  0.13028375  1
  O  O395  1  0.13022260  0.87884460  0.63048735  1
  O  O396  1  0.62564733  0.38591155  0.13076613  1
  O  O397  1  0.62656724  0.37836956  0.63706673  1
  O  O398  1  0.63188497  0.87694792  0.13243217  1
  O  O399  1  0.62999414  0.87936915  0.63007426  1
  O  O400  1  0.12754854  0.25587030  0.26104751  1
  O  O401  1  0.11679856  0.25112292  0.75576974  1
  O  O402  1  0.12236306  0.75846786  0.25308348  1
  O  O403  1  0.11977107  0.75481997  0.75389134  1
  O  O404  1  0.62029761  0.25448692  0.25419263  1
  O  O405  1  0.62321993  0.26237982  0.75245096  1
  O  O406  1  0.61941338  0.75626587  0.25572874  1
  O  O407  1  0.61940060  0.75584530  0.75614116  1
  O  O408  1  0.37966068  0.24524226  0.24490391  1
  O  O409  1  0.37639002  0.24198694  0.74176345  1
  O  O410  1  0.37989429  0.75212294  0.24423696  1
  O  O411  1  0.38088493  0.74456701  0.74502532  1
  O  O412  1  0.87753704  0.23985913  0.24184939  1
  O  O413  1  0.87957487  0.24374959  0.74439019  1
  O  O414  1  0.87526894  0.73936200  0.24446234  1
  O  O415  1  0.88048376  0.74498575  0.74456252  1
  O  O416  1  0.38133989  0.49962978  0.49055555  1
  O  O417  1  0.37834882  0.49406400  0.99502918  1
  O  O418  1  0.38035405  0.99396990  0.49595996  1
  O  O419  1  0.38081007  0.99353463  0.99854473  1
  O  O420  1  0.88086390  0.49396508  0.49786531  1
  O  O421  1  0.87915805  0.49789527  0.99104642  1
  O  O422  1  0.88229139  0.99210132  0.49971844  1
  O  O423  1  0.87718186  0.99353407  0.99350229  1
  O  O424  1  0.12274415  0.00253504  0.00893550  1
  O  O425  1  0.11903785  0.00028076  0.50717554  1
  O  O426  1  0.11997689  0.50460237  0.00337301  1
  O  O427  1  0.12010780  0.50832460  0.50173318  1
  O  O428  1  0.61876208  0.01181444  0.00143890  1
  O  O429  1  0.61959992  0.00560086  0.50560090  1
  O  O430  1  0.61914957  0.50038323  0.00972266  1
  O  O431  1  0.61852630  0.50678312  0.49895713  1
  O  O432  1  0.36920431  0.36912274  0.11914946  1
  O  O433  1  0.36548006  0.36796425  0.62344678  1
  O  O434  1  0.36827481  0.87082388  0.11922703  1
  O  O435  1  0.37040621  0.86898365  0.62016483  1
  O  O436  1  0.87760210  0.36260797  0.12552060  1
  O  O437  1  0.87344043  0.36753715  0.61841662  1
  O  O438  1  0.87050579  0.87044003  0.12149940  1
  O  O439  1  0.87051603  0.86895536  0.62030131  1
  O  O440  1  0.12719027  0.13589661  0.37603628  1
  O  O441  1  0.13063351  0.13124498  0.87526357  1
  O  O442  1  0.12490785  0.62630534  0.38766290  1
  O  O443  1  0.13167722  0.63219097  0.87337181  1
  O  O444  1  0.63013450  0.13103680  0.38127519  1
  O  O445  1  0.63236190  0.12519525  0.88216193  1
  O  O446  1  0.62620805  0.63311195  0.38125183  1
  O  O447  1  0.63207625  0.63294170  0.87674695  1
