# generated using pymatgen
data_V3Zn3O8
_symmetry_space_group_name_H-M   'P 1'
_cell_length_a   17.09129452
_cell_length_b   17.08993604
_cell_length_c   17.09134538
_cell_angle_alpha   89.98823113
_cell_angle_beta   89.99902949
_cell_angle_gamma   89.99744198
_symmetry_Int_Tables_number   1
_chemical_formula_structural   V3Zn3O8
_chemical_formula_sum   'V96 Zn96 O256'
_cell_volume   4992.19609354
_cell_formula_units_Z   32
loop_
 _symmetry_equiv_pos_site_id
 _symmetry_equiv_pos_as_xyz
  1  'x, y, z'
loop_
 _atom_site_type_symbol
 _atom_site_label
 _atom_site_symmetry_multiplicity
 _atom_site_fract_x
 _atom_site_fract_y
 _atom_site_fract_z
 _atom_site_occupancy
  V  V0  1  0.00056180  -0.00128035  0.50130972  1
  V  V1  1  0.24998176  0.74999183  0.49967732  1
  V  V2  1  0.37498018  0.00214538  0.37506255  1
  V  V3  1  0.87551840  0.24926158  0.12596022  1
  V  V4  1  0.12608464  0.49901735  0.62437996  1
  V  V5  1  0.62321325  0.12567133  0.00034689  1
  V  V6  1  0.12355745  0.87558028  0.25075890  1
  V  V7  1  0.12557546  0.87421471  0.75050491  1
  V  V8  1  0.37418672  0.12559579  0.25072980  1
  V  V9  1  0.87614146  0.37444936  0.49902543  1
  V  V10  1  -0.00104348  0.74834637  0.24986013  1
  V  V11  1  0.00136014  0.37494523  0.87410041  1
  V  V12  1  0.87493659  0.62471958  0.24859259  1
  V  V13  1  0.75093063  0.62369568  0.87487472  1
  V  V14  1  0.25097945  0.49944674  0.74880050  1
  V  V15  1  0.49930178  0.74811689  0.74925047  1
  V  V16  1  0.24964318  0.24978768  -0.00035435  1
  V  V17  1  0.62573535  0.87782366  0.24992822  1
  V  V18  1  0.62564100  0.75161277  0.37537738  1
  V  V19  1  0.25116263  0.00005744  0.75147317  1
  V  V20  1  0.87522479  0.87398860  0.50104421  1
  V  V21  1  0.00029361  0.49805809  0.49923579  1
  V  V22  1  0.50030552  0.50014351  0.49873553  1
  V  V23  1  0.74833242  0.37629362  0.12329701  1
  V  V24  1  0.74852825  0.25212325  -0.00059000  1
  V  V25  1  0.50023173  0.12613650  0.12381172  1
  V  V26  1  0.37488756  0.50090734  0.37377507  1
  V  V27  1  0.49771459  0.87643674  0.87761204  1
  V  V28  1  0.50015400  0.12497447  0.62568180  1
  V  V29  1  0.49954106  0.75147712  0.25010364  1
  V  V30  1  0.87525292  0.12371810  0.75094362  1
  V  V31  1  0.12604678  0.24767852  0.87566450  1
  V  V32  1  0.75022593  0.37450815  0.62479140  1
  V  V33  1  0.12572452  0.12470375  0.49916436  1
  V  V34  1  0.12607789  0.49840095  0.12465800  1
  V  V35  1  0.62516337  -0.00061037  0.62606191  1
  V  V36  1  0.62506130  0.37617932  0.24961345  1
  V  V37  1  0.62469257  0.00147138  0.12478755  1
  V  V38  1  0.50018858  0.62561522  0.62508581  1
  V  V39  1  0.74994931  0.87342073  0.62645831  1
  V  V40  1  0.50059973  0.87602817  0.37548993  1
  V  V41  1  -0.00076035  0.87415804  0.37632013  1
  V  V42  1  0.75116921  0.49971559  0.74956711  1
  V  V43  1  0.12211498  0.00040729  0.12560901  1
  V  V44  1  0.87544811  0.24892273  0.62555957  1
  V  V45  1  0.74977495  0.50037095  0.24809218  1
  V  V46  1  0.00185698  0.24873585  0.75101988  1
  V  V47  1  0.24984892  0.37590233  0.12476270  1
  V  V48  1  -0.00141611  0.00016708  0.00125912  1
  V  V49  1  0.50132632  0.37537762  0.37375744  1
  V  V50  1  0.87319571  0.00007723  0.37555229  1
  V  V51  1  0.12544401  -0.00102634  0.62571108  1
  V  V52  1  0.74903067  0.12563830  0.87498683  1
  V  V53  1  0.74958570  0.87548608  0.12508003  1
  V  V54  1  0.49997411  0.00008063  0.50096885  1
  V  V55  1  0.25131822  0.87396999  0.62473516  1
  V  V56  1  0.75060575  0.74926041  0.50082283  1
  V  V57  1  0.75045967  0.62513422  0.37436141  1
  V  V58  1  0.62547017  0.49926338  0.62362780  1
  V  V59  1  0.37391579  0.12440797  0.75130394  1
  V  V60  1  0.49968994  0.62808677  0.12609417  1
  V  V61  1  0.25248415  0.62571534  0.87472151  1
  V  V62  1  0.00161585  0.74925129  0.75143880  1
  V  V63  1  0.00043937  0.12360792  0.62608571  1
  V  V64  1  0.62420182  0.37419705  0.74910020  1
  V  V65  1  0.24991522  0.75176665  0.00145270  1
  V  V66  1  0.12632740  0.62421373  0.00046675  1
  V  V67  1  0.00042921  0.62391146  0.62485127  1
  V  V68  1  0.87588415  0.74843813  0.62560128  1
  V  V69  1  0.12595301  0.62438842  0.49871576  1
  V  V70  1  0.24968236  0.87604350  0.12597015  1
  V  V71  1  0.12398831  0.12472142  0.00151968  1
  V  V72  1  0.62608420  0.74866453  0.87605863  1
  V  V73  1  0.75027657  -0.00103068  0.75106198  1
  V  V74  1  0.62544530  0.62464964  0.49926556  1
  V  V75  1  0.75049824  0.24942000  0.50071353  1
  V  V76  1  0.62394536  0.25115486  0.87378373  1
  V  V77  1  0.37530075  0.25043931  0.12498482  1
  V  V78  1  0.62505992  0.87413846  0.75122825  1
  V  V79  1  0.00018993  0.49966546  -0.00127247  1
  V  V80  1  0.37495974  0.87506626  0.50066613  1
  V  V81  1  0.24890319  0.24888378  0.49716201  1
  V  V82  1  0.49903393  0.50256106  -0.00034571  1
  V  V83  1  0.12470851  0.74919564  0.37568563  1
  V  V84  1  0.49963140  0.25110128  0.74972687  1
  V  V85  1  0.62539386  0.25058745  0.37502275  1
  V  V86  1  0.37532277  0.37681398  -0.00023286  1
  V  V87  1  0.62505977  0.12494546  0.50046228  1
  V  V88  1  0.87585130  0.49852449  0.37456957  1
  V  V89  1  0.37511630  0.37432689  0.49960050  1
  V  V90  1  0.87470461  0.87441930  0.00080492  1
  V  V91  1  0.75053969  0.12358970  0.37537829  1
  V  V92  1  0.37484962  0.25012795  0.62409806  1
  V  V93  1  0.24991684  0.50061820  0.25078109  1
  V  V94  1  0.87450866  0.74993289  0.12469343  1
  V  V95  1  0.87511776  -0.00148453  0.87657788  1
  Zn  Zn96  1  0.25118527  0.62572543  0.37424971  1
  Zn  Zn97  1  0.11894934  0.24876425  0.37215822  1
  Zn  Zn98  1  0.87248106  0.37560435  -0.00197744  1
  Zn  Zn99  1  0.49658122  0.00081107  -0.00018058  1
  Zn  Zn100  1  0.37619960  0.49974668  0.87255373  1
  Zn  Zn101  1  0.49856622  0.37801949  0.87396450  1
  Zn  Zn102  1  0.37512011  0.74862818  0.62500852  1
  Zn  Zn103  1  0.00202203  0.24902088  0.25164171  1
  Zn  Zn104  1  0.50085218  0.25220512  0.24923594  1
  Zn  Zn105  1  0.12221162  0.37105273  0.25234044  1
  Zn  Zn106  1  0.00113675  0.37228704  0.37100590  1
  Zn  Zn107  1  0.25158648  0.12277188  0.87666633  1
  Zn  Zn108  1  0.37514187  0.75344734  0.12807993  1
  Zn  Zn109  1  0.24943773  0.37469351  0.62490118  1
  Zn  Zn110  1  0.62553167  0.50172577  0.12422226  1
  Zn  Zn111  1  -0.00043105  0.62386103  0.12384394  1
  Zn  Zn112  1  0.37599990  0.62543464  0.74732389  1
  Zn  Zn113  1  0.00083853  0.87357516  0.87680196  1
  Zn  Zn114  1  -0.00219731  0.12589624  0.12823477  1
  Zn  Zn115  1  0.12501987  0.75223831  0.87588508  1
  Zn  Zn116  1  0.87590727  0.49933384  0.87242652  1
  Zn  Zn117  1  0.24623783  0.12375602  0.37281236  1
  Zn  Zn118  1  0.24753736  0.00071859  0.25195763  1
  Zn  Zn119  1  0.75091923  0.00241372  0.24983731  1
  Zn  Zn120  1  0.12778670  0.37222449  0.74756953  1
  Zn  Zn121  1  0.62616047  0.62586282  0.00142932  1
  Zn  Zn122  1  0.37489053  0.87867242  0.00170123  1
  Zn  Zn123  1  0.37380664  0.62915300  0.25189072  1
  Zn  Zn124  1  0.87519259  0.12475177  0.25059974  1
  Zn  Zn125  1  0.75041150  0.74816405  -0.00007612  1
  Zn  Zn126  1  0.37346939  0.00127963  0.87818320  1
  Zn  Zn127  1  0.87717058  0.62189388  0.74963392  1
  Zn  Zn128  1  0.18676808  0.18785336  0.18656689  1
  Zn  Zn129  1  0.18883986  0.18644411  0.68661823  1
  Zn  Zn130  1  0.18495174  0.68606887  0.18736899  1
  Zn  Zn131  1  0.18718161  0.68636322  0.68603604  1
  Zn  Zn132  1  0.68937860  0.18861513  0.18911153  1
  Zn  Zn133  1  0.68759542  0.18716404  0.68804673  1
  Zn  Zn134  1  0.68649692  0.68943147  0.18730914  1
  Zn  Zn135  1  0.68635916  0.68602531  0.68973666  1
  Zn  Zn136  1  0.31186245  0.31366136  0.31224371  1
  Zn  Zn137  1  0.31369220  0.31329046  0.81463046  1
  Zn  Zn138  1  0.31269222  0.81340116  0.31328622  1
  Zn  Zn139  1  0.31437080  0.81134726  0.81166947  1
  Zn  Zn140  1  0.81243215  0.31299426  0.31104058  1
  Zn  Zn141  1  0.81379099  0.31273963  0.81211995  1
  Zn  Zn142  1  0.81217533  0.81378457  0.31112235  1
  Zn  Zn143  1  0.81499617  0.81039374  0.81381197  1
  Zn  Zn144  1  0.18637797  0.43394064  0.43507782  1
  Zn  Zn145  1  0.18754938  0.43673117  0.93584965  1
  Zn  Zn146  1  0.18875276  0.93774252  0.43663876  1
  Zn  Zn147  1  0.18476529  0.93854369  0.93632921  1
  Zn  Zn148  1  0.68919471  0.43698405  0.43594339  1
  Zn  Zn149  1  0.68379324  0.43907102  0.93688353  1
  Zn  Zn150  1  0.68800613  0.93797333  0.43887075  1
  Zn  Zn151  1  0.68641062  0.93747558  0.94020283  1
  Zn  Zn152  1  0.31219452  0.06166123  0.06167160  1
  Zn  Zn153  1  0.31201938  0.06298501  0.56372056  1
  Zn  Zn154  1  0.31545596  0.56469704  0.06500998  1
  Zn  Zn155  1  0.31349183  0.56369823  0.56174579  1
  Zn  Zn156  1  0.81035776  0.06340851  0.06240570  1
  Zn  Zn157  1  0.81261784  0.06154228  0.56255975  1
  Zn  Zn158  1  0.81469242  0.56188190  0.06073298  1
  Zn  Zn159  1  0.81426419  0.56191993  0.56239453  1
  Zn  Zn160  1  0.43704435  0.43986410  0.18669983  1
  Zn  Zn161  1  0.43617017  0.43783752  0.68594303  1
  Zn  Zn162  1  0.43757212  0.94042211  0.18743421  1
  Zn  Zn163  1  0.43652727  0.93656422  0.68976586  1
  Zn  Zn164  1  0.93718421  0.43339201  0.18610648  1
  Zn  Zn165  1  0.93817726  0.43627578  0.68757852  1
  Zn  Zn166  1  0.93600803  0.93782330  0.18907758  1
  Zn  Zn167  1  0.93759623  0.93560620  0.68889199  1
  Zn  Zn168  1  0.05876609  0.06606575  0.31116004  1
  Zn  Zn169  1  0.06341439  0.06086883  0.81523745  1
  Zn  Zn170  1  0.06257227  0.56076427  0.31200608  1
  Zn  Zn171  1  0.06779859  0.56351744  0.81268487  1
  Zn  Zn172  1  0.56173963  0.06374379  0.31106984  1
  Zn  Zn173  1  0.56133947  0.06267312  0.81278254  1
  Zn  Zn174  1  0.56274889  0.56329893  0.31108654  1
  Zn  Zn175  1  0.56428204  0.56240314  0.81233623  1
  Zn  Zn176  1  0.43799882  0.18841688  0.43628824  1
  Zn  Zn177  1  0.43678882  0.18895643  0.93626729  1
  Zn  Zn178  1  0.43639120  0.68776873  0.43697968  1
  Zn  Zn179  1  0.43547835  0.69029624  0.93905203  1
  Zn  Zn180  1  0.93821099  0.18640820  0.43663760  1
  Zn  Zn181  1  0.93717226  0.18725648  0.94072043  1
  Zn  Zn182  1  0.93812169  0.68516203  0.43731132  1
  Zn  Zn183  1  0.93559740  0.68629773  0.93689277  1
  Zn  Zn184  1  0.06269043  0.31291406  0.06334439  1
  Zn  Zn185  1  0.06387982  0.31328705  0.56200129  1
  Zn  Zn186  1  0.06166412  0.81258824  0.06342403  1
  Zn  Zn187  1  0.06394462  0.81144111  0.56406873  1
  Zn  Zn188  1  0.56143595  0.31426149  0.06268166  1
  Zn  Zn189  1  0.56203839  0.31252549  0.56177176  1
  Zn  Zn190  1  0.56540074  0.81214393  0.06152147  1
  Zn  Zn191  1  0.56229136  0.81190771  0.56273544  1
  O  O192  1  0.12411422  0.11712191  0.11806028  1
  O  O193  1  0.11890571  0.11778134  0.62023716  1
  O  O194  1  0.12246812  0.61679244  0.11745793  1
  O  O195  1  0.11938316  0.61895509  0.61806712  1
  O  O196  1  0.62030924  0.12231896  0.12017357  1
  O  O197  1  0.62038354  0.11915163  0.62030254  1
  O  O198  1  0.61282482  0.62496132  0.12353724  1
  O  O199  1  0.62115840  0.61858175  0.61812461  1
  O  O200  1  0.38171336  0.38072408  0.38035271  1
  O  O201  1  0.37831735  0.37881784  0.88437157  1
  O  O202  1  0.38175158  0.88211853  0.38084101  1
  O  O203  1  0.38767417  0.87503268  0.87543916  1
  O  O204  1  0.87232776  0.38229474  0.38290046  1
  O  O205  1  0.88891422  0.37533192  0.87608984  1
  O  O206  1  0.87969642  0.87839844  0.38267432  1
  O  O207  1  0.87606984  0.88127248  0.88171207  1
  O  O208  1  0.25917848  0.00235051  0.37256434  1
  O  O209  1  0.25132071  0.00126892  0.86618190  1
  O  O210  1  0.25596950  0.50016200  0.36559570  1
  O  O211  1  0.24970410  0.50891674  0.86698661  1
  O  O212  1  0.75542594  0.00586986  0.37739895  1
  O  O213  1  0.75429649  0.00567439  0.86967833  1
  O  O214  1  0.75563893  0.50641303  0.36948725  1
  O  O215  1  0.74948365  0.50737089  0.86826696  1
  O  O216  1  0.24688803  0.49595430  0.13162240  1
  O  O217  1  0.24531503  0.50094312  0.63356558  1
  O  O218  1  0.24172233  0.98945980  0.12572462  1
  O  O219  1  0.24435064  0.99355494  0.63028025  1
  O  O220  1  0.74886028  0.49521003  0.13011823  1
  O  O221  1  0.74453326  0.49425196  0.62833378  1
  O  O222  1  0.74264154  0.99380312  0.12654327  1
  O  O223  1  0.74513395  0.99345947  0.63110947  1
  O  O224  1  0.00293739  0.37094204  0.25149334  1
  O  O225  1  0.00243361  0.36803528  0.75858743  1
  O  O226  1  0.00427918  0.86814808  0.25714229  1
  O  O227  1  0.00612816  0.86416290  0.74902440  1
  O  O228  1  0.50608235  0.37562879  0.25624642  1
  O  O229  1  0.50649092  0.36918931  0.74900442  1
  O  O230  1  0.50593439  0.87166290  0.25622017  1
  O  O231  1  0.50659251  0.86917231  0.75729946  1
  O  O232  1  0.49005864  0.12800618  0.24392978  1
  O  O233  1  0.49558566  0.13099222  0.74373159  1
  O  O234  1  0.50053151  0.63245821  0.24207057  1
  O  O235  1  0.50102358  0.63009927  0.74308216  1
  O  O236  1  0.99212555  0.12962138  0.24496066  1
  O  O237  1  0.99443627  0.12856483  0.74556680  1
  O  O238  1  0.99257972  0.63029724  0.24851343  1
  O  O239  1  1.00187099  0.63328171  0.74415100  1
  O  O240  1  0.36956865  0.25609944  0.00564882  1
  O  O241  1  0.36894370  0.25358326  0.50473434  1
  O  O242  1  0.36002957  0.75426846  0.00366711  1
  O  O243  1  0.36891616  0.75813610  0.50007055  1
  O  O244  1  0.86585510  0.25210797  0.00650284  1
  O  O245  1  0.86892128  0.25377070  0.50762925  1
  O  O246  1  0.87407475  0.75573509  0.00652704  1
  O  O247  1  0.87017283  0.75453628  0.50548013  1
  O  O248  1  0.13515870  0.24266671  0.50307564  1
  O  O249  1  0.13012087  0.24462820  0.99595125  1
  O  O250  1  0.12939195  0.74489806  0.49490272  1
  O  O251  1  0.13466194  0.74397703  0.99990239  1
  O  O252  1  0.63102440  0.24458667  0.49590262  1
  O  O253  1  0.62915612  0.24576961  0.99363878  1
  O  O254  1  0.63150143  0.74503627  0.49486893  1
  O  O255  1  0.62938132  0.74692884  0.99022719  1
  O  O256  1  0.49262892  0.24439036  0.12646121  1
  O  O257  1  0.49550088  0.24395182  0.62932394  1
  O  O258  1  0.49991289  0.74451419  0.13085648  1
  O  O259  1  0.50198418  0.74341726  0.63117608  1
  O  O260  1  0.98540871  0.25024910  0.12095444  1
  O  O261  1  0.99485682  0.24331416  0.63070139  1
  O  O262  1  0.99323542  0.74797159  0.13217853  1
  O  O263  1  0.99597101  0.74412962  0.63216187  1
  O  O264  1  -0.00074320  0.25378088  0.37303543  1
  O  O265  1  0.00525691  0.25637215  0.87137677  1
  O  O266  1  0.00421427  0.75517453  0.37064417  1
  O  O267  1  0.00185690  0.74945941  0.86273528  1
  O  O268  1  0.50791858  0.25768830  0.37508845  1
  O  O269  1  0.50691598  0.25229754  0.86702857  1
  O  O270  1  0.50699023  0.75682407  0.37152354  1
  O  O271  1  0.50575944  0.75630269  0.87000639  1
  O  O272  1  0.24488219  0.13302916  0.50054087  1
  O  O273  1  0.24288846  0.13236187  0.99958639  1
  O  O274  1  0.24292732  0.63164980  0.49833333  1
  O  O275  1  0.24679005  0.63232653  0.99488900  1
  O  O276  1  0.74373637  0.13002442  0.49719665  1
  O  O277  1  0.74248048  0.13143346  0.99288241  1
  O  O278  1  0.74510003  0.62993013  0.49466651  1
  O  O279  1  0.74843432  0.62435997  0.98784096  1
  O  O280  1  0.25563707  0.37094472  0.00488536  1
  O  O281  1  0.25732593  0.36571536  0.50142921  1
  O  O282  1  0.24583753  0.86691526  0.00932591  1
  O  O283  1  0.25509805  0.87006240  0.50548532  1
  O  O284  1  0.74846418  0.37003044  0.00446759  1
  O  O285  1  0.75519606  0.36910310  0.50615346  1
  O  O286  1  0.75680536  0.87338153  0.00690778  1
  O  O287  1  0.75486569  0.86859697  0.50700807  1
  O  O288  1  0.13531045  0.49977289  0.24320843  1
  O  O289  1  0.13608561  0.49976343  0.74342609  1
  O  O290  1  0.12492407  0.99296235  0.24480850  1
  O  O291  1  0.12979713  0.99456217  0.74404656  1
  O  O292  1  0.63251114  0.49413154  0.24936101  1
  O  O293  1  0.63049041  0.49347477  0.74241021  1
  O  O294  1  0.62586419  0.99450192  0.24370949  1
  O  O295  1  0.63127613  0.99479451  0.74492669  1
  O  O296  1  0.37463876  0.01016618  0.25605300  1
  O  O297  1  0.36874795  0.00668746  0.75079639  1
  O  O298  1  0.36562762  0.50163633  0.25536487  1
  O  O299  1  0.36433669  0.50351725  0.75039176  1
  O  O300  1  0.87140225  -0.00026543  0.26102533  1
  O  O301  1  0.86952920  0.00416624  0.75522663  1
  O  O302  1  0.86878163  0.50551637  0.25408047  1
  O  O303  1  0.86739666  0.50144146  0.75124501  1
  O  O304  1  0.12051495  0.36910564  0.37253170  1
  O  O305  1  0.11547937  0.36758880  0.87315567  1
  O  O306  1  0.11817933  0.86958314  0.37105012  1
  O  O307  1  0.12102050  0.87183857  0.86606169  1
  O  O308  1  0.62114733  0.37013968  0.37022783  1
  O  O309  1  0.62246030  0.36864367  0.86636754  1
  O  O310  1  0.62001652  0.87090756  0.37161232  1
  O  O311  1  0.61882426  0.86916568  0.86988427  1
  O  O312  1  0.37976967  0.13004466  0.13248990  1
  O  O313  1  0.38196366  0.13025911  0.63028450  1
  O  O314  1  0.38756952  0.63045246  0.12877408  1
  O  O315  1  0.38550617  0.62771278  0.62452085  1
  O  O316  1  0.87222939  0.13696572  0.12462708  1
  O  O317  1  0.88017777  0.12881245  0.63107568  1
  O  O318  1  0.87660997  0.63126774  0.13108528  1
  O  O319  1  0.88195848  0.63136676  0.62569671  1
  O  O320  1  0.25650972  0.25643069  0.11825173  1
  O  O321  1  0.25658668  0.25052466  0.61475771  1
  O  O322  1  0.24788474  0.75883145  0.11820634  1
  O  O323  1  0.25050771  0.75643462  0.61761855  1
  O  O324  1  0.75470123  0.25641991  0.11807493  1
  O  O325  1  0.75538511  0.25434217  0.62070497  1
  O  O326  1  0.75653768  0.75663265  0.12398619  1
  O  O327  1  0.75468075  0.75402812  0.62080909  1
  O  O328  1  0.25228641  0.24710081  0.38917343  1
  O  O329  1  0.24298593  0.24943780  0.88216910  1
  O  O330  1  0.24222946  0.75007892  0.38136629  1
  O  O331  1  0.24851002  0.74328674  0.88358176  1
  O  O332  1  0.74502686  0.24477312  0.38254162  1
  O  O333  1  0.74423553  0.24493083  0.87808042  1
  O  O334  1  0.74550464  0.74519036  0.38118413  1
  O  O335  1  0.74473383  0.73997997  0.87333641  1
  O  O336  1  0.00582770  0.11769167  0.00339140  1
  O  O337  1  0.00485736  0.11767260  0.50791561  1
  O  O338  1  0.00673311  0.61439122  -0.00286196  1
  O  O339  1  0.00555110  0.61876438  0.50575683  1
  O  O340  1  0.50659534  0.12615682  0.00590868  1
  O  O341  1  0.50561392  0.11983279  0.50600820  1
  O  O342  1  0.49874105  0.61984669  0.00840149  1
  O  O343  1  0.50729065  0.61959036  0.50350393  1
  O  O344  1  0.49598655  0.38096234  0.49404123  1
  O  O345  1  0.49401697  0.38655150  1.00095494  1
  O  O346  1  0.49609142  0.88093132  0.49526573  1
  O  O347  1  0.49948045  0.87442724  0.98867454  1
  O  O348  1  0.99156721  0.38186033  0.50192923  1
  O  O349  1  1.00173526  0.38408598  0.98951344  1
  O  O350  1  0.99482802  0.87878452  0.49661066  1
  O  O351  1  0.99289062  0.88094752  0.99900818  1
  O  O352  1  0.49609349  0.49513508  0.38018284  1
  O  O353  1  0.49740323  0.50180178  0.88577146  1
  O  O354  1  0.49568199  0.99537371  0.38191160  1
  O  O355  1  0.50090176  0.98745752  0.87488618  1
  O  O356  1  0.99202876  0.49994779  0.38250829  1
  O  O357  1  1.00377411  0.49185346  0.88104328  1
  O  O358  1  0.99402919  0.99282673  0.38299373  1
  O  O359  1  0.99181563  0.99820580  0.88194870  1
  O  O360  1  0.00515004  -0.00094145  0.11845322  1
  O  O361  1  0.00497956  0.00382412  0.62107200  1
  O  O362  1  0.00574679  0.49931374  0.11249985  1
  O  O363  1  0.00549290  0.50489190  0.62000392  1
  O  O364  1  0.50716377  0.00787987  0.12323609  1
  O  O365  1  0.50619397  0.00482413  0.62097901  1
  O  O366  1  0.50034940  0.51065272  0.11752502  1
  O  O367  1  0.50670106  0.50455679  0.61794065  1
  O  O368  1  0.25116574  0.38638185  0.24312812  1
  O  O369  1  0.24922608  0.38652423  0.74912417  1
  O  O370  1  0.24232175  0.87476502  0.24112225  1
  O  O371  1  0.24523272  0.87876380  0.74404664  1
  O  O372  1  0.74416891  0.38194978  0.24408892  1
  O  O373  1  0.74464074  0.37855498  0.74347263  1
  O  O374  1  0.74245461  0.87668299  0.24390811  1
  O  O375  1  0.74528317  0.87909636  0.74564355  1
  O  O376  1  0.26373003  0.12323735  0.24996841  1
  O  O377  1  0.25663410  0.11788795  0.74993440  1
  O  O378  1  0.25164325  0.61343423  0.25027108  1
  O  O379  1  0.24975035  0.61835310  0.75806296  1
  O  O380  1  0.75197532  0.12292980  0.26090981  1
  O  O381  1  0.75540821  0.11896459  0.75484247  1
  O  O382  1  0.75465241  0.62101129  0.25567957  1
  O  O383  1  0.75062282  0.61818016  0.75775423  1
  O  O384  1  0.37633459  0.12045679  0.36577598  1
  O  O385  1  0.37311439  0.12401436  0.86580285  1
  O  O386  1  0.37291989  0.61647860  0.37285706  1
  O  O387  1  0.36152370  0.62433513  0.87451054  1
  O  O388  1  0.86659685  0.11656329  0.37895464  1
  O  O389  1  0.86868511  0.11963407  0.86998334  1
  O  O390  1  0.86870937  0.61960374  0.36960782  1
  O  O391  1  0.86376934  0.62259307  0.87094394  1
  O  O392  1  0.13413966  0.38238296  0.12360864  1
  O  O393  1  0.12819009  0.38358154  0.62774789  1
  O  O394  1  0.13136012  0.87980033  0.13117806  1
  O  O395  1  0.13115097  0.88044528  0.63010885  1
  O  O396  1  0.63091804  0.37659427  0.13196065  1
  O  O397  1  0.63098072  0.37967495  0.62853110  1
  O  O398  1  0.62961194  0.88086599  0.13043472  1
  O  O399  1  0.63062511  0.87985008  0.63067287  1
  O  O400  1  0.12405310  0.25210917  0.25241507  1
  O  O401  1  0.11884395  0.24891122  0.75596261  1
  O  O402  1  0.11840006  0.75489077  0.25567149  1
  O  O403  1  0.11554039  0.75509105  0.74847664  1
  O  O404  1  0.62409392  0.25771450  0.25786557  1
  O  O405  1  0.61966365  0.25458014  0.75339393  1
  O  O406  1  0.61980995  0.75782771  0.25722671  1
  O  O407  1  0.61965542  0.75575035  0.75624166  1
  O  O408  1  0.37617855  0.24221250  0.24437255  1
  O  O409  1  0.37974798  0.24544949  0.74369475  1
  O  O410  1  0.38395704  0.74980405  0.24954325  1
  O  O411  1  0.38379663  0.74639141  0.74607494  1
  O  O412  1  0.87097379  0.24963937  0.23542797  1
  O  O413  1  0.88104465  0.24290464  0.74495794  1
  O  O414  1  0.87989068  0.74466617  0.24557241  1
  O  O415  1  0.88598454  0.74891490  0.74324753  1
  O  O416  1  0.38099177  0.49415069  0.49425412  1
  O  O417  1  0.38390407  0.49583006  1.00033544  1
  O  O418  1  0.38159409  0.99565238  0.49601423  1
  O  O419  1  0.37849658  0.99616622  0.99597015  1
  O  O420  1  0.87990762  0.49438759  0.49497837  1
  O  O421  1  0.88850785  0.49749893  0.99538518  1
  O  O422  1  0.88088616  0.99258731  0.49734252  1
  O  O423  1  0.87869251  0.99481815  0.99544098  1
  O  O424  1  0.11816672  0.00466580  0.00555319  1
  O  O425  1  0.11967956  0.00319080  0.50679525  1
  O  O426  1  0.11896814  0.50455669  0.00405940  1
  O  O427  1  0.12063245  0.50510991  0.50482543  1
  O  O428  1  0.62285595  0.00860291  0.00648768  1
  O  O429  1  0.61960513  0.00488654  0.50694695  1
  O  O430  1  0.61156194  0.50344926  0.00248929  1
  O  O431  1  0.62051936  0.50488187  0.50368641  1
  O  O432  1  0.36943221  0.37028622  0.11942679  1
  O  O433  1  0.37453933  0.36777687  0.61653073  1
  O  O434  1  0.36175619  0.87532038  0.12522894  1
  O  O435  1  0.36940483  0.87415224  0.61779566  1
  O  O436  1  0.86564448  0.36715822  0.12011234  1
  O  O437  1  0.86930011  0.36804418  0.62013062  1
  O  O438  1  0.86907375  0.86957286  0.12060785  1
  O  O439  1  0.86926074  0.86899229  0.62030866  1
  O  O440  1  0.12701649  0.12553515  0.38506728  1
  O  O441  1  0.12607460  0.13101461  0.88317682  1
  O  O442  1  0.12560315  0.63180660  0.38149923  1
  O  O443  1  0.13785314  0.62781079  0.88160573  1
  O  O444  1  0.62903972  0.12999951  0.38214593  1
  O  O445  1  0.63012819  0.13117272  0.87882360  1
  O  O446  1  0.63080274  0.63152770  0.38001869  1
  O  O447  1  0.63524576  0.63085058  0.87450962  1
