# generated using pymatgen
data_V3Zn3O8
_symmetry_space_group_name_H-M   'P 1'
_cell_length_a   17.08650868
_cell_length_b   17.08726854
_cell_length_c   17.08841207
_cell_angle_alpha   90.00432950
_cell_angle_beta   89.99314046
_cell_angle_gamma   90.01073210
_symmetry_Int_Tables_number   1
_chemical_formula_structural   V3Zn3O8
_chemical_formula_sum   'V96 Zn96 O256'
_cell_volume   4989.16276104
_cell_formula_units_Z   32
loop_
 _symmetry_equiv_pos_site_id
 _symmetry_equiv_pos_as_xyz
  1  'x, y, z'
loop_
 _atom_site_type_symbol
 _atom_site_label
 _atom_site_symmetry_multiplicity
 _atom_site_fract_x
 _atom_site_fract_y
 _atom_site_fract_z
 _atom_site_occupancy
  V  V0  1  0.75049363  0.87436309  0.12452966  1
  V  V1  1  0.24927661  -0.00013210  0.75160683  1
  V  V2  1  0.62345584  0.50033790  0.62481950  1
  V  V3  1  0.87557197  0.00156301  0.37569110  1
  V  V4  1  0.49905173  0.24920307  0.74986515  1
  V  V5  1  0.50022991  0.74847601  0.24946320  1
  V  V6  1  0.50031630  0.49912103  -0.00047100  1
  V  V7  1  0.50054589  0.25020201  0.25016521  1
  V  V8  1  0.87430909  0.37594901  0.49895935  1
  V  V9  1  0.62478507  0.24933435  0.87496799  1
  V  V10  1  0.37509675  0.24896025  0.62566414  1
  V  V11  1  0.12434895  0.12498803  0.50048718  1
  V  V12  1  0.37492886  0.62507796  0.75095518  1
  V  V13  1  0.25138528  0.75126567  0.50163983  1
  V  V14  1  -0.00045622  0.37656750  0.37505168  1
  V  V15  1  0.12489613  0.49983489  0.12548769  1
  V  V16  1  0.49897002  0.62498317  0.62569651  1
  V  V17  1  0.37536389  0.12448479  0.25076598  1
  V  V18  1  0.75008478  0.62611233  0.37567964  1
  V  V19  1  0.49953343  0.50057940  0.50075342  1
  V  V20  1  0.87669741  0.62656104  0.25019234  1
  V  V21  1  0.24990919  0.87317505  0.12510877  1
  V  V22  1  0.25027385  0.50014174  0.25050622  1
  V  V23  1  0.12442973  0.00007894  0.62476935  1
  V  V24  1  0.87475531  0.62499928  0.74890268  1
  V  V25  1  0.12515323  0.75292903  0.37465685  1
  V  V26  1  0.12412227  0.37472624  0.25134444  1
  V  V27  1  0.75101343  0.50034452  0.74997284  1
  V  V28  1  0.87460268  0.87494502  -0.00012308  1
  V  V29  1  0.37496801  0.49978873  0.37477637  1
  V  V30  1  0.87523350  0.50051283  0.37570427  1
  V  V31  1  0.74933696  0.37548389  0.62441097  1
  V  V32  1  0.87491763  0.12608254  0.74804455  1
  V  V33  1  0.50010005  0.37438354  0.37470599  1
  V  V34  1  0.25057177  0.50093249  0.75168877  1
  V  V35  1  0.74981842  0.24984425  -0.00104695  1
  V  V36  1  0.75144244  0.62415270  0.87496209  1
  V  V37  1  0.12425767  0.62523739  0.50147016  1
  V  V38  1  0.62392498  0.87466854  0.75047963  1
  V  V39  1  0.37387215  0.00006810  0.87497813  1
  V  V40  1  0.74951556  0.87543966  0.62553731  1
  V  V41  1  0.87462797  0.24980052  0.62513201  1
  V  V42  1  0.24943836  0.25097974  0.50009995  1
  V  V43  1  -0.00076898  0.12561078  0.12409840  1
  V  V44  1  0.87439594  -0.00033993  0.87449213  1
  V  V45  1  0.24955641  0.12358050  0.87616921  1
  V  V46  1  0.87453199  0.12561320  0.24886789  1
  V  V47  1  0.62475352  0.37489837  0.74954755  1
  V  V48  1  0.62719206  0.62469878  -0.00078376  1
  V  V49  1  0.37656442  -0.00080633  0.37469324  1
  V  V50  1  0.50034324  0.12384192  0.12474741  1
  V  V51  1  0.74998210  -0.00023544  0.24858408  1
  V  V52  1  0.62370075  0.00047883  0.62409370  1
  V  V53  1  0.37580830  0.87465988  0.49983598  1
  V  V54  1  0.62478354  -0.00103199  0.12504959  1
  V  V55  1  -0.00012899  0.74998786  0.74949869  1
  V  V56  1  0.74981900  -0.00025571  0.75005653  1
  V  V57  1  0.12441109  0.25127820  0.37589322  1
  V  V58  1  0.24994993  0.37558150  0.62535871  1
  V  V59  1  0.75070651  0.50056486  0.24954327  1
  V  V60  1  0.74877987  0.25039307  0.49861699  1
  V  V61  1  0.75180749  0.74888997  0.00036765  1
  V  V62  1  0.50082504  0.62425508  0.12470455  1
  V  V63  1  0.50078247  0.87366555  0.37383868  1
  V  V64  1  -0.00134251  0.00041682  0.00001870  1
  V  V65  1  0.37427386  0.87332883  0.00096767  1
  V  V66  1  0.00049057  0.75165115  0.24926652  1
  V  V67  1  0.49935296  0.12454345  0.62482629  1
  V  V68  1  0.12495136  0.37441139  0.75002952  1
  V  V69  1  0.00158137  0.49967897  -0.00059618  1
  V  V70  1  0.62420260  0.12507457  0.49968433  1
  V  V71  1  0.37622609  0.62347108  0.24939405  1
  V  V72  1  0.49966716  0.87445266  0.87499658  1
  V  V73  1  0.74965562  0.75017101  0.49951652  1
  V  V74  1  0.87550702  0.87704017  0.49967944  1
  V  V75  1  0.62681016  0.49946416  0.12503849  1
  V  V76  1  0.12510811  0.50091762  0.62503480  1
  V  V77  1  0.74896997  0.12531228  0.87502978  1
  V  V78  1  0.12416383  0.25031126  0.87416335  1
  V  V79  1  0.37482808  0.37520237  0.50050707  1
  V  V80  1  0.37542388  0.49947042  0.87547152  1
  V  V81  1  0.49934345  0.74984432  0.75035142  1
  V  V82  1  0.50003118  -0.00094991  0.00088670  1
  V  V83  1  0.87612767  0.37543230  -0.00180550  1
  V  V84  1  0.12595671  0.74856021  0.87758632  1
  V  V85  1  0.24874653  -0.00023807  0.25004547  1
  V  V86  1  0.87471840  0.24958656  0.12451166  1
  V  V87  1  0.87511257  0.75082348  0.62546678  1
  V  V88  1  0.37472944  0.25018570  0.12494732  1
  V  V89  1  0.12435013  0.87532410  0.75046102  1
  V  V90  1  0.12428874  0.12455838  0.00038248  1
  V  V91  1  0.25088475  0.37290105  0.12518786  1
  V  V92  1  0.62438847  0.24982500  0.37480326  1
  V  V93  1  0.75044906  0.37571761  0.12461266  1
  V  V94  1  0.62556257  0.74979821  0.37473307  1
  V  V95  1  0.49937744  0.37465987  0.87540190  1
  Zn  Zn96  1  0.87717209  0.74914845  0.12419760  1
  Zn  Zn97  1  -0.00127242  0.50148064  0.50131373  1
  Zn  Zn98  1  0.25024059  0.62414654  0.87902978  1
  Zn  Zn99  1  0.37481918  0.74720248  0.12368651  1
  Zn  Zn100  1  0.25042608  0.12550828  0.37459140  1
  Zn  Zn101  1  0.00017223  0.00007110  0.49965327  1
  Zn  Zn102  1  -0.00136762  0.12670445  0.62579739  1
  Zn  Zn103  1  0.25038727  0.74606695  0.00126454  1
  Zn  Zn104  1  0.62576637  0.87376489  0.24974654  1
  Zn  Zn105  1  0.87811184  0.49827637  0.87250155  1
  Zn  Zn106  1  -0.00017739  0.25049068  0.74740490  1
  Zn  Zn107  1  -0.00105970  0.37485226  0.87165169  1
  Zn  Zn108  1  0.00128399  0.62597637  0.12417885  1
  Zn  Zn109  1  0.37482489  0.75162480  0.62674852  1
  Zn  Zn110  1  0.12689100  0.62491810  0.00203856  1
  Zn  Zn111  1  0.37413434  0.37334905  0.00005225  1
  Zn  Zn112  1  0.62443832  0.12450668  -0.00031645  1
  Zn  Zn113  1  0.62536021  0.74972957  0.87518695  1
  Zn  Zn114  1  0.00120764  0.87817402  0.37545664  1
  Zn  Zn115  1  0.12345296  0.87757295  0.24964843  1
  Zn  Zn116  1  -0.00102658  0.87459276  0.87614087  1
  Zn  Zn117  1  -0.00118636  0.62426673  0.62516334  1
  Zn  Zn118  1  0.62564941  0.37465586  0.24990291  1
  Zn  Zn119  1  -0.00081920  0.25031314  0.24989623  1
  Zn  Zn120  1  0.25133441  0.24966493  0.00072258  1
  Zn  Zn121  1  0.74882973  0.12613815  0.37367569  1
  Zn  Zn122  1  0.25218783  0.87549882  0.62659047  1
  Zn  Zn123  1  0.62407776  0.62535032  0.50048168  1
  Zn  Zn124  1  0.37477271  0.12394015  0.75043688  1
  Zn  Zn125  1  0.50016572  -0.00083258  0.49899085  1
  Zn  Zn126  1  0.25137210  0.62505800  0.37373929  1
  Zn  Zn127  1  0.12327409  0.00064304  0.12550293  1
  Zn  Zn128  1  0.18636767  0.18762706  0.18791730  1
  Zn  Zn129  1  0.18904437  0.18630780  0.68874684  1
  Zn  Zn130  1  0.18744531  0.68538288  0.18713214  1
  Zn  Zn131  1  0.18799293  0.68736182  0.68881401  1
  Zn  Zn132  1  0.68692599  0.18636416  0.18686681  1
  Zn  Zn133  1  0.68746879  0.18746873  0.68701480  1
  Zn  Zn134  1  0.68827170  0.68772565  0.18720844  1
  Zn  Zn135  1  0.68613704  0.68757822  0.68790492  1
  Zn  Zn136  1  0.31170450  0.31225613  0.31236530  1
  Zn  Zn137  1  0.31184736  0.31217742  0.81280916  1
  Zn  Zn138  1  0.31425592  0.81140493  0.31204571  1
  Zn  Zn139  1  0.31099193  0.81243020  0.81348471  1
  Zn  Zn140  1  0.81186528  0.31291234  0.31153866  1
  Zn  Zn141  1  0.81292109  0.31267914  0.81233348  1
  Zn  Zn142  1  0.81321783  0.81458941  0.31231506  1
  Zn  Zn143  1  0.81205956  0.81147100  0.81404223  1
  Zn  Zn144  1  0.18779629  0.43845966  0.43710417  1
  Zn  Zn145  1  0.18882544  0.43533061  0.93886786  1
  Zn  Zn146  1  0.19011100  0.93743040  0.43719526  1
  Zn  Zn147  1  0.18545440  0.93604904  0.93865355  1
  Zn  Zn148  1  0.68623840  0.43824431  0.43679102  1
  Zn  Zn149  1  0.68844293  0.43774801  0.93639149  1
  Zn  Zn150  1  0.68783224  0.93739672  0.43671891  1
  Zn  Zn151  1  0.68661130  0.93678968  0.93822034  1
  Zn  Zn152  1  0.31233021  0.06224084  0.06241700  1
  Zn  Zn153  1  0.31141259  0.06216900  0.56234293  1
  Zn  Zn154  1  0.31186474  0.56163865  0.06151094  1
  Zn  Zn155  1  0.31217512  0.56408708  0.56384796  1
  Zn  Zn156  1  0.81180396  0.06246743  0.06153323  1
  Zn  Zn157  1  0.80976434  0.06427093  0.56158014  1
  Zn  Zn158  1  0.81659487  0.56349920  0.06320429  1
  Zn  Zn159  1  0.81144489  0.56368621  0.56266745  1
  Zn  Zn160  1  0.43794547  0.43666739  0.18716089  1
  Zn  Zn161  1  0.43694020  0.43757432  0.68867585  1
  Zn  Zn162  1  0.43672903  0.93516669  0.18801461  1
  Zn  Zn163  1  0.43673710  0.93736507  0.68710903  1
  Zn  Zn164  1  0.93793860  0.43759640  0.18687579  1
  Zn  Zn165  1  0.93983697  0.43742493  0.68573839  1
  Zn  Zn166  1  0.93684305  0.93710728  0.18711083  1
  Zn  Zn167  1  0.93953379  0.93739117  0.68806799  1
  Zn  Zn168  1  0.06163334  0.06568787  0.31190866  1
  Zn  Zn169  1  0.05976650  0.06404422  0.81246080  1
  Zn  Zn170  1  0.06253413  0.56420089  0.31363419  1
  Zn  Zn171  1  0.06202588  0.56396398  0.81321155  1
  Zn  Zn172  1  0.56312382  0.06165275  0.31198521  1
  Zn  Zn173  1  0.56161106  0.06242223  0.81236853  1
  Zn  Zn174  1  0.56404610  0.56262209  0.31258016  1
  Zn  Zn175  1  0.56314341  0.56294675  0.81317281  1
  Zn  Zn176  1  0.43772676  0.18634173  0.43787827  1
  Zn  Zn177  1  0.43656748  0.18660223  0.93918148  1
  Zn  Zn178  1  0.43821013  0.68630985  0.43623328  1
  Zn  Zn179  1  0.43694022  0.68763588  0.93776978  1
  Zn  Zn180  1  0.93862557  0.18859590  0.43744845  1
  Zn  Zn181  1  0.93762108  0.18691843  0.93602632  1
  Zn  Zn182  1  0.93812686  0.68964911  0.43672312  1
  Zn  Zn183  1  0.93866316  0.68579969  0.93612885  1
  Zn  Zn184  1  0.06267064  0.31267381  0.06166650  1
  Zn  Zn185  1  0.05975640  0.31361224  0.56272083  1
  Zn  Zn186  1  0.06332157  0.81534202  0.06289055  1
  Zn  Zn187  1  0.05999340  0.81531221  0.56335334  1
  Zn  Zn188  1  0.56313403  0.31249063  0.06207745  1
  Zn  Zn189  1  0.56167558  0.31185473  0.56205083  1
  Zn  Zn190  1  0.56426152  0.81117341  0.06259372  1
  Zn  Zn191  1  0.56167628  0.81137391  0.56224767  1
  O  O192  1  0.11765938  0.12444548  0.11856621  1
  O  O193  1  0.12522947  0.11772033  0.61692809  1
  O  O194  1  0.12202940  0.61455101  0.12418534  1
  O  O195  1  0.12558321  0.62051878  0.61564284  1
  O  O196  1  0.61758862  0.11765390  0.12307321  1
  O  O197  1  0.61957732  0.12025295  0.61975327  1
  O  O198  1  0.62114694  0.61818817  0.11878865  1
  O  O199  1  0.61771009  0.61769669  0.62435713  1
  O  O200  1  0.38045137  0.37962383  0.38128175  1
  O  O201  1  0.38220615  0.38082834  0.87536383  1
  O  O202  1  0.38083022  0.87907454  0.38080858  1
  O  O203  1  0.37989885  0.88094480  0.88094381  1
  O  O204  1  0.87908575  0.38089571  0.37960810  1
  O  O205  1  0.87770524  0.37675043  0.88238499  1
  O  O206  1  0.87467314  0.88641050  0.38119597  1
  O  O207  1  0.87465071  0.88255071  0.88137798  1
  O  O208  1  0.25698621  -0.00035641  0.36439914  1
  O  O209  1  0.25420799  0.00400330  0.87083610  1
  O  O210  1  0.25738975  0.50047716  0.36832600  1
  O  O211  1  0.25673305  0.49906411  0.86831746  1
  O  O212  1  0.76011036  0.00171569  0.36885582  1
  O  O213  1  0.75425839  0.00533466  0.86929220  1
  O  O214  1  0.75521216  0.50566960  0.36965358  1
  O  O215  1  0.75203042  0.50582173  0.86700025  1
  O  O216  1  0.24501798  0.49255269  0.13186236  1
  O  O217  1  0.24533032  0.49426934  0.63103025  1
  O  O218  1  0.25069981  0.99220146  0.13533517  1
  O  O219  1  0.23878581  1.00001300  0.63097585  1
  O  O220  1  0.74633409  0.49557130  0.12971953  1
  O  O221  1  0.74340011  0.49458042  0.62990876  1
  O  O222  1  0.74499772  0.99465456  0.12882149  1
  O  O223  1  0.74374018  0.99455763  0.63071015  1
  O  O224  1  0.00625849  0.37405295  0.25709447  1
  O  O225  1  0.00952403  0.37219302  0.75157039  1
  O  O226  1  0.00256007  0.86545136  0.25277234  1
  O  O227  1  0.00657514  0.86813923  0.75220080  1
  O  O228  1  0.50151239  0.36806371  0.25706731  1
  O  O229  1  0.50579759  0.36919023  0.75506280  1
  O  O230  1  0.50081039  0.86670401  0.25621134  1
  O  O231  1  0.50446481  0.87017142  0.75532776  1
  O  O232  1  0.49434554  0.13007766  0.24432880  1
  O  O233  1  0.49835324  0.13173810  0.74320225  1
  O  O234  1  0.49580622  0.62826098  0.24415676  1
  O  O235  1  0.49487777  0.62963894  0.74546417  1
  O  O236  1  0.99237509  0.12753162  0.24240565  1
  O  O237  1  0.98985161  0.12799698  0.74695018  1
  O  O238  1  0.99493459  0.63577794  0.25166643  1
  O  O239  1  0.99267842  0.63170509  0.74738962  1
  O  O240  1  0.37287721  0.25187364  0.00909571  1
  O  O241  1  0.36954457  0.25585600  0.50544423  1
  O  O242  1  0.37235283  0.75836452  0.00253186  1
  O  O243  1  0.36560521  0.75516360  0.49836357  1
  O  O244  1  0.86920667  0.25501303  0.00434420  1
  O  O245  1  0.86822542  0.25606268  0.50407589  1
  O  O246  1  0.87013932  0.75610753  0.00077045  1
  O  O247  1  0.86934363  0.75645987  0.50482476  1
  O  O248  1  0.13008986  0.24373586  0.49693469  1
  O  O249  1  0.12645688  0.24383421  0.99018516  1
  O  O250  1  0.13166259  0.74541333  0.49432957  1
  O  O251  1  0.12422692  0.74966876  0.98922084  1
  O  O252  1  0.62934667  0.24538998  0.49475767  1
  O  O253  1  0.63166261  0.24860660  0.99254924  1
  O  O254  1  0.63215810  0.74865983  0.49359440  1
  O  O255  1  0.63286647  0.74199343  0.99831264  1
  O  O256  1  0.49573592  0.24448488  0.13063087  1
  O  O257  1  0.49447521  0.24508512  0.63033958  1
  O  O258  1  0.50010907  0.74161221  0.13110527  1
  O  O259  1  0.49825699  0.74322390  0.63198520  1
  O  O260  1  0.99200570  0.24402572  0.12522183  1
  O  O261  1  0.98998942  0.24826733  0.62613849  1
  O  O262  1  1.00152120  0.74909340  0.13802119  1
  O  O263  1  0.99269575  0.74920634  0.63144961  1
  O  O264  1  0.00651492  0.25820211  0.37366799  1
  O  O265  1  0.01355615  0.25015117  0.87265090  1
  O  O266  1  0.00928661  0.75237508  0.36756281  1
  O  O267  1  0.00867273  0.75164511  0.86806539  1
  O  O268  1  0.50426799  0.25520843  0.37012466  1
  O  O269  1  0.50472387  0.25436855  0.86975544  1
  O  O270  1  0.50594603  0.75348404  0.36924611  1
  O  O271  1  0.50203399  0.75694987  0.86848966  1
  O  O272  1  0.23949085  0.13155036  0.49905191  1
  O  O273  1  0.24250583  0.12532578  0.99378255  1
  O  O274  1  0.24183973  0.63412280  0.49826920  1
  O  O275  1  0.24550308  0.62795372  0.99727907  1
  O  O276  1  0.74173948  0.13329594  0.49803942  1
  O  O277  1  0.74847280  0.13196261  0.99260925  1
  O  O278  1  0.74866262  0.63281475  0.49347387  1
  O  O279  1  0.74702551  0.62872401  0.99516044  1
  O  O280  1  0.25290233  0.37152178  0.01042689  1
  O  O281  1  0.25538620  0.37069850  0.50610647  1
  O  O282  1  0.25550818  0.87628761  0.01080413  1
  O  O283  1  0.25741881  0.86584111  0.49986587  1
  O  O284  1  0.75587788  0.37005699  0.00482076  1
  O  O285  1  0.75440566  0.37036171  0.50515249  1
  O  O286  1  0.75514175  0.86934825  0.00473021  1
  O  O287  1  0.75543055  0.86992441  0.50628486  1
  O  O288  1  0.13015408  0.49455336  0.24650560  1
  O  O289  1  0.13103179  0.49517194  0.74501907  1
  O  O290  1  0.13675678  0.99988236  0.25045856  1
  O  O291  1  0.12881958  0.99639928  0.74328247  1
  O  O292  1  0.63293662  0.49904818  0.24320944  1
  O  O293  1  0.63006706  0.49378800  0.74425509  1
  O  O294  1  0.63212353  0.99793121  0.24342135  1
  O  O295  1  0.63039759  0.99455723  0.74422838  1
  O  O296  1  0.36775731  0.00468956  0.25480479  1
  O  O297  1  0.36774161  0.00020330  0.75712000  1
  O  O298  1  0.37059695  0.50372981  0.25562140  1
  O  O299  1  0.37032111  0.50467867  0.75582825  1
  O  O300  1  0.86977169  0.00547633  0.25727297  1
  O  O301  1  0.86826832  0.00475186  0.75386203  1
  O  O302  1  0.87017357  0.50592454  0.25608444  1
  O  O303  1  0.86833232  0.50580990  0.74841195  1
  O  O304  1  0.11955987  0.37109905  0.37127654  1
  O  O305  1  0.12668787  0.36438881  0.86873729  1
  O  O306  1  0.12447575  0.86377594  0.37450172  1
  O  O307  1  0.12218053  0.86627421  0.86895696  1
  O  O308  1  0.61748708  0.36836458  0.37391213  1
  O  O309  1  0.61976995  0.36941974  0.86856731  1
  O  O310  1  0.61908448  0.86815839  0.37333381  1
  O  O311  1  0.61766584  0.87474954  0.86794486  1
  O  O312  1  0.38086170  0.12935778  0.13148182  1
  O  O313  1  0.38043921  0.13132553  0.62562687  1
  O  O314  1  0.38337743  0.62354252  0.13173357  1
  O  O315  1  0.38167915  0.62624340  0.63270426  1
  O  O316  1  0.87922864  0.13048999  0.12893892  1
  O  O317  1  0.87355683  0.13146635  0.63003514  1
  O  O318  1  0.87950919  0.62852790  0.13517401  1
  O  O319  1  0.87467667  0.63337221  0.63063424  1
  O  O320  1  0.25693366  0.25545060  0.12630240  1
  O  O321  1  0.25507122  0.25602905  0.61998209  1
  O  O322  1  0.25141299  0.76202479  0.12631299  1
  O  O323  1  0.25049807  0.75221558  0.61225859  1
  O  O324  1  0.75469850  0.25526786  0.11862474  1
  O  O325  1  0.75368803  0.25692916  0.61870183  1
  O  O326  1  0.75234470  0.75610070  0.11851984  1
  O  O327  1  0.75472509  0.75656988  0.62018252  1
  O  O328  1  0.24311277  0.24970752  0.38280698  1
  O  O329  1  0.24004081  0.24343702  0.87542526  1
  O  O330  1  0.24211692  0.74918028  0.38387026  1
  O  O331  1  0.23776051  0.74927817  0.87665532  1
  O  O332  1  0.74299528  0.24988140  0.38091647  1
  O  O333  1  0.74387951  0.24506564  0.87924748  1
  O  O334  1  0.74589800  0.74585333  0.37980518  1
  O  O335  1  0.74824841  0.74239609  0.88192822  1
  O  O336  1  0.00394453  0.11959710  0.00477790  1
  O  O337  1  0.01348041  0.12360572  0.50220224  1
  O  O338  1  0.00187860  0.61222250  0.00226771  1
  O  O339  1  0.01333418  0.62658736  0.50121325  1
  O  O340  1  0.50095593  0.11674847  0.00697574  1
  O  O341  1  0.50628119  0.12337145  0.50728666  1
  O  O342  1  0.50676947  0.61868021  0.00464492  1
  O  O343  1  0.50018806  0.61782481  0.50698280  1
  O  O344  1  0.49333204  0.38018847  0.49536312  1
  O  O345  1  0.49994170  0.38160041  0.99289549  1
  O  O346  1  0.49216082  0.87473355  0.49276270  1
  O  O347  1  0.49459518  0.87968879  0.99536025  1
  O  O348  1  0.99208675  0.37768437  0.49285023  1
  O  O349  1  0.99431104  0.38351411  0.99859033  1
  O  O350  1  0.99114121  0.87938213  0.49665819  1
  O  O351  1  0.99218285  0.88258231  0.99960207  1
  O  O352  1  0.49500388  0.49429681  0.38050577  1
  O  O353  1  0.49589905  0.49377578  0.87952534  1
  O  O354  1  0.49392508  0.99233335  0.37536415  1
  O  O355  1  0.49418412  0.99425784  0.88013513  1
  O  O356  1  0.99310985  0.49506669  0.37781496  1
  O  O357  1  1.00041219  0.49665423  0.88613894  1
  O  O358  1  0.98746425  0.99984767  0.37519399  1
  O  O359  1  0.99159152  0.99921402  0.88147043  1
  O  O360  1  -0.00023934  0.00765912  0.11840152  1
  O  O361  1  0.01349770  0.00279719  0.62344615  1
  O  O362  1  0.00675469  0.49904583  0.11630364  1
  O  O363  1  0.00932748  0.50376444  0.62047502  1
  O  O364  1  0.50426553  0.00379808  0.12096633  1
  O  O365  1  0.50657475  0.00620531  0.62369948  1
  O  O366  1  0.50685303  0.50439452  0.11986398  1
  O  O367  1  0.50429025  0.50421676  0.62045403  1
  O  O368  1  0.24392229  0.38067507  0.24555613  1
  O  O369  1  0.24500957  0.38077887  0.74369390  1
  O  O370  1  0.25148392  0.88391471  0.24269392  1
  O  O371  1  0.24259545  0.88234191  0.74829006  1
  O  O372  1  0.74945541  0.38269493  0.24247732  1
  O  O373  1  0.74387461  0.37997441  0.74378074  1
  O  O374  1  0.74981368  0.88184397  0.24248689  1
  O  O375  1  0.74447099  0.88030666  0.74471242  1
  O  O376  1  0.25614468  0.11495149  0.25042369  1
  O  O377  1  0.25164451  0.11731463  0.75789196  1
  O  O378  1  0.25764645  0.61763243  0.25146085  1
  O  O379  1  0.25716112  0.61791850  0.75120685  1
  O  O380  1  0.75700358  0.11780879  0.25052233  1
  O  O381  1  0.75425083  0.11894704  0.75496439  1
  O  O382  1  0.75680351  0.62055428  0.25613824  1
  O  O383  1  0.75483844  0.61985355  0.75438387  1
  O  O384  1  0.37316009  0.11846048  0.36908317  1
  O  O385  1  0.36823004  0.11753247  0.87449629  1
  O  O386  1  0.37450774  0.61679225  0.36806221  1
  O  O387  1  0.37524103  0.61702844  0.86812219  1
  O  O388  1  0.87353533  0.11707062  0.36968341  1
  O  O389  1  0.86775380  0.11992545  0.86870310  1
  O  O390  1  0.86966875  0.62054395  0.37056789  1
  O  O391  1  0.86866311  0.62206627  0.86658392  1
  O  O392  1  0.13046826  0.37904927  0.13225364  1
  O  O393  1  0.13164515  0.38026318  0.62889658  1
  O  O394  1  0.13678928  0.87980021  0.12816732  1
  O  O395  1  0.12726943  0.88528428  0.62950254  1
  O  O396  1  0.63265405  0.38168973  0.12577975  1
  O  O397  1  0.62945358  0.37990983  0.63019249  1
  O  O398  1  0.63213385  0.88140530  0.12652045  1
  O  O399  1  0.62987185  0.88048976  0.63031714  1
  O  O400  1  0.12361851  0.25648900  0.25812116  1
  O  O401  1  0.12572225  0.25502755  0.75808804  1
  O  O402  1  0.11901616  0.74930146  0.26043224  1
  O  O403  1  0.12032098  0.75531967  0.75584998  1
  O  O404  1  0.61833341  0.25079928  0.25613925  1
  O  O405  1  0.61950454  0.25590277  0.75468226  1
  O  O406  1  0.61872029  0.75017893  0.25699690  1
  O  O407  1  0.61829361  0.75729252  0.75163759  1
  O  O408  1  0.38074019  0.24379126  0.24595080  1
  O  O409  1  0.38107357  0.24864960  0.74323921  1
  O  O410  1  0.38229317  0.74135803  0.24899953  1
  O  O411  1  0.38082978  0.74417925  0.74936496  1
  O  O412  1  0.87477716  0.24375652  0.24266355  1
  O  O413  1  0.87338554  0.24392549  0.74267095  1
  O  O414  1  0.88582065  0.74571775  0.25203357  1
  O  O415  1  0.87915334  0.74569160  0.74446661  1
  O  O416  1  0.37932224  0.49425912  0.49552112  1
  O  O417  1  0.38348552  0.49755525  0.99351194  1
  O  O418  1  0.37442575  0.99213113  0.49303165  1
  O  O419  1  0.38063065  0.99350626  0.99481893  1
  O  O420  1  0.87422831  0.49408480  0.49365789  1
  O  O421  1  0.88495075  0.49339254  0.99963977  1
  O  O422  1  0.87431271  0.99697354  0.49145652  1
  O  O423  1  0.87861498  0.99528636  0.99352409  1
  O  O424  1  0.11675501  0.00708323  0.00054756  1
  O  O425  1  0.12705255  0.00793282  0.50673227  1
  O  O426  1  0.11629855  0.49715144  0.00680719  1
  O  O427  1  0.12720621  0.51115716  0.50479395  1
  O  O428  1  0.61759172  0.00083127  0.00672703  1
  O  O429  1  0.62426779  0.00601130  0.50652981  1
  O  O430  1  0.62074277  0.50518826  0.00518911  1
  O  O431  1  0.61744320  0.50090620  0.50688131  1
  O  O432  1  0.36887601  0.36766821  0.12602451  1
  O  O433  1  0.36990697  0.36947759  0.61981374  1
  O  O434  1  0.36588524  0.87357911  0.11948762  1
  O  O435  1  0.37266169  0.87293950  0.61498824  1
  O  O436  1  0.86932150  0.36933494  0.11885124  1
  O  O437  1  0.86778641  0.37066458  0.61888290  1
  O  O438  1  0.86777271  0.87352419  0.11745266  1
  O  O439  1  0.86850895  0.87141435  0.62025915  1
  O  O440  1  0.12703007  0.13108121  0.38480814  1
  O  O441  1  0.12974405  0.13197988  0.87947824  1
  O  O442  1  0.12785129  0.63528168  0.38432084  1
  O  O443  1  0.12686149  0.63712034  0.87547341  1
  O  O444  1  0.62519236  0.13167213  0.38147822  1
  O  O445  1  0.63108160  0.13143801  0.87534303  1
  O  O446  1  0.63241481  0.63126406  0.37727100  1
  O  O447  1  0.63281664  0.62528069  0.88158987  1
