# generated using pymatgen
data_V3Zn3O8
_symmetry_space_group_name_H-M   'P 1'
_cell_length_a   17.08745829
_cell_length_b   17.08562331
_cell_length_c   17.08768786
_cell_angle_alpha   90.00451263
_cell_angle_beta   90.01049877
_cell_angle_gamma   89.99486387
_symmetry_Int_Tables_number   1
_chemical_formula_structural   V3Zn3O8
_chemical_formula_sum   'V96 Zn96 O256'
_cell_volume   4988.74822875
_cell_formula_units_Z   32
loop_
 _symmetry_equiv_pos_site_id
 _symmetry_equiv_pos_as_xyz
  1  'x, y, z'
loop_
 _atom_site_type_symbol
 _atom_site_label
 _atom_site_symmetry_multiplicity
 _atom_site_fract_x
 _atom_site_fract_y
 _atom_site_fract_z
 _atom_site_occupancy
  V  V0  1  0.37492959  0.25082197  0.62561390  1
  V  V1  1  0.25046282  0.62575110  0.37556046  1
  V  V2  1  0.62496929  0.74897515  0.37503370  1
  V  V3  1  0.12626406  0.50147755  0.12426636  1
  V  V4  1  0.37479660  0.12446456  0.25046718  1
  V  V5  1  0.87493001  0.87466782  0.00067549  1
  V  V6  1  0.50035634  0.62468146  0.12559518  1
  V  V7  1  0.12517582  0.87602623  0.75048702  1
  V  V8  1  0.12398727  0.00160232  0.62449376  1
  V  V9  1  0.24944605  0.00199025  0.75107646  1
  V  V10  1  0.62535118  0.49945091  0.62301938  1
  V  V11  1  0.00067702  0.62617820  0.12444987  1
  V  V12  1  0.24914075  0.74947983  0.50128452  1
  V  V13  1  0.74951847  0.74934977  0.50047413  1
  V  V14  1  0.49991850  0.24969450  0.24946735  1
  V  V15  1  0.24993801  0.12643217  0.87493473  1
  V  V16  1  0.75071664  0.62364271  0.87357825  1
  V  V17  1  0.87509727  0.62374220  0.24977146  1
  V  V18  1  0.49971519  0.62548750  0.62588282  1
  V  V19  1  0.37493921  0.74943780  0.62681892  1
  V  V20  1  0.00031694  0.00107909  0.00093847  1
  V  V21  1  -0.00035832  0.12519517  0.62463993  1
  V  V22  1  0.37475707  0.00012559  0.37659362  1
  V  V23  1  0.62510055  0.37332576  0.74836701  1
  V  V24  1  0.12553708  0.49951302  0.62518795  1
  V  V25  1  0.25221395  0.50188405  0.25071126  1
  V  V26  1  0.12302026  0.25054336  0.37316962  1
  V  V27  1  0.00028416  0.87532480  0.87522284  1
  V  V28  1  0.49976208  0.12426875  0.12550407  1
  V  V29  1  0.62521025  0.12489940  0.00027467  1
  V  V30  1  0.37518103  0.37520639  -0.00007520  1
  V  V31  1  0.87529309  0.37580276  -0.00196355  1
  V  V32  1  0.25072021  0.75191140  0.00176290  1
  V  V33  1  0.87433857  0.87480669  0.49950348  1
  V  V34  1  0.87504039  0.24873034  0.62529033  1
  V  V35  1  -0.00020428  0.74989647  0.74953094  1
  V  V36  1  -0.00127522  0.87472941  0.37604937  1
  V  V37  1  0.87472906  0.74994501  0.12438668  1
  V  V38  1  0.74858263  0.12409109  0.37544626  1
  V  V39  1  0.00013829  0.74957249  0.25064613  1
  V  V40  1  0.24953138  -0.00061222  0.25037501  1
  V  V41  1  0.75085338  0.25045503  0.00182078  1
  V  V42  1  0.37411654  0.24970007  0.12396277  1
  V  V43  1  0.37467012  0.87509343  0.00180515  1
  V  V44  1  0.75045709  -0.00018827  0.75080829  1
  V  V45  1  0.87524074  0.74947836  0.62591784  1
  V  V46  1  0.62397996  0.87491374  0.75126124  1
  V  V47  1  0.00055662  0.62517350  0.62571731  1
  V  V48  1  0.49840114  -0.00036798  0.50102973  1
  V  V49  1  0.50006996  -0.00060848  0.00053769  1
  V  V50  1  0.75182092  0.62374743  0.37432447  1
  V  V51  1  0.24957196  0.87520572  0.62655586  1
  V  V52  1  0.74864785  -0.00172284  0.25000567  1
  V  V53  1  0.75042970  0.37423907  0.62390895  1
  V  V54  1  0.87390175  -0.00131574  0.37524135  1
  V  V55  1  0.49889290  0.12552353  0.62675924  1
  V  V56  1  0.24875393  0.12519382  0.37516419  1
  V  V57  1  0.62629372  0.37519901  0.24847660  1
  V  V58  1  0.62534672  -0.00133994  0.12618025  1
  V  V59  1  0.12292850  0.37538521  0.24886930  1
  V  V60  1  0.87520145  0.00044028  0.87494856  1
  V  V61  1  0.00006990  0.50034247  -0.00239608  1
  V  V62  1  0.62325321  0.25015496  0.87397770  1
  V  V63  1  0.62540172  0.75059775  0.87550394  1
  V  V64  1  0.50213449  0.50044662  -0.00011000  1
  V  V65  1  0.12383541  0.12554316  0.49958468  1
  V  V66  1  0.49885323  0.74871775  0.25101537  1
  V  V67  1  0.12541895  0.87561399  0.25122569  1
  V  V68  1  0.37427381  0.12621839  0.75005966  1
  V  V69  1  0.50103235  0.87511819  0.87626621  1
  V  V70  1  0.25059318  0.37568937  0.62372375  1
  V  V71  1  0.75110517  0.50023467  0.74908507  1
  V  V72  1  0.00093192  0.49970738  0.49894227  1
  V  V73  1  0.37456902  0.87619762  0.50177152  1
  V  V74  1  0.12391007  0.00167297  0.12487291  1
  V  V75  1  0.87517227  0.12435374  0.74916694  1
  V  V76  1  0.62488625  0.24871929  0.37467335  1
  V  V77  1  0.12543309  0.75020121  0.37652114  1
  V  V78  1  0.37511228  0.50167999  0.87318397  1
  V  V79  1  0.25136885  0.62556317  0.87524699  1
  V  V80  1  0.12548660  0.62645030  0.00006144  1
  V  V81  1  0.62504292  0.87394087  0.25051902  1
  V  V82  1  0.62414410  -0.00008869  0.62585722  1
  V  V83  1  0.87546932  0.37418401  0.49868094  1
  V  V84  1  0.87689093  0.12635971  0.24811565  1
  V  V85  1  0.75024553  0.49893843  0.24869797  1
  V  V86  1  0.12524192  0.37577110  0.74993477  1
  V  V87  1  0.12374418  0.25157990  0.87543963  1
  V  V88  1  0.62588382  0.62414965  0.50041112  1
  V  V89  1  0.12520313  0.75088783  0.87581778  1
  V  V90  1  0.37544253  0.37554979  0.49786577  1
  V  V91  1  0.74920944  0.87441048  0.62534979  1
  V  V92  1  0.75058839  0.74905126  -0.00034648  1
  V  V93  1  0.49936344  0.37484772  0.37433352  1
  V  V94  1  0.62447977  0.12476253  0.50007489  1
  V  V95  1  0.25044737  0.25075559  0.00010354  1
  Zn  Zn96  1  0.37271257  0.75025301  0.12830675  1
  Zn  Zn97  1  0.12325925  0.12721043  0.00096525  1
  Zn  Zn98  1  0.87727932  0.49817428  0.37170632  1
  Zn  Zn99  1  0.50092117  0.49992434  0.49696830  1
  Zn  Zn100  1  0.74981928  0.37661347  0.12493677  1
  Zn  Zn101  1  0.62631644  0.62432955  0.00019838  1
  Zn  Zn102  1  -0.00203360  0.25166799  0.24591545  1
  Zn  Zn103  1  0.25125337  0.87465899  0.12679991  1
  Zn  Zn104  1  -0.00087882  0.37527152  0.37304539  1
  Zn  Zn105  1  0.49939745  0.25126741  0.75031380  1
  Zn  Zn106  1  0.25199386  0.50269302  0.74805040  1
  Zn  Zn107  1  0.87608806  0.62304823  0.74927504  1
  Zn  Zn108  1  0.37713589  0.50156868  0.37430109  1
  Zn  Zn109  1  -0.00084360  0.37703842  0.87316984  1
  Zn  Zn110  1  0.49992799  0.37648576  0.87190933  1
  Zn  Zn111  1  0.62701679  0.49763142  0.12329351  1
  Zn  Zn112  1  0.24882784  0.25068428  0.49936826  1
  Zn  Zn113  1  0.49824887  0.75043123  0.75231246  1
  Zn  Zn114  1  0.74947397  0.24890950  0.49947285  1
  Zn  Zn115  1  0.74973287  0.87301267  0.12500087  1
  Zn  Zn116  1  0.37450206  0.00162295  0.87570875  1
  Zn  Zn117  1  0.87768600  0.25040083  0.12449619  1
  Zn  Zn118  1  -0.00140922  0.00001913  0.49980080  1
  Zn  Zn119  1  0.49939148  0.87416168  0.37666619  1
  Zn  Zn120  1  0.75086060  0.12365952  0.87536725  1
  Zn  Zn121  1  -0.00193288  0.25102726  0.75074084  1
  Zn  Zn122  1  0.12593926  0.62491218  0.50129521  1
  Zn  Zn123  1  0.25018657  0.37536500  0.12447711  1
  Zn  Zn124  1  0.37426715  0.62657865  0.74977032  1
  Zn  Zn125  1  -0.00119595  0.12818546  0.12270520  1
  Zn  Zn126  1  0.37599404  0.62508414  0.25219239  1
  Zn  Zn127  1  0.87697599  0.49965106  0.87163873  1
  Zn  Zn128  1  0.18817202  0.18700208  0.18710306  1
  Zn  Zn129  1  0.18834622  0.18978461  0.68686050  1
  Zn  Zn130  1  0.18840283  0.68872563  0.18768568  1
  Zn  Zn131  1  0.18751457  0.68604195  0.68887495  1
  Zn  Zn132  1  0.68869225  0.18717049  0.18730094  1
  Zn  Zn133  1  0.68953479  0.18699399  0.68718640  1
  Zn  Zn134  1  0.68640299  0.68510313  0.18632425  1
  Zn  Zn135  1  0.68626372  0.68792096  0.68914714  1
  Zn  Zn136  1  0.31042007  0.31272390  0.31163736  1
  Zn  Zn137  1  0.31166924  0.31436082  0.81203431  1
  Zn  Zn138  1  0.31292460  0.81361099  0.31489002  1
  Zn  Zn139  1  0.31395711  0.81260862  0.81373523  1
  Zn  Zn140  1  0.81076110  0.31154032  0.31366109  1
  Zn  Zn141  1  0.81057071  0.31148142  0.81286388  1
  Zn  Zn142  1  0.81177978  0.81122998  0.31197368  1
  Zn  Zn143  1  0.81300409  0.81236217  0.81248023  1
  Zn  Zn144  1  0.18821547  0.43717695  0.43646472  1
  Zn  Zn145  1  0.18968145  0.43790739  0.93786013  1
  Zn  Zn146  1  0.18698809  0.93797526  0.43885461  1
  Zn  Zn147  1  0.18819984  0.93894043  0.93839430  1
  Zn  Zn148  1  0.68827172  0.43792047  0.43512520  1
  Zn  Zn149  1  0.68782712  0.43653639  0.93509767  1
  Zn  Zn150  1  0.68583165  0.93687274  0.43701040  1
  Zn  Zn151  1  0.68888374  0.93674885  0.93836037  1
  Zn  Zn152  1  0.31041836  0.06309060  0.06205011  1
  Zn  Zn153  1  0.31026498  0.06446196  0.56292480  1
  Zn  Zn154  1  0.31454517  0.56461921  0.06338378  1
  Zn  Zn155  1  0.31323587  0.56153172  0.56091791  1
  Zn  Zn156  1  0.81114609  0.06167633  0.06354026  1
  Zn  Zn157  1  0.81148481  0.06164529  0.56203109  1
  Zn  Zn158  1  0.81309745  0.56114901  0.06194755  1
  Zn  Zn159  1  0.81408880  0.56196107  0.56306885  1
  Zn  Zn160  1  0.43749422  0.43598738  0.18637625  1
  Zn  Zn161  1  0.43997343  0.43767659  0.68690859  1
  Zn  Zn162  1  0.43866857  0.93648426  0.18831795  1
  Zn  Zn163  1  0.43660365  0.93849302  0.68999283  1
  Zn  Zn164  1  0.93692047  0.43830108  0.18223870  1
  Zn  Zn165  1  0.93787466  0.43729190  0.68678810  1
  Zn  Zn166  1  0.93739323  0.93748687  0.18758037  1
  Zn  Zn167  1  0.93785584  0.93779507  0.68697274  1
  Zn  Zn168  1  0.06002251  0.06144238  0.31310228  1
  Zn  Zn169  1  0.06163211  0.06476100  0.81212837  1
  Zn  Zn170  1  0.06414786  0.56361017  0.31403521  1
  Zn  Zn171  1  0.06306390  0.56260556  0.81254399  1
  Zn  Zn172  1  0.56110380  0.06107883  0.31382444  1
  Zn  Zn173  1  0.56133925  0.06290190  0.81384243  1
  Zn  Zn174  1  0.56441368  0.56016022  0.31275594  1
  Zn  Zn175  1  0.56451218  0.56268208  0.81035238  1
  Zn  Zn176  1  0.43760309  0.18830745  0.43853318  1
  Zn  Zn177  1  0.43768223  0.18692018  0.93706931  1
  Zn  Zn178  1  0.43565308  0.68706494  0.43882629  1
  Zn  Zn179  1  0.43768243  0.68856183  0.93898167  1
  Zn  Zn180  1  0.93849458  0.18710398  0.43628832  1
  Zn  Zn181  1  0.93875060  0.18646332  0.93644292  1
  Zn  Zn182  1  0.93707453  0.68619801  0.43808934  1
  Zn  Zn183  1  0.93657394  0.68704696  0.93649639  1
  Zn  Zn184  1  0.05997530  0.31309580  0.06325310  1
  Zn  Zn185  1  0.06163431  0.31114191  0.56303417  1
  Zn  Zn186  1  0.06262022  0.81477778  0.06349229  1
  Zn  Zn187  1  0.06214875  0.81320689  0.56221614  1
  Zn  Zn188  1  0.56209635  0.31408807  0.06281645  1
  Zn  Zn189  1  0.56100715  0.31098151  0.56151584  1
  Zn  Zn190  1  0.56392577  0.81119911  0.06314118  1
  Zn  Zn191  1  0.56128814  0.81189063  0.56324638  1
  O  O192  1  0.12319627  0.11207282  0.12591450  1
  O  O193  1  0.12037537  0.12155890  0.61986859  1
  O  O194  1  0.11958395  0.62153491  0.11936977  1
  O  O195  1  0.11872192  0.61807990  0.62350030  1
  O  O196  1  0.61886331  0.11927382  0.12056111  1
  O  O197  1  0.61979496  0.11902527  0.62043842  1
  O  O198  1  0.61207818  0.62149319  0.12209932  1
  O  O199  1  0.61884842  0.62087950  0.61961923  1
  O  O200  1  0.37964325  0.37307228  0.38284731  1
  O  O201  1  0.37673085  0.38527312  0.88057310  1
  O  O202  1  0.37603789  0.88235985  0.38400331  1
  O  O203  1  0.38083914  0.87705409  0.88628799  1
  O  O204  1  0.87826336  0.37563616  0.38589967  1
  O  O205  1  0.87615656  0.37585213  0.88550554  1
  O  O206  1  0.87880170  0.87839113  0.37981003  1
  O  O207  1  0.88149740  0.88026550  0.88028657  1
  O  O208  1  0.25479245  0.00557503  0.37006421  1
  O  O209  1  0.24936691  0.00813377  0.86852437  1
  O  O210  1  0.24890731  0.50621146  0.36495210  1
  O  O211  1  0.26113117  0.50691877  0.87671046  1
  O  O212  1  0.75379712  0.00447401  0.36934681  1
  O  O213  1  0.75719904  0.00032357  0.86895736  1
  O  O214  1  0.75376216  0.50672646  0.36756971  1
  O  O215  1  0.74930187  0.50933308  0.86841540  1
  O  O216  1  0.24447834  0.50155454  0.13417718  1
  O  O217  1  0.24373709  0.49352257  0.62556103  1
  O  O218  1  0.24046433  0.99914966  0.13165706  1
  O  O219  1  0.24362487  0.99512061  0.63109864  1
  O  O220  1  0.74714537  0.49906517  0.13261854  1
  O  O221  1  0.74476708  0.49449615  0.62906816  1
  O  O222  1  0.74227369  0.99749837  0.13195885  1
  O  O223  1  0.74372308  0.99344989  0.63047172  1
  O  O224  1  0.01243279  0.37783277  0.25099993  1
  O  O225  1  0.01277856  0.37316374  0.75081629  1
  O  O226  1  0.00469994  0.86862759  0.25652619  1
  O  O227  1  0.00600074  0.87024016  0.75549572  1
  O  O228  1  0.50460501  0.36799150  0.25438428  1
  O  O229  1  0.50949810  0.37185411  0.75163029  1
  O  O230  1  0.50574739  0.86464139  0.25187318  1
  O  O231  1  0.50634822  0.87532071  0.75763305  1
  O  O232  1  0.49436668  0.12965009  0.24495467  1
  O  O233  1  0.49288119  0.12583244  0.74399575  1
  O  O234  1  0.50057835  0.63198155  0.24331238  1
  O  O235  1  0.50037316  0.62682480  0.73684189  1
  O  O236  1  0.98611445  0.12445606  0.25017307  1
  O  O237  1  0.99282526  0.12692615  0.74260821  1
  O  O238  1  0.99617772  0.63011081  0.24435706  1
  O  O239  1  0.99961160  0.63241491  0.74418061  1
  O  O240  1  0.37094817  0.25500018  0.00445630  1
  O  O241  1  0.37347598  0.26032858  0.50523379  1
  O  O242  1  0.37024708  0.76017094  0.00166043  1
  O  O243  1  0.36868483  0.75666530  0.50676987  1
  O  O244  1  0.86577698  0.25638626  -0.00295060  1
  O  O245  1  0.87520159  0.25955977  0.50467709  1
  O  O246  1  0.87116516  0.75511005  0.00509220  1
  O  O247  1  0.86863600  0.75503769  0.50561210  1
  O  O248  1  0.12552027  0.24580761  0.48932073  1
  O  O249  1  0.13087736  0.25205809  0.99036143  1
  O  O250  1  0.13150603  0.74988432  0.49438599  1
  O  O251  1  0.12959448  0.74649760  0.99503222  1
  O  O252  1  0.62529385  0.24236777  0.49276075  1
  O  O253  1  0.63142553  0.24637049  0.99334842  1
  O  O254  1  0.63078623  0.74459562  0.49534814  1
  O  O255  1  0.63217936  0.74823411  0.99316682  1
  O  O256  1  0.49430707  0.24339098  0.12980385  1
  O  O257  1  0.49319046  0.24241988  0.62672347  1
  O  O258  1  0.50054120  0.74152153  0.13442173  1
  O  O259  1  0.49470087  0.74089461  0.62572379  1
  O  O260  1  0.99635994  0.24509075  0.12867239  1
  O  O261  1  0.99310270  0.24290667  0.62708002  1
  O  O262  1  0.99564937  0.74526427  0.13078522  1
  O  O263  1  0.99554267  0.74560413  0.63001973  1
  O  O264  1  0.01252204  0.25158458  0.37006523  1
  O  O265  1  0.01279627  0.25284986  0.87296655  1
  O  O266  1  0.00495434  0.75444498  0.36995257  1
  O  O267  1  0.00575708  0.75572284  0.87037879  1
  O  O268  1  0.50514141  0.25384882  0.36797812  1
  O  O269  1  0.51288511  0.25208331  0.87527589  1
  O  O270  1  0.50615967  0.74845763  0.36664639  1
  O  O271  1  0.50723572  0.75618692  0.87503974  1
  O  O272  1  0.24256880  0.12788662  0.49257540  1
  O  O273  1  0.24706045  0.13269101  0.99324338  1
  O  O274  1  0.24830463  0.63178433  0.49456950  1
  O  O275  1  0.24486073  0.63156632  0.99559425  1
  O  O276  1  0.74234257  0.12457088  0.49342754  1
  O  O277  1  0.74405356  0.13369836  0.99855523  1
  O  O278  1  0.74598878  0.63010574  0.49550570  1
  O  O279  1  0.74930841  0.62946879  0.98988762  1
  O  O280  1  0.25729566  0.36917504  0.00245004  1
  O  O281  1  0.25904687  0.37337932  0.50408774  1
  O  O282  1  0.25941654  0.87104609  0.00046051  1
  O  O283  1  0.25480037  0.87032208  0.50732462  1
  O  O284  1  0.75728515  0.36715297  -0.00079351  1
  O  O285  1  0.76089238  0.37513113  0.50467388  1
  O  O286  1  0.75785211  0.86746699  0.00124021  1
  O  O287  1  0.75378304  0.86881383  0.50553108  1
  O  O288  1  0.13239331  0.49435756  0.24536555  1
  O  O289  1  0.12658057  0.49048562  0.74479786  1
  O  O290  1  0.12918233  0.99536345  0.24424543  1
  O  O291  1  0.12965823  0.99518117  0.74472655  1
  O  O292  1  0.63276005  0.49273057  0.24886710  1
  O  O293  1  0.63140434  0.49350852  0.74249546  1
  O  O294  1  0.62851072  0.99454264  0.24604991  1
  O  O295  1  0.63021708  0.99490384  0.74519620  1
  O  O296  1  0.37044544  0.00497239  0.25565911  1
  O  O297  1  0.36668251  0.00719263  0.75193880  1
  O  O298  1  0.36208960  0.49892149  0.25058248  1
  O  O299  1  0.37565653  0.50129919  0.76244893  1
  O  O300  1  0.86854086  0.00577272  0.25576326  1
  O  O301  1  0.86994277  0.00353984  0.75514702  1
  O  O302  1  0.87005500  0.50616934  0.24957975  1
  O  O303  1  0.86701863  0.50139673  0.75108146  1
  O  O304  1  0.12482728  0.36710608  0.36625860  1
  O  O305  1  0.12743795  0.36780606  0.86653723  1
  O  O306  1  0.11938168  0.87023684  0.37060402  1
  O  O307  1  0.11993340  0.87053198  0.87027680  1
  O  O308  1  0.61971292  0.36818821  0.36944007  1
  O  O309  1  0.62480581  0.36537653  0.86803834  1
  O  O310  1  0.62223510  0.86690365  0.36945843  1
  O  O311  1  0.62040680  0.87051202  0.87086507  1
  O  O312  1  0.38041262  0.12919446  0.13068942  1
  O  O313  1  0.37867781  0.13089938  0.62994828  1
  O  O314  1  0.38825137  0.62792783  0.12830723  1
  O  O315  1  0.38414563  0.62937245  0.62419550  1
  O  O316  1  0.87436223  0.12464375  0.13723483  1
  O  O317  1  0.87924314  0.12877622  0.62892063  1
  O  O318  1  0.88216720  0.63050212  0.12944465  1
  O  O319  1  0.88177008  0.63228876  0.62630478  1
  O  O320  1  0.25688560  0.25017308  0.11862122  1
  O  O321  1  0.25674597  0.25775181  0.62189910  1
  O  O322  1  0.25245038  0.75405630  0.11839850  1
  O  O323  1  0.25408511  0.75577204  0.62115312  1
  O  O324  1  0.75082486  0.25177818  0.11132488  1
  O  O325  1  0.75639874  0.25611012  0.62119260  1
  O  O326  1  0.75676045  0.74865003  0.11830794  1
  O  O327  1  0.75409822  0.75514628  0.61992274  1
  O  O328  1  0.23827123  0.24394957  0.37371181  1
  O  O329  1  0.24218868  0.24668581  0.87972930  1
  O  O330  1  0.24477755  0.74598218  0.38130155  1
  O  O331  1  0.24427991  0.74602500  0.88152965  1
  O  O332  1  0.74186771  0.24198829  0.37713585  1
  O  O333  1  0.73968851  0.24796134  0.88461192  1
  O  O334  1  0.74483429  0.74337146  0.38075574  1
  O  O335  1  0.74581330  0.74269261  0.87916565  1
  O  O336  1  0.00312933  0.11615563  0.00173990  1
  O  O337  1  0.00594402  0.12273322  0.50591319  1
  O  O338  1  0.00589836  0.62169660  0.00481415  1
  O  O339  1  0.00070966  0.61481795  0.50597740  1
  O  O340  1  0.50505329  0.11965993  0.00641691  1
  O  O341  1  0.50441284  0.11890533  0.50646055  1
  O  O342  1  0.50038151  0.61659155  0.00800396  1
  O  O343  1  0.50647363  0.62444556  0.50960325  1
  O  O344  1  0.49112442  0.37508220  0.49349314  1
  O  O345  1  0.49421108  0.38566097  0.99814639  1
  O  O346  1  0.49264049  0.88165773  0.50081675  1
  O  O347  1  0.49340844  0.87957311  0.99653498  1
  O  O348  1  0.99204037  0.38351134  0.50111518  1
  O  O349  1  0.99156799  0.38167750  0.99748462  1
  O  O350  1  0.99200775  0.87541878  0.49377067  1
  O  O351  1  0.99468650  0.88023244  0.99391198  1
  O  O352  1  0.49727980  0.49138713  0.37648324  1
  O  O353  1  0.49241879  0.50257795  0.88354584  1
  O  O354  1  0.49234794  0.99878028  0.38281968  1
  O  O355  1  0.49893856  0.99357465  0.88349672  1
  O  O356  1  0.99983104  0.49882657  0.38695111  1
  O  O357  1  0.99803349  0.49891509  0.88247363  1
  O  O358  1  0.99226180  0.99178723  0.37659529  1
  O  O359  1  0.99571423  0.99413023  0.87993252  1
  O  O360  1  0.00919604  -0.00012145  0.12015708  1
  O  O361  1  0.00659668  0.00610043  0.62333746  1
  O  O362  1  0.00706641  0.50765020  0.11788824  1
  O  O363  1  0.00542706  0.50450080  0.61704544  1
  O  O364  1  0.50579697  0.00556698  0.12091020  1
  O  O365  1  0.50479216  0.00553139  0.62062084  1
  O  O366  1  0.49921534  0.50743560  0.11609777  1
  O  O367  1  0.50653110  0.50959061  0.62206603  1
  O  O368  1  0.23980808  0.38416349  0.24882952  1
  O  O369  1  0.24020323  0.37832549  0.74359540  1
  O  O370  1  0.24365067  0.88181448  0.25053655  1
  O  O371  1  0.24412748  0.88090648  0.74613297  1
  O  O372  1  0.74486795  0.38089925  0.24901552  1
  O  O373  1  0.74465631  0.37994843  0.74319510  1
  O  O374  1  0.74311527  0.88007081  0.24884678  1
  O  O375  1  0.74443333  0.88021366  0.74458760  1
  O  O376  1  0.25588366  0.11909144  0.25581502  1
  O  O377  1  0.25462071  0.12112098  0.75468246  1
  O  O378  1  0.25022037  0.61660477  0.25547999  1
  O  O379  1  0.25270760  0.62201692  0.75909499  1
  O  O380  1  0.75661071  0.11870788  0.25565120  1
  O  O381  1  0.75691573  0.11676786  0.75075379  1
  O  O382  1  0.75549582  0.61983400  0.25481842  1
  O  O383  1  0.75050703  0.61942888  0.75770339  1
  O  O384  1  0.36940123  0.12030018  0.37002534  1
  O  O385  1  0.36811119  0.12484218  0.86880323  1
  O  O386  1  0.36675969  0.62179847  0.37297602  1
  O  O387  1  0.37062042  0.61691389  0.87582386  1
  O  O388  1  0.86889008  0.11932368  0.36817200  1
  O  O389  1  0.87417008  0.11780524  0.86761255  1
  O  O390  1  0.86942941  0.62396390  0.36772282  1
  O  O391  1  0.86223381  0.62477472  0.87193642  1
  O  O392  1  0.12705410  0.38228069  0.13357605  1
  O  O393  1  0.12986155  0.37826942  0.63204105  1
  O  O394  1  0.12567319  0.88563867  0.13219281  1
  O  O395  1  0.13007497  0.88055060  0.63108161  1
  O  O396  1  0.62686485  0.37642186  0.13325844  1
  O  O397  1  0.63081698  0.37892563  0.62753481  1
  O  O398  1  0.62632830  0.88095671  0.13210426  1
  O  O399  1  0.62979193  0.88021507  0.63030746  1
  O  O400  1  0.12576465  0.25916677  0.25603293  1
  O  O401  1  0.12596296  0.25977569  0.75828713  1
  O  O402  1  0.11945768  0.75572348  0.25598392  1
  O  O403  1  0.12006348  0.75677861  0.75618747  1
  O  O404  1  0.61924223  0.25357061  0.25477288  1
  O  O405  1  0.62657458  0.25368018  0.75936858  1
  O  O406  1  0.61757189  0.75318329  0.25513499  1
  O  O407  1  0.62364945  0.75826324  0.75699102  1
  O  O408  1  0.37962093  0.24403425  0.24479850  1
  O  O409  1  0.37598100  0.24472962  0.74410891  1
  O  O410  1  0.38686250  0.74985084  0.25021723  1
  O  O411  1  0.37782532  0.74804999  0.74286523  1
  O  O412  1  0.87433350  0.23896132  0.24928257  1
  O  O413  1  0.87497922  0.24363684  0.74377604  1
  O  O414  1  0.88063345  0.74407196  0.24450391  1
  O  O415  1  0.88238217  0.75026483  0.74307090  1
  O  O416  1  0.37679887  0.48610825  0.49766854  1
  O  O417  1  0.38271177  0.49636774  0.99264644  1
  O  O418  1  0.37854567  0.99601881  0.49663405  1
  O  O419  1  0.38071277  0.99179741  0.99992023  1
  O  O420  1  0.88447922  0.49039197  0.50119059  1
  O  O421  1  0.88049930  0.49132777  0.99731979  1
  O  O422  1  0.87421096  0.99226856  0.49302003  1
  O  O423  1  0.87962446  0.99458533  0.99513102  1
  O  O424  1  0.11989476  0.00001722  0.00976853  1
  O  O425  1  0.12309652  0.00695181  0.50656477  1
  O  O426  1  0.12153186  0.50663238  0.00469354  1
  O  O427  1  0.11527277  0.49840698  0.50574022  1
  O  O428  1  0.62047083  0.00468752  0.00594415  1
  O  O429  1  0.61877551  0.00451919  0.50627789  1
  O  O430  1  0.61289324  0.50043270  -0.00079822  1
  O  O431  1  0.62499555  0.50633963  0.50562918  1
  O  O432  1  0.37346227  0.36707201  0.11855820  1
  O  O433  1  0.37150580  0.37128068  0.61723282  1
  O  O434  1  0.37481123  0.87425182  0.11337663  1
  O  O435  1  0.36847555  0.87067206  0.62139127  1
  O  O436  1  0.87297556  0.37239647  0.11034845  1
  O  O437  1  0.87073602  0.36918659  0.61705446  1
  O  O438  1  0.87426269  0.86768320  0.11897149  1
  O  O439  1  0.86874129  0.86973659  0.61972407  1
  O  O440  1  0.12858366  0.13189315  0.37776720  1
  O  O441  1  0.13077336  0.13691006  0.87385632  1
  O  O442  1  0.13179150  0.63301865  0.37764739  1
  O  O443  1  0.13070183  0.63174354  0.88130927  1
  O  O444  1  0.62873107  0.12863294  0.38007050  1
  O  O445  1  0.62647229  0.13353514  0.88153925  1
  O  O446  1  0.63164391  0.62976469  0.38079905  1
  O  O447  1  0.63565884  0.63078562  0.87499494  1
