# generated using pymatgen
data_V3Zn3O8
_symmetry_space_group_name_H-M   'P 1'
_cell_length_a   17.09268561
_cell_length_b   17.09337890
_cell_length_c   17.09187011
_cell_angle_alpha   90.01994474
_cell_angle_beta   89.99303560
_cell_angle_gamma   90.01501263
_symmetry_Int_Tables_number   1
_chemical_formula_structural   V3Zn3O8
_chemical_formula_sum   'V96 Zn96 O256'
_cell_volume   4993.76111598
_cell_formula_units_Z   32
loop_
 _symmetry_equiv_pos_site_id
 _symmetry_equiv_pos_as_xyz
  1  'x, y, z'
loop_
 _atom_site_type_symbol
 _atom_site_label
 _atom_site_symmetry_multiplicity
 _atom_site_fract_x
 _atom_site_fract_y
 _atom_site_fract_z
 _atom_site_occupancy
  V  V0  1  0.25174217  0.12435493  0.37424959  1
  V  V1  1  0.00143005  0.12365467  0.12583011  1
  V  V2  1  0.49956463  0.50135672  -0.00051790  1
  V  V3  1  0.87635228  0.12435286  0.25147457  1
  V  V4  1  0.62265560  0.37757645  0.74826974  1
  V  V5  1  0.75004740  0.74893638  0.00025160  1
  V  V6  1  0.75201743  0.12437987  0.37614108  1
  V  V7  1  0.25072985  0.87522159  0.12521235  1
  V  V8  1  0.87448674  0.49924328  0.37545702  1
  V  V9  1  0.62504936  0.74985967  0.37468084  1
  V  V10  1  0.62547806  0.75000710  0.87558721  1
  V  V11  1  0.37400001  0.62388029  0.25031249  1
  V  V12  1  0.00042438  0.87428009  0.37505746  1
  V  V13  1  -0.00025229  0.49921251  -0.00040840  1
  V  V14  1  0.62766597  0.25060054  0.87702561  1
  V  V15  1  0.12469518  0.49870423  0.12465998  1
  V  V16  1  0.62665241  0.00010369  0.12477398  1
  V  V17  1  0.50247435  0.00127708  0.50051860  1
  V  V18  1  0.37317989  0.50175794  0.87381150  1
  V  V19  1  0.00037497  0.37323165  0.87428653  1
  V  V20  1  0.50072946  0.87517457  0.37512044  1
  V  V21  1  -0.00216996  0.62512531  0.62595678  1
  V  V22  1  0.74946938  0.62506040  0.37494045  1
  V  V23  1  0.50019279  0.62468810  0.12501140  1
  V  V24  1  0.37587960  0.87540248  -0.00013447  1
  V  V25  1  0.37535731  0.74941443  0.12495230  1
  V  V26  1  0.37501505  0.00044918  0.87572109  1
  V  V27  1  0.00051475  0.75008964  0.25045845  1
  V  V28  1  0.49851563  0.37718846  0.87434355  1
  V  V29  1  0.37573869  -0.00018679  0.37377561  1
  V  V30  1  0.62298329  0.50066159  0.62422875  1
  V  V31  1  0.12624379  0.24913442  0.37522727  1
  V  V32  1  0.24893818  0.37562730  0.12558236  1
  V  V33  1  0.25040471  0.75053190  -0.00092795  1
  V  V34  1  0.87424654  0.00087714  0.87339519  1
  V  V35  1  0.62522559  0.25062407  0.37426182  1
  V  V36  1  0.37536796  0.75003705  0.62424360  1
  V  V37  1  0.12455234  0.49901139  0.62590431  1
  V  V38  1  0.50101607  0.87504021  0.87477111  1
  V  V39  1  0.87474791  0.37362318  0.00082939  1
  V  V40  1  0.74992706  0.75049073  0.50054628  1
  V  V41  1  0.50299467  0.00351909  0.00242561  1
  V  V42  1  0.37583034  0.12582103  0.74935507  1
  V  V43  1  0.62556853  0.49947309  0.12506734  1
  V  V44  1  0.87462984  0.74985341  0.12414262  1
  V  V45  1  0.49774370  0.25105033  0.74995957  1
  V  V46  1  0.12587913  0.00028239  0.12470543  1
  V  V47  1  0.37405679  0.37633218  -0.00001169  1
  V  V48  1  0.12450069  0.75003320  0.87473125  1
  V  V49  1  0.37423361  0.37483766  0.50032925  1
  V  V50  1  0.12490921  0.37536483  0.24960535  1
  V  V51  1  0.62647884  0.87513475  0.24970089  1
  V  V52  1  0.12514241  0.62675896  0.49750825  1
  V  V53  1  0.87593112  0.24958699  0.12493410  1
  V  V54  1  0.12574547  0.87483383  0.74916768  1
  V  V55  1  -0.00017579  0.62452631  0.12496910  1
  V  V56  1  0.87642338  0.00006486  0.37514872  1
  V  V57  1  0.12480847  0.62475442  -0.00025470  1
  V  V58  1  0.75149624  0.37330132  0.12501738  1
  V  V59  1  0.12510301  0.87380170  0.25060293  1
  V  V60  1  0.24989394  0.62553328  0.87371055  1
  V  V61  1  -0.00106066  0.12588888  0.62780025  1
  V  V62  1  0.87404906  0.74910422  0.62617219  1
  V  V63  1  0.62387519  0.62506267  0.49961223  1
  V  V64  1  0.75089685  0.87443015  0.12561476  1
  V  V65  1  0.62524461  0.37322564  0.25091545  1
  V  V66  1  -0.00150168  0.74882530  0.75008477  1
  V  V67  1  -0.00086572  0.49943521  0.50104437  1
  V  V68  1  0.00072818  -0.00105822  0.00065362  1
  V  V69  1  0.49820965  0.49976614  0.49882705  1
  V  V70  1  0.50022071  0.74957942  0.24979879  1
  V  V71  1  0.25208821  -0.00002082  0.25018306  1
  V  V72  1  0.25087754  0.24964357  0.50096603  1
  V  V73  1  0.37527264  0.87566540  0.49966505  1
  V  V74  1  0.25015475  0.12499027  0.87548488  1
  V  V75  1  0.00252508  -0.00022402  0.50148511  1
  V  V76  1  0.62507989  0.12470768  0.50111064  1
  V  V77  1  0.37239258  0.50107845  0.37332871  1
  V  V78  1  0.74789899  0.37636421  0.62435470  1
  V  V79  1  0.87224086  0.50089497  0.87296863  1
  V  V80  1  0.74999653  0.25039444  0.50189453  1
  V  V81  1  0.12335560  0.24935681  0.87325759  1
  V  V82  1  0.49823638  0.62684434  0.62387923  1
  V  V83  1  0.00105535  0.24912828  0.25109768  1
  V  V84  1  0.74999728  0.87730231  0.62557147  1
  V  V85  1  0.24889374  0.87635055  0.62445710  1
  V  V86  1  0.37766648  0.24908250  0.12755778  1
  V  V87  1  0.24812362  0.50055732  0.74905965  1
  V  V88  1  0.62523383  0.87715392  0.75040957  1
  V  V89  1  0.75024675  0.49936021  0.24993563  1
  V  V90  1  0.87395903  0.37446339  0.50186879  1
  V  V91  1  0.87500165  0.62431732  0.24990825  1
  V  V92  1  0.24986527  0.25005238  -0.00017116  1
  V  V93  1  0.62559439  0.62527421  -0.00082204  1
  V  V94  1  -0.00022370  0.37385856  0.37631893  1
  V  V95  1  0.00024704  0.87472833  0.87540575  1
  Zn  Zn96  1  0.62909971  0.12842902  0.00230610  1
  Zn  Zn97  1  0.24830369  0.75041880  0.49615813  1
  Zn  Zn98  1  0.75111147  -0.00034000  0.24987784  1
  Zn  Zn99  1  0.75119920  0.00422512  0.75012949  1
  Zn  Zn100  1  0.87528644  0.87413927  0.49995781  1
  Zn  Zn101  1  0.87526911  0.87392808  0.00030820  1
  Zn  Zn102  1  0.87084334  0.13005693  0.75135892  1
  Zn  Zn103  1  0.24755333  0.37370821  0.62700071  1
  Zn  Zn104  1  0.74901236  0.62546033  0.87254093  1
  Zn  Zn105  1  0.74900153  0.12276873  0.87504727  1
  Zn  Zn106  1  0.74727840  0.50333693  0.74929172  1
  Zn  Zn107  1  0.87096020  0.62509985  0.75054179  1
  Zn  Zn108  1  0.37499174  0.25003839  0.62497718  1
  Zn  Zn109  1  0.50413649  0.12752066  0.12774192  1
  Zn  Zn110  1  0.75143278  0.24740674  -0.00046113  1
  Zn  Zn111  1  -0.00276280  0.25082662  0.74893354  1
  Zn  Zn112  1  0.12574017  0.12390867  0.00011845  1
  Zn  Zn113  1  0.37937110  0.12450901  0.24911086  1
  Zn  Zn114  1  0.12648684  0.74904866  0.37388381  1
  Zn  Zn115  1  0.37527997  0.62696163  0.74957907  1
  Zn  Zn116  1  0.24791027  0.50209202  0.24959866  1
  Zn  Zn117  1  0.62507122  0.00374437  0.62708484  1
  Zn  Zn118  1  0.87435935  0.25065201  0.62861122  1
  Zn  Zn119  1  0.12564107  0.00121262  0.62729246  1
  Zn  Zn120  1  0.49971726  0.75010345  0.74997753  1
  Zn  Zn121  1  0.24770181  0.62732212  0.37261508  1
  Zn  Zn122  1  0.50123759  0.12593116  0.62423678  1
  Zn  Zn123  1  0.12753290  0.12433388  0.50230347  1
  Zn  Zn124  1  0.50181576  0.24839689  0.25086889  1
  Zn  Zn125  1  0.24918257  0.00037782  0.75071314  1
  Zn  Zn126  1  0.12373642  0.37420720  0.74727645  1
  Zn  Zn127  1  0.49980776  0.37283136  0.37236812  1
  Zn  Zn128  1  0.18965282  0.18645802  0.18832361  1
  Zn  Zn129  1  0.18668867  0.18520017  0.68708438  1
  Zn  Zn130  1  0.18777103  0.68684474  0.18744327  1
  Zn  Zn131  1  0.18681131  0.68735808  0.68565244  1
  Zn  Zn132  1  0.68934874  0.18548512  0.18807328  1
  Zn  Zn133  1  0.68801424  0.18738707  0.68993413  1
  Zn  Zn134  1  0.68818255  0.68733811  0.18698678  1
  Zn  Zn135  1  0.68741701  0.68797407  0.68928071  1
  Zn  Zn136  1  0.31111718  0.31382653  0.31211773  1
  Zn  Zn137  1  0.30920394  0.31385612  0.81223808  1
  Zn  Zn138  1  0.31127781  0.81103634  0.31376924  1
  Zn  Zn139  1  0.31304389  0.81351152  0.81059984  1
  Zn  Zn140  1  0.81211133  0.31100952  0.31298641  1
  Zn  Zn141  1  0.81159269  0.31536005  0.80805442  1
  Zn  Zn142  1  0.81420349  0.81328731  0.31230789  1
  Zn  Zn143  1  0.81251690  0.81376050  0.81323615  1
  Zn  Zn144  1  0.18749218  0.43813102  0.43776062  1
  Zn  Zn145  1  0.18738422  0.43613370  0.93657992  1
  Zn  Zn146  1  0.18707226  0.93706258  0.43719930  1
  Zn  Zn147  1  0.18731398  0.93806878  0.93709707  1
  Zn  Zn148  1  0.68687391  0.43684530  0.43792824  1
  Zn  Zn149  1  0.68851550  0.43542079  0.93826042  1
  Zn  Zn150  1  0.68821847  0.93904749  0.43805233  1
  Zn  Zn151  1  0.68972526  0.93550642  0.93909981  1
  Zn  Zn152  1  0.31324808  0.06452467  0.06204675  1
  Zn  Zn153  1  0.31520869  0.06193362  0.56243150  1
  Zn  Zn154  1  0.31123439  0.56275812  0.06217576  1
  Zn  Zn155  1  0.30934353  0.56274034  0.56225550  1
  Zn  Zn156  1  0.81182930  0.06320589  0.05893078  1
  Zn  Zn157  1  0.81524624  0.06272526  0.56241235  1
  Zn  Zn158  1  0.81196330  0.56199170  0.06071603  1
  Zn  Zn159  1  0.81105685  0.56243688  0.56309337  1
  Zn  Zn160  1  0.43910541  0.43517303  0.18844304  1
  Zn  Zn161  1  0.43489048  0.43907202  0.68668344  1
  Zn  Zn162  1  0.43910006  0.93684948  0.18760994  1
  Zn  Zn163  1  0.43866939  0.93990669  0.68690764  1
  Zn  Zn164  1  0.93846015  0.43618280  0.18817586  1
  Zn  Zn165  1  0.93773635  0.43581548  0.68943564  1
  Zn  Zn166  1  0.93743278  0.93718199  0.18781383  1
  Zn  Zn167  1  0.93733572  0.93736484  0.68858379  1
  Zn  Zn168  1  0.06524342  0.06188073  0.31383707  1
  Zn  Zn169  1  0.06236256  0.06152772  0.81090712  1
  Zn  Zn170  1  0.06052043  0.56105781  0.31259444  1
  Zn  Zn171  1  0.06066140  0.56225686  0.81168353  1
  Zn  Zn172  1  0.56341774  0.06448598  0.31090320  1
  Zn  Zn173  1  0.56205587  0.06442185  0.81450852  1
  Zn  Zn174  1  0.56076785  0.56081347  0.31223433  1
  Zn  Zn175  1  0.56024149  0.56558846  0.81030919  1
  Zn  Zn176  1  0.43939457  0.18633260  0.43455703  1
  Zn  Zn177  1  0.43848817  0.18875807  0.93743887  1
  Zn  Zn178  1  0.43627624  0.68773977  0.43774582  1
  Zn  Zn179  1  0.43840932  0.68778837  0.93671280  1
  Zn  Zn180  1  0.93750914  0.18710505  0.44185750  1
  Zn  Zn181  1  0.93813015  0.18433500  0.93943284  1
  Zn  Zn182  1  0.93732999  0.68843462  0.43810866  1
  Zn  Zn183  1  0.93681299  0.68649916  0.93780084  1
  Zn  Zn184  1  0.06207319  0.31106297  0.06058460  1
  Zn  Zn185  1  0.06336882  0.31145542  0.56317181  1
  Zn  Zn186  1  0.06233503  0.81327440  0.06260900  1
  Zn  Zn187  1  0.06110665  0.81184981  0.56269289  1
  Zn  Zn188  1  0.56210930  0.31550184  0.06182587  1
  Zn  Zn189  1  0.56023501  0.31071860  0.56216801  1
  Zn  Zn190  1  0.56354906  0.81379595  0.06201564  1
  Zn  Zn191  1  0.56290286  0.81401469  0.56276242  1
  O  O192  1  0.11969986  0.11800358  0.12521917  1
  O  O193  1  0.11596767  0.12083429  0.62208539  1
  O  O194  1  0.11921323  0.61930798  0.11889218  1
  O  O195  1  0.11744165  0.61991224  0.61652355  1
  O  O196  1  0.62414669  0.11636578  0.12190433  1
  O  O197  1  0.62317671  0.12330854  0.61721017  1
  O  O198  1  0.61949224  0.61893607  0.12043343  1
  O  O199  1  0.61861314  0.62165437  0.61781979  1
  O  O200  1  0.37495042  0.38383315  0.38336023  1
  O  O201  1  0.37870301  0.38163472  0.88084256  1
  O  O202  1  0.38128085  0.87946127  0.38015431  1
  O  O203  1  0.38037601  0.87965283  0.88060632  1
  O  O204  1  0.88000423  0.38023573  0.38056745  1
  O  O205  1  0.88002319  0.38277252  0.88099298  1
  O  O206  1  0.88232486  0.88113616  0.37662622  1
  O  O207  1  0.88303212  0.88191493  0.87741450  1
  O  O208  1  0.25584602  0.00388077  0.36995425  1
  O  O209  1  0.25787026  0.00599785  0.87515433  1
  O  O210  1  0.26184998  0.50214025  0.37364977  1
  O  O211  1  0.25351254  0.50637700  0.87000563  1
  O  O212  1  0.75846397  0.00615820  0.37475577  1
  O  O213  1  0.76255825  -0.00342435  0.87495956  1
  O  O214  1  0.75491576  0.50577946  0.37001902  1
  O  O215  1  0.76101655  0.50049381  0.87588691  1
  O  O216  1  0.24226294  0.49333525  0.12438870  1
  O  O217  1  0.24285650  0.49989352  0.63219959  1
  O  O218  1  0.24674322  0.99412207  0.12926426  1
  O  O219  1  0.25047979  0.98680592  0.62576648  1
  O  O220  1  0.74558565  0.49444217  0.13084354  1
  O  O221  1  0.73978522  0.49410249  0.62297530  1
  O  O222  1  0.74468702  0.99250140  0.12587307  1
  O  O223  1  0.74964009  0.98750752  0.62586956  1
  O  O224  1  0.00495369  0.36868339  0.25656839  1
  O  O225  1  0.00456690  0.37240568  0.75906721  1
  O  O226  1  0.00589690  0.86960430  0.25479028  1
  O  O227  1  0.00661503  0.86785437  0.75500113  1
  O  O228  1  0.51022860  0.37174701  0.25168601  1
  O  O229  1  0.50210945  0.37170101  0.75528777  1
  O  O230  1  0.50598250  0.86809862  0.25535814  1
  O  O231  1  0.50901013  0.87485339  0.75562432  1
  O  O232  1  0.49632114  0.12977034  0.24548083  1
  O  O233  1  0.48942214  0.13132983  0.75221374  1
  O  O234  1  0.49482421  0.63018000  0.24404380  1
  O  O235  1  0.49553104  0.62997687  0.73986098  1
  O  O236  1  0.99632621  0.13040588  0.24631048  1
  O  O237  1  0.99871488  0.12510911  0.73799398  1
  O  O238  1  0.99386019  0.62912447  0.24418974  1
  O  O239  1  0.99800775  0.63174391  0.74315406  1
  O  O240  1  0.37024331  0.25713648  0.00643443  1
  O  O241  1  0.36691550  0.25830874  0.49723835  1
  O  O242  1  0.37025921  0.75539999  0.00540205  1
  O  O243  1  0.37429444  0.75696879  0.50922212  1
  O  O244  1  0.87646343  0.25687539  0.00728427  1
  O  O245  1  0.86789734  0.25779151  0.50197072  1
  O  O246  1  0.86901757  0.74968304  0.00713931  1
  O  O247  1  0.86750942  0.75148169  0.50687857  1
  O  O248  1  0.13651995  0.25055113  0.49303731  1
  O  O249  1  0.13112541  0.24811905  0.99053736  1
  O  O250  1  0.12244611  0.73741558  0.49889074  1
  O  O251  1  0.13065499  0.74472624  0.99493342  1
  O  O252  1  0.63062570  0.24511847  0.49425096  1
  O  O253  1  0.62439643  0.25244909  0.98893868  1
  O  O254  1  0.62958259  0.74486721  0.49381882  1
  O  O255  1  0.62965614  0.74476261  0.99581003  1
  O  O256  1  0.48830644  0.25110959  0.12327816  1
  O  O257  1  0.49472412  0.24766905  0.63371789  1
  O  O258  1  0.49518678  0.74496274  0.12970080  1
  O  O259  1  0.49020460  0.74629733  0.62337430  1
  O  O260  1  0.99603628  0.24454806  0.13162876  1
  O  O261  1  0.99983217  0.23860032  0.62442187  1
  O  O262  1  0.99499559  0.74376156  0.12983294  1
  O  O263  1  0.99326157  0.74559291  0.63065384  1
  O  O264  1  0.00571461  0.25455961  0.37131942  1
  O  O265  1  0.00984045  0.25379692  0.87698361  1
  O  O266  1  0.00037958  0.75589263  0.36758418  1
  O  O267  1  0.00556881  0.75416807  0.87084321  1
  O  O268  1  0.50982335  0.25291639  0.37303484  1
  O  O269  1  0.50619869  0.25845062  0.87049786  1
  O  O270  1  0.50525535  0.75488599  0.36968242  1
  O  O271  1  0.50658588  0.75793528  0.87483339  1
  O  O272  1  0.25186761  0.13414232  0.49431467  1
  O  O273  1  0.24900895  0.13214744  0.99303068  1
  O  O274  1  0.23577943  0.62567100  0.49900678  1
  O  O275  1  0.24417755  0.63130695  0.99440543  1
  O  O276  1  0.74604224  0.13034893  0.49532104  1
  O  O277  1  0.74698771  0.13042575  0.99293855  1
  O  O278  1  0.74324462  0.63031511  0.49382144  1
  O  O279  1  0.74201332  0.63094030  0.99949492  1
  O  O280  1  0.25526741  0.37011365  0.00553783  1
  O  O281  1  0.25808812  0.36614617  0.49866482  1
  O  O282  1  0.25603349  0.86954566  0.00534118  1
  O  O283  1  0.25584998  0.87433203  0.50856412  1
  O  O284  1  0.75720713  0.37302756  0.00860539  1
  O  O285  1  0.75449897  0.37033159  0.50472295  1
  O  O286  1  0.75131188  0.86579182  0.00875350  1
  O  O287  1  0.74944958  0.86887276  0.50983167  1
  O  O288  1  0.12371861  0.49331640  0.24273183  1
  O  O289  1  0.13161288  0.50085784  0.74433867  1
  O  O290  1  0.13191520  0.99347023  0.24446618  1
  O  O291  1  0.12885099  0.99008006  0.74790329  1
  O  O292  1  0.63115120  0.49548231  0.24468052  1
  O  O293  1  0.62146784  0.49449103  0.74176144  1
  O  O294  1  0.62688469  0.99189352  0.24346972  1
  O  O295  1  0.62617569  0.98773671  0.75123569  1
  O  O296  1  0.36916752  -0.00175301  0.25608594  1
  O  O297  1  0.37558583  0.00929181  0.75766805  1
  O  O298  1  0.37516121  0.50430127  0.25818718  1
  O  O299  1  0.36642587  0.50282914  0.75597582  1
  O  O300  1  0.87603116  0.00723530  0.25723796  1
  O  O301  1  0.87503978  -0.00061897  0.76299252  1
  O  O302  1  0.87034692  0.50454168  0.25562551  1
  O  O303  1  0.87383812  0.50047601  0.76260388  1
  O  O304  1  0.11918230  0.37004131  0.37017484  1
  O  O305  1  0.11906894  0.36484927  0.87623185  1
  O  O306  1  0.11832600  0.87368448  0.36762483  1
  O  O307  1  0.12094592  0.86840539  0.86977429  1
  O  O308  1  0.62570021  0.36916543  0.36855667  1
  O  O309  1  0.61714402  0.37117133  0.86934552  1
  O  O310  1  0.62064644  0.86869839  0.37004771  1
  O  O311  1  0.62103895  0.87021903  0.86808241  1
  O  O312  1  0.37639623  0.13822045  0.12485059  1
  O  O313  1  0.37601733  0.12581245  0.63832442  1
  O  O314  1  0.38083034  0.63005796  0.12898066  1
  O  O315  1  0.37887051  0.63535984  0.62200798  1
  O  O316  1  0.88185591  0.12962787  0.13144067  1
  O  O317  1  0.88629747  0.12668765  0.62621032  1
  O  O318  1  0.88032841  0.62857849  0.13047675  1
  O  O319  1  0.88053701  0.63088417  0.62513736  1
  O  O320  1  0.25700851  0.25599301  0.11972439  1
  O  O321  1  0.25222047  0.25101663  0.61298742  1
  O  O322  1  0.25562996  0.75526518  0.11867143  1
  O  O323  1  0.25812240  0.75910472  0.62220450  1
  O  O324  1  0.75887190  0.25645301  0.12533363  1
  O  O325  1  0.74893334  0.25893181  0.61817926  1
  O  O326  1  0.75528245  0.75376580  0.12048011  1
  O  O327  1  0.75339860  0.75806572  0.61994561  1
  O  O328  1  0.24625258  0.24509984  0.38201775  1
  O  O329  1  0.24261928  0.24575211  0.88090396  1
  O  O330  1  0.24517061  0.74568974  0.37895158  1
  O  O331  1  0.24490507  0.74621936  0.87985577  1
  O  O332  1  0.74585703  0.24416650  0.38207581  1
  O  O333  1  0.73580150  0.25598660  0.87533041  1
  O  O334  1  0.74481937  0.74432548  0.37960733  1
  O  O335  1  0.74354595  0.74948694  0.88242257  1
  O  O336  1  0.00326454  0.11695438  0.00919347  1
  O  O337  1  0.00215224  0.11583542  0.50792091  1
  O  O338  1  0.00608158  0.61944158  0.00586850  1
  O  O339  1  0.00570856  0.61879805  0.50529311  1
  O  O340  1  0.50080287  0.11190899  0.00096973  1
  O  O341  1  0.50654021  0.11852492  0.49983632  1
  O  O342  1  0.50526537  0.62027858  0.00633949  1
  O  O343  1  0.50500220  0.61979624  0.50403743  1
  O  O344  1  0.48911404  0.38082370  0.49762615  1
  O  O345  1  0.49335716  0.38359238  0.99434181  1
  O  O346  1  0.49565849  0.88028770  0.49358951  1
  O  O347  1  0.49527441  0.88345785  0.99550265  1
  O  O348  1  0.99451466  0.37999698  0.49481045  1
  O  O349  1  0.99427512  0.38058173  0.99505181  1
  O  O350  1  0.99879293  0.88349598  0.49532401  1
  O  O351  1  0.99989222  0.88061672  0.99328880  1
  O  O352  1  0.48861601  0.49875960  0.38047698  1
  O  O353  1  0.49325646  0.49669658  0.88016928  1
  O  O354  1  0.49583299  0.99330766  0.37965378  1
  O  O355  1  0.49562466  0.99458252  0.88455035  1
  O  O356  1  0.99321806  0.49321820  0.38059454  1
  O  O357  1  0.99294868  0.49452063  0.88122988  1
  O  O358  1  0.99664438  0.99546990  0.38273033  1
  O  O359  1  0.99462009  0.99400365  0.88049377  1
  O  O360  1  0.00638751  0.00393021  0.12126879  1
  O  O361  1  0.00026342  0.00540086  0.61638974  1
  O  O362  1  0.00453677  0.50477314  0.11948214  1
  O  O363  1  0.00393140  0.50507690  0.61942558  1
  O  O364  1  0.50620218  -0.00241042  0.11544290  1
  O  O365  1  0.50310428  0.00217820  0.61545472  1
  O  O366  1  0.50535252  0.50509161  0.11923829  1
  O  O367  1  0.50285661  0.50635143  0.61742676  1
  O  O368  1  0.24182634  0.37771353  0.24357977  1
  O  O369  1  0.24650061  0.38553245  0.74862154  1
  O  O370  1  0.24557906  0.87980633  0.24387580  1
  O  O371  1  0.24513082  0.87542935  0.74020523  1
  O  O372  1  0.74655630  0.38126596  0.24483487  1
  O  O373  1  0.74000209  0.38061696  0.74172314  1
  O  O374  1  0.74365094  0.87491589  0.24399914  1
  O  O375  1  0.74121012  0.87512232  0.74127293  1
  O  O376  1  0.25407466  0.11747257  0.25622511  1
  O  O377  1  0.26014080  0.12389807  0.75647217  1
  O  O378  1  0.25800543  0.62150955  0.25080294  1
  O  O379  1  0.25107027  0.61903768  0.75600881  1
  O  O380  1  0.75925237  0.12323759  0.25844353  1
  O  O381  1  0.75207521  0.12064488  0.75649900  1
  O  O382  1  0.75530293  0.61921983  0.25535897  1
  O  O383  1  0.75242600  0.62071210  0.75420440  1
  O  O384  1  0.36887874  0.11721064  0.37310005  1
  O  O385  1  0.37074490  0.12102784  0.86806198  1
  O  O386  1  0.37504845  0.61580619  0.36978945  1
  O  O387  1  0.36789106  0.62005634  0.87434564  1
  O  O388  1  0.87188822  0.12036010  0.37108917  1
  O  O389  1  0.87661522  0.11206393  0.87435912  1
  O  O390  1  0.86939732  0.61915400  0.36983253  1
  O  O391  1  0.87459770  0.61210100  0.87576691  1
  O  O392  1  0.12849713  0.37910088  0.12953736  1
  O  O393  1  0.12693241  0.38372617  0.62571833  1
  O  O394  1  0.13152260  0.87998505  0.13050271  1
  O  O395  1  0.13483674  0.87289976  0.62987317  1
  O  O396  1  0.63146789  0.38117737  0.13004730  1
  O  O397  1  0.62714040  0.38157104  0.62816255  1
  O  O398  1  0.63067053  0.87922750  0.13085958  1
  O  O399  1  0.63352660  0.87504698  0.63355099  1
  O  O400  1  0.12027086  0.25553563  0.25531405  1
  O  O401  1  0.12562408  0.25104023  0.76369767  1
  O  O402  1  0.11751973  0.75576674  0.24887854  1
  O  O403  1  0.11916242  0.75439675  0.75570097  1
  O  O404  1  0.62795413  0.25676588  0.25635290  1
  O  O405  1  0.61725337  0.25819434  0.75796526  1
  O  O406  1  0.61941331  0.75374332  0.25533671  1
  O  O407  1  0.62310184  0.76195403  0.75566982  1
  O  O408  1  0.37516548  0.25210047  0.23777822  1
  O  O409  1  0.37852352  0.24162215  0.75185431  1
  O  O410  1  0.38143863  0.74497945  0.24428563  1
  O  O411  1  0.37676386  0.75049157  0.73604121  1
  O  O412  1  0.88253019  0.24482725  0.24579262  1
  O  O413  1  0.87923679  0.24860371  0.74652150  1
  O  O414  1  0.88023378  0.74280824  0.24426520  1
  O  O415  1  0.88132423  0.74856488  0.74466726  1
  O  O416  1  0.37734236  0.49381989  0.49246379  1
  O  O417  1  0.37964928  0.49614074  0.99440229  1
  O  O418  1  0.38172726  0.99431124  0.49319963  1
  O  O419  1  0.38334798  0.99450151  0.99656763  1
  O  O420  1  0.87941201  0.49511341  0.49398805  1
  O  O421  1  0.88066503  0.49414387  0.99350931  1
  O  O422  1  0.88695632  0.99777800  0.49385406  1
  O  O423  1  0.88298492  0.99642032  0.99172624  1
  O  O424  1  0.11959325  0.00056375  0.00729033  1
  O  O425  1  0.11317075  0.00106771  0.50127089  1
  O  O426  1  0.11931275  0.50507321  0.00439261  1
  O  O427  1  0.11833025  0.50686414  0.50464088  1
  O  O428  1  0.61559073  -0.00234946  0.00493165  1
  O  O429  1  0.61928056  0.00684397  0.50016776  1
  O  O430  1  0.61915639  0.50431852  0.00567565  1
  O  O431  1  0.61791792  0.50583442  0.50340722  1
  O  O432  1  0.36936984  0.36909351  0.11926292  1
  O  O433  1  0.37081330  0.37522056  0.61073529  1
  O  O434  1  0.37035013  0.86858774  0.11969616  1
  O  O435  1  0.36854975  0.86886334  0.62021222  1
  O  O436  1  0.87155498  0.36966447  0.12115688  1
  O  O437  1  0.86736119  0.37677090  0.61767647  1
  O  O438  1  0.86953120  0.86708458  0.12491660  1
  O  O439  1  0.86461517  0.86849320  0.62526889  1
  O  O440  1  0.13320532  0.13170090  0.37732080  1
  O  O441  1  0.13065742  0.13308946  0.87613844  1
  O  O442  1  0.12305501  0.62386794  0.38580573  1
  O  O443  1  0.12934343  0.63063899  0.88106991  1
  O  O444  1  0.63300833  0.13030315  0.38062153  1
  O  O445  1  0.62324324  0.13934499  0.87702172  1
  O  O446  1  0.62956959  0.62991995  0.37910737  1
  O  O447  1  0.62357244  0.63154884  0.88234364  1
