# generated using pymatgen
data_V3Zn3O8
_symmetry_space_group_name_H-M   'P 1'
_cell_length_a   17.08851383
_cell_length_b   17.08883069
_cell_length_c   17.08865536
_cell_angle_alpha   90.00319086
_cell_angle_beta   90.00301633
_cell_angle_gamma   89.98412259
_symmetry_Int_Tables_number   1
_chemical_formula_structural   V3Zn3O8
_chemical_formula_sum   'V96 Zn96 O256'
_cell_volume   4990.27540829
_cell_formula_units_Z   32
loop_
 _symmetry_equiv_pos_site_id
 _symmetry_equiv_pos_as_xyz
  1  'x, y, z'
loop_
 _atom_site_type_symbol
 _atom_site_label
 _atom_site_symmetry_multiplicity
 _atom_site_fract_x
 _atom_site_fract_y
 _atom_site_fract_z
 _atom_site_occupancy
  V  V0  1  0.12480883  0.25017933  0.87444266  1
  V  V1  1  0.87511544  0.12493322  0.75008827  1
  V  V2  1  -0.00068343  0.74918464  0.74984191  1
  V  V3  1  0.50004597  0.25169024  0.25093993  1
  V  V4  1  0.12438049  0.24975911  0.37592239  1
  V  V5  1  0.24967622  0.87488256  0.62572964  1
  V  V6  1  0.37503723  0.87537135  0.00104622  1
  V  V7  1  0.49950942  0.37520240  0.87475192  1
  V  V8  1  0.50066309  0.62525562  0.62509712  1
  V  V9  1  -0.00082638  0.87483303  0.37377108  1
  V  V10  1  0.49984376  0.12495439  0.62450982  1
  V  V11  1  0.37480160  0.87551731  0.50001354  1
  V  V12  1  0.74967223  0.87404251  0.12428830  1
  V  V13  1  0.37591398  0.00063315  0.87529580  1
  V  V14  1  0.37433838  0.62458856  0.75039974  1
  V  V15  1  0.24979359  0.12595446  0.87568958  1
  V  V16  1  0.87515219  0.87395032  0.00025776  1
  V  V17  1  0.00015865  0.87488243  0.87618678  1
  V  V18  1  0.12491240  0.12599151  -0.00041063  1
  V  V19  1  0.00079806  0.25080430  0.75058074  1
  V  V20  1  0.00037448  0.49866723  -0.00251469  1
  V  V21  1  0.37502278  0.75053030  0.62534917  1
  V  V22  1  0.37484792  0.49955217  0.37622064  1
  V  V23  1  0.12402633  0.87468726  0.25020438  1
  V  V24  1  0.49984571  0.12608883  0.12447097  1
  V  V25  1  0.12496577  0.00073321  0.12484709  1
  V  V26  1  0.74905730  0.25019198  0.49972331  1
  V  V27  1  -0.00116103  0.12538030  0.12514661  1
  V  V28  1  0.50027760  0.87507099  0.37442311  1
  V  V29  1  0.75061097  0.12503275  0.37412386  1
  V  V30  1  0.62482071  0.49980533  0.12393318  1
  V  V31  1  0.62463449  0.74941237  0.87496130  1
  V  V32  1  0.50012062  0.24951012  0.74904279  1
  V  V33  1  0.75067711  0.49964571  0.24856241  1
  V  V34  1  0.87493907  0.24925131  0.62525161  1
  V  V35  1  0.62541037  -0.00098890  0.62453181  1
  V  V36  1  0.62436689  0.50023559  0.62447902  1
  V  V37  1  0.24928590  0.62636040  0.37561090  1
  V  V38  1  0.62483305  -0.00063927  0.12449309  1
  V  V39  1  0.74856562  0.62625586  0.37633735  1
  V  V40  1  0.62523819  0.37404700  0.74989999  1
  V  V41  1  0.87255761  0.87324930  0.50064011  1
  V  V42  1  0.25065886  0.25065511  0.50127562  1
  V  V43  1  0.25056798  -0.00028397  0.75075728  1
  V  V44  1  0.50049402  0.75035154  0.75044569  1
  V  V45  1  0.25166019  0.75027222  0.00103659  1
  V  V46  1  0.37287318  0.25144950  0.12457715  1
  V  V47  1  0.75031285  0.25010549  0.00064980  1
  V  V48  1  0.12474047  0.00054995  0.62543904  1
  V  V49  1  0.50026234  0.00025705  -0.00037047  1
  V  V50  1  0.87417721  0.24957231  0.12478798  1
  V  V51  1  0.49945037  0.00020091  0.49963226  1
  V  V52  1  0.37315390  0.00068265  0.37453145  1
  V  V53  1  -0.00012505  0.37405438  0.37532785  1
  V  V54  1  0.74985866  0.74912195  -0.00047074  1
  V  V55  1  0.00181426  0.62522146  0.12534644  1
  V  V56  1  0.50121680  0.87441250  0.87475909  1
  V  V57  1  0.75075283  0.37489346  0.12452499  1
  V  V58  1  0.37549562  0.62659798  0.25018413  1
  V  V59  1  0.37392552  0.25053108  0.62386854  1
  V  V60  1  0.24934657  0.00095343  0.25038468  1
  V  V61  1  0.87596727  0.62462038  0.74981920  1
  V  V62  1  0.62458282  0.12534335  0.49918977  1
  V  V63  1  0.24828916  0.75068737  0.50000149  1
  V  V64  1  0.25144233  0.62471412  0.87518294  1
  V  V65  1  0.25062734  0.87539063  0.12461658  1
  V  V66  1  0.37487481  0.37635617  -0.00118034  1
  V  V67  1  0.12447418  0.75056518  0.37484024  1
  V  V68  1  0.12402745  0.12468696  0.50090621  1
  V  V69  1  0.24964771  0.50092038  0.74955400  1
  V  V70  1  0.00086633  0.12493710  0.62494452  1
  V  V71  1  0.62516153  0.12481151  -0.00022860  1
  V  V72  1  0.87591286  0.62527430  0.24929887  1
  V  V73  1  0.50029099  0.62558133  0.12474446  1
  V  V74  1  0.87502187  0.37429314  0.49977360  1
  V  V75  1  0.74993989  -0.00178327  0.74843251  1
  V  V76  1  0.62510995  0.24943597  0.87471038  1
  V  V77  1  0.50052681  0.50086515  0.49930028  1
  V  V78  1  0.75054818  0.12455877  0.87462464  1
  V  V79  1  0.24848802  0.12429840  0.37506896  1
  V  V80  1  0.12453809  0.50112840  0.62454838  1
  V  V81  1  -0.00032150  0.50114201  0.50019841  1
  V  V82  1  0.37552234  0.12503277  0.75037364  1
  V  V83  1  0.87490898  0.00020666  0.37420007  1
  V  V84  1  0.74950154  0.37416428  0.62535680  1
  V  V85  1  -0.00044418  -0.00116216  -0.00042612  1
  V  V86  1  0.62464113  0.87422350  0.25120006  1
  V  V87  1  0.12487297  0.37539281  0.75072044  1
  V  V88  1  0.87457797  0.12510428  0.24988798  1
  V  V89  1  0.12667690  0.37592318  0.24952670  1
  V  V90  1  0.12664913  0.62457541  0.00109685  1
  V  V91  1  0.62342719  0.25063816  0.37433862  1
  V  V92  1  0.75046801  0.49923642  0.75140267  1
  V  V93  1  0.74907291  0.62421054  0.87573603  1
  V  V94  1  0.12622054  0.75008607  0.87545344  1
  V  V95  1  0.12478835  0.87447251  0.75061326  1
  Zn  Zn96  1  0.62437554  0.62490855  -0.00047688  1
  Zn  Zn97  1  0.62438659  0.75056725  0.37859158  1
  Zn  Zn98  1  0.50084489  0.37582515  0.37526681  1
  Zn  Zn99  1  0.12931082  0.49862403  0.12557160  1
  Zn  Zn100  1  0.87523418  -0.00072091  0.87451137  1
  Zn  Zn101  1  0.37367310  0.37443717  0.50021409  1
  Zn  Zn102  1  0.87426508  0.49859475  0.37503476  1
  Zn  Zn103  1  -0.00169019  0.62814320  0.62347040  1
  Zn  Zn104  1  -0.00066226  0.25061788  0.24981388  1
  Zn  Zn105  1  0.37267666  0.12618856  0.24962312  1
  Zn  Zn106  1  0.24780472  0.25173908  0.00007273  1
  Zn  Zn107  1  0.62645509  0.87329895  0.74780848  1
  Zn  Zn108  1  -0.00161083  0.37458010  0.87572289  1
  Zn  Zn109  1  0.74889837  0.87093777  0.62438250  1
  Zn  Zn110  1  0.50050610  0.75067966  0.25207064  1
  Zn  Zn111  1  0.62729049  0.62798015  0.50028530  1
  Zn  Zn112  1  0.74837513  0.74812990  0.50421298  1
  Zn  Zn113  1  0.87606896  0.37503966  -0.00133622  1
  Zn  Zn114  1  0.12250292  0.62699356  0.49950346  1
  Zn  Zn115  1  0.00032508  0.74954557  0.24944345  1
  Zn  Zn116  1  0.50014382  0.50123203  -0.00314395  1
  Zn  Zn117  1  0.25016131  0.49949680  0.24860158  1
  Zn  Zn118  1  -0.00052563  -0.00012359  0.50034236  1
  Zn  Zn119  1  0.25213699  0.37611688  0.62360754  1
  Zn  Zn120  1  0.87411794  0.49616839  0.87593856  1
  Zn  Zn121  1  0.37722856  0.75133091  0.12598663  1
  Zn  Zn122  1  0.75015329  -0.00034782  0.24904051  1
  Zn  Zn123  1  0.87402794  0.75115805  0.62483906  1
  Zn  Zn124  1  0.24896813  0.37715357  0.12411580  1
  Zn  Zn125  1  0.87498401  0.75034859  0.12443003  1
  Zn  Zn126  1  0.62582044  0.37528269  0.25148335  1
  Zn  Zn127  1  0.37620224  0.49959293  0.87427922  1
  Zn  Zn128  1  0.18623634  0.18936427  0.18875340  1
  Zn  Zn129  1  0.18825798  0.18783852  0.68776283  1
  Zn  Zn130  1  0.18881140  0.68846335  0.18817734  1
  Zn  Zn131  1  0.18622354  0.68650865  0.68704062  1
  Zn  Zn132  1  0.68757905  0.18724633  0.18799519  1
  Zn  Zn133  1  0.68759550  0.18587223  0.68674643  1
  Zn  Zn134  1  0.68764689  0.68897258  0.18820285  1
  Zn  Zn135  1  0.68893583  0.68801658  0.68701116  1
  Zn  Zn136  1  0.31161341  0.31313584  0.31408977  1
  Zn  Zn137  1  0.31043971  0.31343806  0.81127971  1
  Zn  Zn138  1  0.31181354  0.81266422  0.31215436  1
  Zn  Zn139  1  0.31371820  0.81219503  0.81383380  1
  Zn  Zn140  1  0.81260678  0.31263381  0.31119841  1
  Zn  Zn141  1  0.81467321  0.31308060  0.81493907  1
  Zn  Zn142  1  0.81206474  0.81043121  0.31240227  1
  Zn  Zn143  1  0.81309287  0.81171498  0.81390225  1
  Zn  Zn144  1  0.18826027  0.43644038  0.43734199  1
  Zn  Zn145  1  0.18775204  0.43755855  0.93665660  1
  Zn  Zn146  1  0.18595497  0.93732948  0.43811362  1
  Zn  Zn147  1  0.18757941  0.93831015  0.93803944  1
  Zn  Zn148  1  0.68670135  0.43838526  0.43534902  1
  Zn  Zn149  1  0.68759555  0.43698804  0.93854275  1
  Zn  Zn150  1  0.68906503  0.93907204  0.43658801  1
  Zn  Zn151  1  0.68789481  0.93616376  0.93615644  1
  Zn  Zn152  1  0.31203702  0.06397662  0.06231173  1
  Zn  Zn153  1  0.31152616  0.06346585  0.56232614  1
  Zn  Zn154  1  0.31201582  0.55920098  0.06420409  1
  Zn  Zn155  1  0.31150425  0.56494263  0.56195576  1
  Zn  Zn156  1  0.81263445  0.06047690  0.06252510  1
  Zn  Zn157  1  0.81320514  0.06068857  0.56147140  1
  Zn  Zn158  1  0.81444500  0.56273998  0.06166002  1
  Zn  Zn159  1  0.81309071  0.56119530  0.56399452  1
  Zn  Zn160  1  0.43832470  0.43794437  0.18757761  1
  Zn  Zn161  1  0.43609370  0.43669448  0.68659112  1
  Zn  Zn162  1  0.43717961  0.93900943  0.18827579  1
  Zn  Zn163  1  0.43873723  0.93702008  0.68778940  1
  Zn  Zn164  1  0.93889625  0.43764521  0.18578770  1
  Zn  Zn165  1  0.93767522  0.43730710  0.68784815  1
  Zn  Zn166  1  0.93650436  0.93796632  0.18749830  1
  Zn  Zn167  1  0.93761823  0.93754622  0.68668880  1
  Zn  Zn168  1  0.06020666  0.06188243  0.31245449  1
  Zn  Zn169  1  0.06219202  0.06244489  0.81305184  1
  Zn  Zn170  1  0.06324422  0.56101572  0.31384333  1
  Zn  Zn171  1  0.06303688  0.56334141  0.81364971  1
  Zn  Zn172  1  0.56148297  0.06284739  0.31131630  1
  Zn  Zn173  1  0.56403972  0.06173873  0.81195781  1
  Zn  Zn174  1  0.56384729  0.56296585  0.31097908  1
  Zn  Zn175  1  0.56252561  0.56210334  0.81234581  1
  Zn  Zn176  1  0.43550595  0.18622410  0.43686271  1
  Zn  Zn177  1  0.43765749  0.18908877  0.93767928  1
  Zn  Zn178  1  0.43871969  0.68900239  0.43752065  1
  Zn  Zn179  1  0.43725246  0.68751965  0.93852265  1
  Zn  Zn180  1  0.93800889  0.18737929  0.43755991  1
  Zn  Zn181  1  0.93717954  0.18718517  0.93725086  1
  Zn  Zn182  1  0.93599128  0.68885635  0.43542059  1
  Zn  Zn183  1  0.93628432  0.68685827  0.93650077  1
  Zn  Zn184  1  0.06134646  0.31185249  0.06348958  1
  Zn  Zn185  1  0.06362912  0.31375197  0.56350540  1
  Zn  Zn186  1  0.06339756  0.81122073  0.06291782  1
  Zn  Zn187  1  0.05871074  0.81321491  0.56222087  1
  Zn  Zn188  1  0.56231097  0.31410974  0.06250041  1
  Zn  Zn189  1  0.56076210  0.31433826  0.56137440  1
  Zn  Zn190  1  0.56330999  0.81077346  0.06265515  1
  Zn  Zn191  1  0.56548124  0.81180701  0.56136482  1
  O  O192  1  0.11977402  0.12026145  0.11988120  1
  O  O193  1  0.12043768  0.11993631  0.62103318  1
  O  O194  1  0.11721615  0.62446808  0.12052227  1
  O  O195  1  0.12120518  0.61297087  0.62321780  1
  O  O196  1  0.61956933  0.11996423  0.11882637  1
  O  O197  1  0.61881670  0.12028354  0.61835545  1
  O  O198  1  0.61704065  0.61692691  0.12647824  1
  O  O199  1  0.61804555  0.61674015  0.62543786  1
  O  O200  1  0.37768736  0.38824456  0.37598043  1
  O  O201  1  0.38089120  0.37302651  0.88312044  1
  O  O202  1  0.37888398  0.88131661  0.38063980  1
  O  O203  1  0.38058790  0.88146658  0.88095316  1
  O  O204  1  0.88050701  0.37619130  0.38208679  1
  O  O205  1  0.88007382  0.37782928  0.87997559  1
  O  O206  1  0.87917186  0.87971893  0.37993164  1
  O  O207  1  0.88289905  0.87626736  0.88196547  1
  O  O208  1  0.25355596  0.00440605  0.37006542  1
  O  O209  1  0.25616833  0.00510898  0.86984952  1
  O  O210  1  0.26065909  0.50714347  0.37617729  1
  O  O211  1  0.25137385  0.50775869  0.86744005  1
  O  O212  1  0.75651504  0.00893818  0.37275277  1
  O  O213  1  0.75006773  0.00657490  0.86528283  1
  O  O214  1  0.75192463  0.50787328  0.36729637  1
  O  O215  1  0.74914926  0.50554884  0.86847514  1
  O  O216  1  0.24709904  0.49493289  0.13089196  1
  O  O217  1  0.24004721  0.50106561  0.62926704  1
  O  O218  1  0.24438496  0.99567030  0.12973909  1
  O  O219  1  0.24549379  0.99464432  0.63154384  1
  O  O220  1  0.74275033  0.49648870  0.12839995  1
  O  O221  1  0.74416318  0.49306562  0.63085752  1
  O  O222  1  0.74173080  0.99253072  0.12521922  1
  O  O223  1  0.74410090  1.00148054  0.63440182  1
  O  O224  1  0.00840635  0.37454254  0.25669309  1
  O  O225  1  0.00682695  0.36799920  0.75025891  1
  O  O226  1  0.00641709  0.87308122  0.25460354  1
  O  O227  1  0.00580211  0.87021417  0.75615387  1
  O  O228  1  0.50152037  0.36217649  0.25074419  1
  O  O229  1  0.50580133  0.36847143  0.75389932  1
  O  O230  1  0.50815295  0.87580112  0.25496372  1
  O  O231  1  0.50024568  0.86842340  0.75715962  1
  O  O232  1  0.49749923  0.13553857  0.24357471  1
  O  O233  1  0.49520727  0.12971152  0.74477042  1
  O  O234  1  0.49212402  0.62628662  0.24261055  1
  O  O235  1  0.49386019  0.63050855  0.74456358  1
  O  O236  1  0.99324734  0.12623959  0.24259696  1
  O  O237  1  0.99538842  0.13051661  0.74447049  1
  O  O238  1  0.99306108  0.62285519  0.24245510  1
  O  O239  1  0.99114332  0.63000380  0.75149688  1
  O  O240  1  0.37584828  0.25813566  0.00886718  1
  O  O241  1  0.36911458  0.24953742  0.50598021  1
  O  O242  1  0.36896738  0.75782672  0.00171944  1
  O  O243  1  0.36918566  0.75636082  0.50602539  1
  O  O244  1  0.86735522  0.24890858  0.00706785  1
  O  O245  1  0.86859782  0.25445401  0.50602022  1
  O  O246  1  0.86830944  0.75614544  0.00080355  1
  O  O247  1  0.87356863  0.76117249  0.50028290  1
  O  O248  1  0.13022564  0.24422038  0.49608709  1
  O  O249  1  0.12558337  0.24333099  0.99372430  1
  O  O250  1  0.13061200  0.75025213  0.49407470  1
  O  O251  1  0.13204516  0.74487044  0.99453156  1
  O  O252  1  0.62906660  0.24477776  0.49526001  1
  O  O253  1  0.62952404  0.24406770  0.99465473  1
  O  O254  1  0.62976150  0.74540653  0.49612001  1
  O  O255  1  0.63147599  0.74785054  0.99296451  1
  O  O256  1  0.49314773  0.24592330  0.13165481  1
  O  O257  1  0.49561606  0.24374606  0.62966911  1
  O  O258  1  0.49889806  0.73827617  0.12816182  1
  O  O259  1  0.49393527  0.74533398  0.62999112  1
  O  O260  1  0.99223788  0.24194870  0.12571511  1
  O  O261  1  0.99480355  0.24478214  0.63049451  1
  O  O262  1  0.99924857  0.73650076  0.12569612  1
  O  O263  1  0.99704678  0.74762634  0.63415033  1
  O  O264  1  0.00685517  0.25643550  0.37496134  1
  O  O265  1  0.00734037  0.24888372  0.86766141  1
  O  O266  1  0.00697436  0.75632593  0.37214167  1
  O  O267  1  0.00752426  0.75515160  0.87082856  1
  O  O268  1  0.50346981  0.24935544  0.36614331  1
  O  O269  1  0.50599987  0.25392761  0.86803463  1
  O  O270  1  0.50209759  0.75947605  0.37285127  1
  O  O271  1  0.50427247  0.75477893  0.87022788  1
  O  O272  1  0.24314592  0.12976145  0.49478583  1
  O  O273  1  0.24306880  0.12638597  0.99312351  1
  O  O274  1  0.24812202  0.63372811  0.49362501  1
  O  O275  1  0.24683124  0.63017071  0.99549807  1
  O  O276  1  0.74435213  0.13121372  0.49501725  1
  O  O277  1  0.74389179  0.12948086  0.99498452  1
  O  O278  1  0.75163776  0.62168332  0.48781297  1
  O  O279  1  0.74959852  0.63103045  0.99351611  1
  O  O280  1  0.26163395  0.37165772  0.00043652  1
  O  O281  1  0.25239336  0.36631237  0.50243934  1
  O  O282  1  0.25532715  0.87101529  0.00498727  1
  O  O283  1  0.25537869  0.87055708  0.50639375  1
  O  O284  1  0.75034844  0.36710085  0.00682370  1
  O  O285  1  0.75447401  0.37002978  0.50569066  1
  O  O286  1  0.75511669  0.86947630  0.00406158  1
  O  O287  1  0.76180102  0.87500307  0.49893769  1
  O  O288  1  0.12666024  0.48792701  0.25116586  1
  O  O289  1  0.12871809  0.49665044  0.74239598  1
  O  O290  1  0.13003619  0.99465613  0.24409570  1
  O  O291  1  0.13147314  0.99427767  0.74574078  1
  O  O292  1  0.63064953  0.49858510  0.23876941  1
  O  O293  1  0.63006641  0.49290451  0.74399762  1
  O  O294  1  0.62481266  0.99075691  0.24330621  1
  O  O295  1  0.63442616  1.00073675  0.74383853  1
  O  O296  1  0.36745679  0.00266151  0.25613772  1
  O  O297  1  0.37054878  0.00535091  0.75555204  1
  O  O298  1  0.37716902  0.50946560  0.26017529  1
  O  O299  1  0.36795069  0.50708746  0.74927166  1
  O  O300  1  0.87247848  0.00692375  0.25602044  1
  O  O301  1  0.86618320  0.00671154  0.75057367  1
  O  O302  1  0.87016117  0.51026359  0.24935400  1
  O  O303  1  0.86922196  0.50746391  0.75125916  1
  O  O304  1  0.11981593  0.36925854  0.36908102  1
  O  O305  1  0.12302468  0.36790836  0.86814155  1
  O  O306  1  0.11985089  0.87088068  0.36946880  1
  O  O307  1  0.12103104  0.86962532  0.87003134  1
  O  O308  1  0.62156395  0.36676524  0.37174716  1
  O  O309  1  0.62041363  0.36810339  0.86925430  1
  O  O310  1  0.61934296  0.87844728  0.36549396  1
  O  O311  1  0.61779037  0.86824626  0.87293815  1
  O  O312  1  0.38109683  0.13541293  0.12442577  1
  O  O313  1  0.38083679  0.12908123  0.63106145  1
  O  O314  1  0.38375640  0.62301897  0.13460817  1
  O  O315  1  0.37999898  0.63180708  0.63051405  1
  O  O316  1  0.87905602  0.12914072  0.12989722  1
  O  O317  1  0.88033695  0.13059668  0.62955442  1
  O  O318  1  0.88398557  0.62556592  0.13304925  1
  O  O319  1  0.87592983  0.62448491  0.63928956  1
  O  O320  1  0.26269387  0.25153758  0.12419871  1
  O  O321  1  0.25650200  0.24943078  0.61901208  1
  O  O322  1  0.25249367  0.75743577  0.11850755  1
  O  O323  1  0.25471982  0.75581261  0.62090277  1
  O  O324  1  0.75363108  0.25442350  0.11956757  1
  O  O325  1  0.75446949  0.25441658  0.61945129  1
  O  O326  1  0.75027616  0.75647052  0.11756128  1
  O  O327  1  0.75579341  0.75352779  0.62318388  1
  O  O328  1  0.24466991  0.24342682  0.38108874  1
  O  O329  1  0.24325777  0.24225770  0.87485560  1
  O  O330  1  0.24477721  0.74679654  0.38127223  1
  O  O331  1  0.24535581  0.74531453  0.88093896  1
  O  O332  1  0.74408945  0.24502104  0.38093965  1
  O  O333  1  0.74365017  0.24398254  0.87969800  1
  O  O334  1  0.74926879  0.73627060  0.37528277  1
  O  O335  1  0.74378456  0.74435906  0.87954599  1
  O  O336  1  0.00542129  0.11851114  0.00515824  1
  O  O337  1  0.00639153  0.12406118  0.50756324  1
  O  O338  1  0.00563950  0.61949547  0.00662179  1
  O  O339  1  -0.00083859  0.61314748  0.50089501  1
  O  O340  1  0.50577770  0.12009166  0.00388778  1
  O  O341  1  0.50489028  0.11949137  0.50490741  1
  O  O342  1  0.50022931  0.62233738  0.01216831  1
  O  O343  1  0.50003327  0.61519872  0.50609359  1
  O  O344  1  0.49687378  0.38893529  0.49867601  1
  O  O345  1  0.49120368  0.37468737  0.99340004  1
  O  O346  1  0.49357125  0.88175888  0.49529292  1
  O  O347  1  0.49507349  0.88089359  0.99524423  1
  O  O348  1  0.99514322  0.38197026  0.49615251  1
  O  O349  1  1.00062070  0.38755008  1.00086907  1
  O  O350  1  0.99041875  0.87754627  0.49263941  1
  O  O351  1  0.99620368  0.87910689  0.99583944  1
  O  O352  1  0.49252388  0.50238480  0.38277088  1
  O  O353  1  0.49763467  0.49122718  0.87606271  1
  O  O354  1  0.49333936  0.99624806  0.38082346  1
  O  O355  1  0.49530461  0.99562497  0.88018899  1
  O  O356  1  0.99932736  0.49361567  0.38644223  1
  O  O357  1  1.00024053  0.50030354  0.88676379  1
  O  O358  1  0.99310271  0.99299957  0.37670870  1
  O  O359  1  0.99999839  0.99283256  0.88155680  1
  O  O360  1  0.00615769  0.00514150  0.11907442  1
  O  O361  1  0.00789759  0.00731129  0.62534596  1
  O  O362  1  0.00298356  0.51103988  0.11670418  1
  O  O363  1  0.00801900  0.49989078  0.61630618  1
  O  O364  1  0.50442615  0.00616236  0.11855951  1
  O  O365  1  0.50407909  0.00599820  0.61943744  1
  O  O366  1  0.50878088  0.50826181  0.12588052  1
  O  O367  1  0.50374140  0.50513894  0.61792855  1
  O  O368  1  0.23852033  0.37586294  0.25120480  1
  O  O369  1  0.24282245  0.38275280  0.74718193  1
  O  O370  1  0.24445034  0.88139242  0.24450833  1
  O  O371  1  0.24525998  0.87991435  0.74574563  1
  O  O372  1  0.74903557  0.38165994  0.24249244  1
  O  O373  1  0.74444303  0.37826166  0.74460351  1
  O  O374  1  0.74086584  0.87640569  0.24443057  1
  O  O375  1  0.75006876  0.88784405  0.74983685  1
  O  O376  1  0.24930209  0.11860207  0.25685485  1
  O  O377  1  0.25604978  0.11858105  0.75554904  1
  O  O378  1  0.26034180  0.62409410  0.25626683  1
  O  O379  1  0.25483522  0.62132159  0.75530574  1
  O  O380  1  0.75587965  0.12371695  0.25646453  1
  O  O381  1  0.75485577  0.11779566  0.75423651  1
  O  O382  1  0.75802816  0.62001886  0.25443861  1
  O  O383  1  0.75736950  0.61888811  0.75579166  1
  O  O384  1  0.36630886  0.11780229  0.37370916  1
  O  O385  1  0.37100546  0.11995909  0.86999373  1
  O  O386  1  0.37141514  0.61888309  0.36839777  1
  O  O387  1  0.36915524  0.62413732  0.86836814  1
  O  O388  1  0.87005821  0.12122587  0.37036116  1
  O  O389  1  0.86823956  0.12351278  0.86778433  1
  O  O390  1  0.86840170  0.62153675  0.36466888  1
  O  O391  1  0.86853343  0.62263634  0.86455236  1
  O  O392  1  0.12573854  0.37351923  0.13740757  1
  O  O393  1  0.12619541  0.38661819  0.63085984  1
  O  O394  1  0.13067278  0.88112440  0.12944690  1
  O  O395  1  0.13042436  0.88006756  0.63123013  1
  O  O396  1  0.63039889  0.38420927  0.12649496  1
  O  O397  1  0.63006585  0.37940143  0.63048978  1
  O  O398  1  0.62827821  0.88023137  0.13197275  1
  O  O399  1  0.62692869  0.88453030  0.62735978  1
  O  O400  1  0.12250926  0.25835988  0.25767614  1
  O  O401  1  0.12004433  0.25476608  0.75402633  1
  O  O402  1  0.12500201  0.75759998  0.25677803  1
  O  O403  1  0.12082048  0.75536622  0.75594459  1
  O  O404  1  0.61496873  0.24973417  0.25467462  1
  O  O405  1  0.61991277  0.25410357  0.75424529  1
  O  O406  1  0.62349469  0.76423291  0.25171324  1
  O  O407  1  0.61762900  0.75088610  0.75653847  1
  O  O408  1  0.38244241  0.24999346  0.24184923  1
  O  O409  1  0.38078288  0.24371382  0.74505929  1
  O  O410  1  0.37662379  0.73809357  0.24907949  1
  O  O411  1  0.37995638  0.74505649  0.74450117  1
  O  O412  1  0.87623926  0.24292711  0.24292345  1
  O  O413  1  0.87986554  0.24446161  0.74380556  1
  O  O414  1  0.87734586  0.73667691  0.24692226  1
  O  O415  1  0.88100543  0.74045195  0.75190777  1
  O  O416  1  0.38307636  0.50261049  0.49196952  1
  O  O417  1  0.37791118  0.48741391  0.99836154  1
  O  O418  1  0.37931537  0.99495367  0.49533228  1
  O  O419  1  0.38069816  0.99583042  0.99449258  1
  O  O420  1  0.88496142  0.49228204  0.50179610  1
  O  O421  1  0.88744278  0.49998665  0.99854073  1
  O  O422  1  0.87682224  0.99209078  0.49268724  1
  O  O423  1  0.88195737  0.99294460  0.99787403  1
  O  O424  1  0.11982008  0.00552180  0.00565489  1
  O  O425  1  0.12423484  0.00641601  0.50788384  1
  O  O426  1  0.11758633  0.50705640  0.00147353  1
  O  O427  1  0.11621812  0.49981064  0.50747854  1
  O  O428  1  0.61912623  0.00508281  0.00409071  1
  O  O429  1  0.61886436  0.00633378  0.50412439  1
  O  O430  1  0.62317489  0.50221925  0.01259035  1
  O  O431  1  0.61576232  0.50177666  0.50549979  1
  O  O432  1  0.37727266  0.36634530  0.11687080  1
  O  O433  1  0.37283517  0.36587363  0.62247587  1
  O  O434  1  0.36898770  0.87525471  0.11887701  1
  O  O435  1  0.36930496  0.87053626  0.62007466  1
  O  O436  1  0.86868800  0.36815482  0.12312113  1
  O  O437  1  0.86885545  0.36826232  0.62032422  1
  O  O438  1  0.86843330  0.87311717  0.11888578  1
  O  O439  1  0.87423128  0.87637087  0.61262007  1
  O  O440  1  0.12885293  0.12940538  0.38084761  1
  O  O441  1  0.13048364  0.12964746  0.87969607  1
  O  O442  1  0.13151309  0.63188714  0.37575952  1
  O  O443  1  0.13204164  0.63163648  0.88067122  1
  O  O444  1  0.62955076  0.13022708  0.38050903  1
  O  O445  1  0.62979767  0.13051207  0.88034289  1
  O  O446  1  0.63680729  0.62574203  0.37343772  1
  O  O447  1  0.63063039  0.63103408  0.87629119  1
