# generated using pymatgen
data_V3Zn3O8
_symmetry_space_group_name_H-M   'P 1'
_cell_length_a   17.08456726
_cell_length_b   17.08475239
_cell_length_c   17.08382944
_cell_angle_alpha   90.00925637
_cell_angle_beta   89.99861354
_cell_angle_gamma   90.00681284
_symmetry_Int_Tables_number   1
_chemical_formula_structural   V3Zn3O8
_chemical_formula_sum   'V96 Zn96 O256'
_cell_volume   4986.52372697
_cell_formula_units_Z   32
loop_
 _symmetry_equiv_pos_site_id
 _symmetry_equiv_pos_as_xyz
  1  'x, y, z'
loop_
 _atom_site_type_symbol
 _atom_site_label
 _atom_site_symmetry_multiplicity
 _atom_site_fract_x
 _atom_site_fract_y
 _atom_site_fract_z
 _atom_site_occupancy
  V  V0  1  0.75023505  0.00120929  0.24965113  1
  V  V1  1  0.37563317  0.62674710  0.24941123  1
  V  V2  1  0.25199952  0.37459319  0.62522467  1
  V  V3  1  0.62407799  0.87572268  0.25081957  1
  V  V4  1  0.50062787  0.62560355  0.62563179  1
  V  V5  1  0.50081603  0.00129617  0.50093347  1
  V  V6  1  0.24928566  0.24963951  -0.00085613  1
  V  V7  1  -0.00203335  -0.00126204  0.49860079  1
  V  V8  1  0.87530290  -0.00080460  0.87530225  1
  V  V9  1  0.62508556  0.12431489  -0.00028311  1
  V  V10  1  0.50021122  0.87601743  0.37528137  1
  V  V11  1  0.12417134  0.87611816  0.25043718  1
  V  V12  1  0.37460846  0.25030155  0.12499065  1
  V  V13  1  0.49917322  0.25134272  0.24914028  1
  V  V14  1  0.62524460  0.37564296  0.24843438  1
  V  V15  1  0.25031394  0.62521425  0.37427477  1
  V  V16  1  0.37404902  0.12384030  0.75066506  1
  V  V17  1  0.37571391  0.25015156  0.62486025  1
  V  V18  1  0.24986292  0.87469490  0.62417233  1
  V  V19  1  0.50060998  0.24905136  0.74959298  1
  V  V20  1  0.12604919  0.37462868  0.75027706  1
  V  V21  1  0.87498230  0.87501503  -0.00022332  1
  V  V22  1  0.37398529  0.00014343  0.87525796  1
  V  V23  1  0.37341575  0.00215911  0.37479115  1
  V  V24  1  0.87456702  0.37505016  -0.00056729  1
  V  V25  1  0.50055740  0.62554944  0.12439827  1
  V  V26  1  0.50032422  0.50070583  0.49936734  1
  V  V27  1  0.74964736  0.87455405  0.12534144  1
  V  V28  1  0.12569621  0.62458781  0.00082422  1
  V  V29  1  0.87482320  0.74903275  0.12613347  1
  V  V30  1  0.24973916  0.37552109  0.12489468  1
  V  V31  1  -0.00080691  0.74903554  0.24981668  1
  V  V32  1  0.74945180  -0.00105357  0.74939401  1
  V  V33  1  0.37376938  0.87567188  -0.00004562  1
  V  V34  1  0.62577868  0.49913485  0.62524465  1
  V  V35  1  0.75083027  0.12441415  0.87540426  1
  V  V36  1  -0.00032774  0.12326486  0.62540071  1
  V  V37  1  0.00208247  0.49921778  0.50030925  1
  V  V38  1  0.62424007  -0.00031554  0.12464777  1
  V  V39  1  0.00118215  0.37414166  0.37507092  1
  V  V40  1  0.75038104  0.25066221  -0.00007213  1
  V  V41  1  0.00077103  0.25007545  0.25104529  1
  V  V42  1  0.12380559  0.74946852  0.37509222  1
  V  V43  1  0.12686058  0.50044962  0.62472534  1
  V  V44  1  0.62626220  0.24834020  0.37561795  1
  V  V45  1  0.37506683  0.87523573  0.50035657  1
  V  V46  1  0.12367906  0.12462934  -0.00080633  1
  V  V47  1  0.62545294  0.24938621  0.87427844  1
  V  V48  1  -0.00009336  0.12485705  0.12417298  1
  V  V49  1  0.87503208  0.37444653  0.50017337  1
  V  V50  1  0.62587398  0.37455957  0.74925215  1
  V  V51  1  0.62572950  0.62587955  0.50027251  1
  V  V52  1  0.12439614  0.37434902  0.25066416  1
  V  V53  1  0.24956288  0.24853583  0.49859983  1
  V  V54  1  0.49985235  0.37457545  0.87569408  1
  V  V55  1  0.74976679  0.74961721  0.00030727  1
  V  V56  1  0.37564126  0.49935309  0.87531444  1
  V  V57  1  0.24916152  0.87632485  0.12643473  1
  V  V58  1  0.74980395  0.37561404  0.12404337  1
  V  V59  1  0.87475233  0.49967677  0.87521690  1
  V  V60  1  0.37634120  0.50098736  0.37508403  1
  V  V61  1  0.75000152  0.62580058  0.37614404  1
  V  V62  1  0.87298855  0.87384343  0.50014242  1
  V  V63  1  0.00084382  0.87328025  0.87314960  1
  V  V64  1  0.87494278  0.24981581  0.62511028  1
  V  V65  1  0.75036339  0.62469106  0.87525531  1
  V  V66  1  0.75043167  0.50074689  0.24997837  1
  V  V67  1  0.50070315  0.74966903  0.75048090  1
  V  V68  1  0.49872174  0.12523638  0.12462753  1
  V  V69  1  0.87634779  0.62465414  0.74993691  1
  V  V70  1  0.74990863  0.49876880  0.74927308  1
  V  V71  1  0.12542785  -0.00210582  0.62567963  1
  V  V72  1  0.50003146  0.75123509  0.25159094  1
  V  V73  1  0.37537290  0.37521743  -0.00058471  1
  V  V74  1  0.12535734  0.62401261  0.50026411  1
  V  V75  1  0.62489784  0.75049750  0.87436881  1
  V  V76  1  0.50002242  0.37707394  0.37405751  1
  V  V77  1  0.25060644  0.75036887  0.50023062  1
  V  V78  1  0.25198501  0.50035161  0.75035495  1
  V  V79  1  0.87516253  0.74810431  0.62574414  1
  V  V80  1  0.37635154  0.62484143  0.75087539  1
  V  V81  1  0.12503754  0.74906780  0.87521505  1
  V  V82  1  0.00137962  0.37484016  0.87413932  1
  V  V83  1  0.24912764  0.12466400  0.87431675  1
  V  V84  1  0.62503475  0.00051260  0.62579784  1
  V  V85  1  0.24976754  0.75044905  -0.00037377  1
  V  V86  1  0.87572956  0.12451277  0.74990139  1
  V  V87  1  0.62419928  0.62515270  0.00041996  1
  V  V88  1  0.87401769  0.12443651  0.25111754  1
  V  V89  1  0.49855951  -0.00087561  -0.00020509  1
  V  V90  1  0.25002643  0.50052587  0.25002196  1
  V  V91  1  0.50105877  0.12466663  0.62490701  1
  V  V92  1  -0.00042479  0.62456912  0.12542640  1
  V  V93  1  0.12424599  0.50036840  0.12490854  1
  V  V94  1  0.62493029  0.87502257  0.75055839  1
  V  V95  1  0.37291620  0.12508852  0.25109343  1
  Zn  Zn96  1  0.74857920  0.75093335  0.50015007  1
  Zn  Zn97  1  0.49863590  0.87447637  0.87554422  1
  Zn  Zn98  1  0.12748685  0.87150475  0.74987950  1
  Zn  Zn99  1  0.00161790  0.62406649  0.62645621  1
  Zn  Zn100  1  0.74870007  0.87436668  0.62490261  1
  Zn  Zn101  1  0.37547170  0.75085458  0.62615894  1
  Zn  Zn102  1  0.12498633  0.12478251  0.49784340  1
  Zn  Zn103  1  0.62554498  0.75250948  0.37799503  1
  Zn  Zn104  1  0.74985878  0.24863734  0.49835302  1
  Zn  Zn105  1  0.87411365  0.25120151  0.12482837  1
  Zn  Zn106  1  0.87543428  0.62490102  0.25208048  1
  Zn  Zn107  1  0.37492570  0.75118253  0.12455395  1
  Zn  Zn108  1  0.74942611  0.37382830  0.62343448  1
  Zn  Zn109  1  0.87602626  0.50020930  0.37609642  1
  Zn  Zn110  1  0.24761017  0.00340539  0.25225452  1
  Zn  Zn111  1  0.12477842  0.24898902  0.87098729  1
  Zn  Zn112  1  0.50103858  0.49968928  0.00038852  1
  Zn  Zn113  1  0.24973502  -0.00193821  0.75000646  1
  Zn  Zn114  1  0.24654688  0.12453053  0.37369814  1
  Zn  Zn115  1  -0.00007502  0.49966109  0.00160577  1
  Zn  Zn116  1  0.25066843  0.62540664  0.87540444  1
  Zn  Zn117  1  0.00253700  0.24892185  0.74900387  1
  Zn  Zn118  1  0.62465462  0.50001766  0.12265685  1
  Zn  Zn119  1  0.74910869  0.12415858  0.37643363  1
  Zn  Zn120  1  0.87195395  -0.00144026  0.37509529  1
  Zn  Zn121  1  0.12401263  0.00086871  0.12672375  1
  Zn  Zn122  1  -0.00297102  0.87411436  0.37335454  1
  Zn  Zn123  1  0.12580054  0.24759307  0.37586159  1
  Zn  Zn124  1  0.62815625  0.12586630  0.50065904  1
  Zn  Zn125  1  -0.00000630  -0.00008248  -0.00013237  1
  Zn  Zn126  1  0.00316903  0.74654906  0.74907117  1
  Zn  Zn127  1  0.37595879  0.37548294  0.49963933  1
  Zn  Zn128  1  0.18700077  0.18889396  0.18763284  1
  Zn  Zn129  1  0.18700206  0.18667636  0.68585285  1
  Zn  Zn130  1  0.18651957  0.68933163  0.18645402  1
  Zn  Zn131  1  0.18891813  0.68781817  0.68831393  1
  Zn  Zn132  1  0.68748763  0.18852377  0.18692984  1
  Zn  Zn133  1  0.68948779  0.18659754  0.68700349  1
  Zn  Zn134  1  0.68535554  0.68872299  0.18946417  1
  Zn  Zn135  1  0.68905295  0.68730708  0.68731897  1
  Zn  Zn136  1  0.31283914  0.31347967  0.31352696  1
  Zn  Zn137  1  0.31228782  0.31108309  0.81279279  1
  Zn  Zn138  1  0.31314864  0.81298838  0.31336233  1
  Zn  Zn139  1  0.31182604  0.81285897  0.81170372  1
  Zn  Zn140  1  0.81341485  0.31218718  0.31174411  1
  Zn  Zn141  1  0.81313986  0.31228430  0.81139175  1
  Zn  Zn142  1  0.81204003  0.81231946  0.31315728  1
  Zn  Zn143  1  0.81253215  0.81182044  0.81118835  1
  Zn  Zn144  1  0.18842863  0.43520511  0.43729997  1
  Zn  Zn145  1  0.18782350  0.43884276  0.93715618  1
  Zn  Zn146  1  0.18764274  0.93725530  0.43702137  1
  Zn  Zn147  1  0.18686991  0.93864406  0.93814060  1
  Zn  Zn148  1  0.68816098  0.43700095  0.43749922  1
  Zn  Zn149  1  0.68639928  0.43866394  0.93764912  1
  Zn  Zn150  1  0.68797389  0.94002683  0.43739904  1
  Zn  Zn151  1  0.68724947  0.93660618  0.93671343  1
  Zn  Zn152  1  0.31047941  0.06122591  0.06343344  1
  Zn  Zn153  1  0.31287293  0.06310913  0.56211530  1
  Zn  Zn154  1  0.31334749  0.56262279  0.06195202  1
  Zn  Zn155  1  0.31425572  0.56361058  0.56306255  1
  Zn  Zn156  1  0.81323835  0.06145221  0.06270626  1
  Zn  Zn157  1  0.80932518  0.06394986  0.56151322  1
  Zn  Zn158  1  0.81334755  0.56188720  0.06273382  1
  Zn  Zn159  1  0.81278991  0.56138824  0.56281147  1
  Zn  Zn160  1  0.43704632  0.43963830  0.18713240  1
  Zn  Zn161  1  0.43838882  0.43708307  0.68753292  1
  Zn  Zn162  1  0.43561425  0.93891487  0.18861801  1
  Zn  Zn163  1  0.43772815  0.93662939  0.68821997  1
  Zn  Zn164  1  0.93609806  0.43762909  0.18758280  1
  Zn  Zn165  1  0.93960298  0.43841358  0.68737592  1
  Zn  Zn166  1  0.93796796  0.93882907  0.18604588  1
  Zn  Zn167  1  0.93682913  0.93533832  0.68749146  1
  Zn  Zn168  1  0.06240044  0.06307767  0.31573106  1
  Zn  Zn169  1  0.06156308  0.06044583  0.81148918  1
  Zn  Zn170  1  0.06191074  0.56156304  0.31301301  1
  Zn  Zn171  1  0.06325766  0.56243320  0.81255839  1
  Zn  Zn172  1  0.56006339  0.06291206  0.31181042  1
  Zn  Zn173  1  0.56117138  0.06109026  0.81286062  1
  Zn  Zn174  1  0.56481890  0.56388313  0.31213959  1
  Zn  Zn175  1  0.56231977  0.56170698  0.81289052  1
  Zn  Zn176  1  0.43734763  0.18740030  0.43784185  1
  Zn  Zn177  1  0.43657833  0.18706945  0.93721776  1
  Zn  Zn178  1  0.43808580  0.68878654  0.43780724  1
  Zn  Zn179  1  0.43657133  0.68873029  0.93720002  1
  Zn  Zn180  1  0.93899386  0.18715957  0.43662294  1
  Zn  Zn181  1  0.93721324  0.19056340  0.93632172  1
  Zn  Zn182  1  0.93770273  0.68662178  0.43776071  1
  Zn  Zn183  1  0.93870710  0.68718061  0.93914516  1
  Zn  Zn184  1  0.06185979  0.31136623  0.06228855  1
  Zn  Zn185  1  0.06367534  0.31262735  0.56373600  1
  Zn  Zn186  1  0.06205447  0.81079858  0.06176433  1
  Zn  Zn187  1  0.06071118  0.81172116  0.56213700  1
  Zn  Zn188  1  0.56325644  0.31262160  0.06189438  1
  Zn  Zn189  1  0.56147308  0.31366065  0.56097585  1
  Zn  Zn190  1  0.56161985  0.81192331  0.06274086  1
  Zn  Zn191  1  0.56320303  0.81262687  0.56351859  1
  O  O192  1  0.11649745  0.12485516  0.11759116  1
  O  O193  1  0.11867023  0.11421281  0.62206854  1
  O  O194  1  0.11969499  0.62004249  0.12089321  1
  O  O195  1  0.12595122  0.61824065  0.61773985  1
  O  O196  1  0.61889269  0.11985811  0.11929292  1
  O  O197  1  0.61803237  0.11898792  0.62593938  1
  O  O198  1  0.61555390  0.62610004  0.11990952  1
  O  O199  1  0.62045787  0.61859302  0.62065792  1
  O  O200  1  0.38265664  0.38374362  0.37450249  1
  O  O201  1  0.38069611  0.37851400  0.88009289  1
  O  O202  1  0.38064831  0.88155413  0.38050367  1
  O  O203  1  0.37509104  0.88230725  0.88244321  1
  O  O204  1  0.88119326  0.37423690  0.38547293  1
  O  O205  1  0.88217626  0.38005682  0.87855798  1
  O  O206  1  0.87644811  0.87603561  0.38639290  1
  O  O207  1  0.88179501  0.87837198  0.88016525  1
  O  O208  1  0.25845653  0.00202633  0.37388597  1
  O  O209  1  0.25570151  0.00702088  0.87384859  1
  O  O210  1  0.25547755  0.50566202  0.36914010  1
  O  O211  1  0.25765250  0.50054378  0.86790410  1
  O  O212  1  0.75183871  0.00393105  0.36487905  1
  O  O213  1  0.75537991  0.00546889  0.87012884  1
  O  O214  1  0.75017892  0.50770931  0.36648985  1
  O  O215  1  0.75502614  0.50529790  0.86911217  1
  O  O216  1  0.24511365  0.49477756  0.13110455  1
  O  O217  1  0.24659023  0.49419287  0.63008053  1
  O  O218  1  0.24633099  0.98768346  0.12766568  1
  O  O219  1  0.23966431  0.99402004  0.62199449  1
  O  O220  1  0.74806333  0.49553204  0.13431580  1
  O  O221  1  0.74346884  0.49800142  0.63184208  1
  O  O222  1  0.74365376  0.99395105  0.12913344  1
  O  O223  1  0.74340433  0.99976587  0.63303456  1
  O  O224  1  0.00421103  0.37000730  0.25453286  1
  O  O225  1  0.00626695  0.37561909  0.75931189  1
  O  O226  1  0.00880151  0.86922015  0.24902739  1
  O  O227  1  0.00019696  0.87223782  0.76346031  1
  O  O228  1  0.50493074  0.37093007  0.25363295  1
  O  O229  1  0.50600279  0.36813469  0.75574103  1
  O  O230  1  0.50440142  0.87163635  0.25490488  1
  O  O231  1  0.50671431  0.86805383  0.75233155  1
  O  O232  1  0.49365044  0.13147444  0.24262477  1
  O  O233  1  0.49452901  0.13068816  0.74544831  1
  O  O234  1  0.49640193  0.63053345  0.24341475  1
  O  O235  1  0.49645634  0.62967133  0.74475672  1
  O  O236  1  0.99362978  0.12831948  0.24227214  1
  O  O237  1  0.99286781  0.12533616  0.74370686  1
  O  O238  1  0.99883651  0.63097439  0.24403857  1
  O  O239  1  0.99153605  0.62555177  0.74815729  1
  O  O240  1  0.36927444  0.25493227  0.00561837  1
  O  O241  1  0.36782701  0.25251113  0.50683978  1
  O  O242  1  0.36792926  0.75768511  0.00162432  1
  O  O243  1  0.36847157  0.75690656  0.50093418  1
  O  O244  1  0.86702330  0.25677443  0.00057177  1
  O  O245  1  0.87693470  0.25812249  0.50811165  1
  O  O246  1  0.86840367  0.75518885  0.00607504  1
  O  O247  1  0.87482587  0.75758366  0.50811417  1
  O  O248  1  0.13679262  0.24889398  0.50133524  1
  O  O249  1  0.13047694  0.23916861  0.99889513  1
  O  O250  1  0.13023036  0.74456842  0.49453241  1
  O  O251  1  0.13060788  0.74424722  0.99529015  1
  O  O252  1  0.62518712  0.25067621  0.48757454  1
  O  O253  1  0.63003740  0.24354026  0.99354333  1
  O  O254  1  0.62835639  0.74238361  0.49897985  1
  O  O255  1  0.63098722  0.74541803  0.99471734  1
  O  O256  1  0.49421976  0.24497169  0.12919125  1
  O  O257  1  0.49585911  0.24516480  0.63066853  1
  O  O258  1  0.49850959  0.74076393  0.13146165  1
  O  O259  1  0.49932495  0.74284599  0.63235862  1
  O  O260  1  0.99811894  0.23939282  0.13072279  1
  O  O261  1  0.99001239  0.24359269  0.62544146  1
  O  O262  1  0.99439457  0.74434755  0.13005882  1
  O  O263  1  0.98802747  0.74737860  0.62687393  1
  O  O264  1  0.00217315  0.25672133  0.36867043  1
  O  O265  1  0.00056191  0.26330459  0.87161733  1
  O  O266  1  0.00656304  0.75085026  0.36869728  1
  O  O267  1  0.00545376  0.75889481  0.87588882  1
  O  O268  1  0.50638552  0.25668431  0.36839588  1
  O  O269  1  0.50564827  0.25385111  0.86941349  1
  O  O270  1  0.50147646  0.75803906  0.36920440  1
  O  O271  1  0.50780972  0.75087295  0.86875241  1
  O  O272  1  0.24977258  0.13763414  0.50011398  1
  O  O273  1  0.24209575  0.12991361  0.99602095  1
  O  O274  1  0.24557728  0.62993351  0.49349497  1
  O  O275  1  0.24397598  0.63238056  1.00065221  1
  O  O276  1  0.74655424  0.13044625  0.49401775  1
  O  O277  1  0.74463688  0.12949007  0.99495249  1
  O  O278  1  0.74469252  0.62285839  0.49062991  1
  O  O279  1  0.74514796  0.63088521  0.99493226  1
  O  O280  1  0.25496701  0.36961159  0.00553977  1
  O  O281  1  0.25311320  0.36671643  0.50684927  1
  O  O282  1  0.25270175  0.87135363  0.00893545  1
  O  O283  1  0.25517998  0.86929729  0.50442615  1
  O  O284  1  0.75420047  0.37019893  0.00344981  1
  O  O285  1  0.76249174  0.37288993  0.50110584  1
  O  O286  1  0.75449711  0.86918575  0.00569521  1
  O  O287  1  0.76114830  0.87457629  0.50230627  1
  O  O288  1  0.13129935  0.49449484  0.24455053  1
  O  O289  1  0.13249259  0.49479547  0.74475388  1
  O  O290  1  0.12491282  0.98744668  0.24960447  1
  O  O291  1  0.12494649  0.99645030  0.73612938  1
  O  O292  1  0.63566628  0.49436747  0.24887317  1
  O  O293  1  0.63013075  0.49422384  0.74519566  1
  O  O294  1  0.62874550  0.99566639  0.24296988  1
  O  O295  1  0.62953373  0.99503327  0.74615755  1
  O  O296  1  0.37380303  0.00727734  0.25698462  1
  O  O297  1  0.37447314  0.00697020  0.75668945  1
  O  O298  1  0.36930684  0.50694637  0.25529798  1
  O  O299  1  0.37141802  0.50449337  0.75559200  1
  O  O300  1  0.86970599  0.00866769  0.24905196  1
  O  O301  1  0.86962971  0.00460396  0.75526171  1
  O  O302  1  0.86156830  0.50060126  0.25277944  1
  O  O303  1  0.86947165  0.50436170  0.75509203  1
  O  O304  1  0.11906674  0.37365107  0.36746981  1
  O  O305  1  0.11648948  0.37508088  0.87024967  1
  O  O306  1  0.12376379  0.86817735  0.36546102  1
  O  O307  1  0.11588182  0.86997255  0.87593214  1
  O  O308  1  0.61956363  0.36818506  0.36832226  1
  O  O309  1  0.62011230  0.36840071  0.86960301  1
  O  O310  1  0.61801369  0.87599269  0.36850700  1
  O  O311  1  0.62340860  0.86808931  0.86922941  1
  O  O312  1  0.37956091  0.13083065  0.12916600  1
  O  O313  1  0.38136857  0.12997941  0.63130755  1
  O  O314  1  0.38401222  0.62689509  0.13078609  1
  O  O315  1  0.38321871  0.62627558  0.63223082  1
  O  O316  1  0.88325292  0.12623848  0.13246841  1
  O  O317  1  0.87961440  0.13170978  0.63008095  1
  O  O318  1  0.88069944  0.63171101  0.12674099  1
  O  O319  1  0.87632504  0.63247258  0.62988449  1
  O  O320  1  0.25570974  0.25645778  0.11917030  1
  O  O321  1  0.25634079  0.25493053  0.61832764  1
  O  O322  1  0.25051016  0.76140669  0.11958349  1
  O  O323  1  0.25153465  0.75663572  0.61725463  1
  O  O324  1  0.75026815  0.25708447  0.11736966  1
  O  O325  1  0.76335262  0.25132892  0.62332953  1
  O  O326  1  0.75410128  0.75537075  0.12028712  1
  O  O327  1  0.76259030  0.75093839  0.62277688  1
  O  O328  1  0.25006029  0.25080973  0.38690595  1
  O  O329  1  0.24833308  0.24317335  0.88201929  1
  O  O330  1  0.24425504  0.74429061  0.38000292  1
  O  O331  1  0.24244521  0.74970140  0.88220231  1
  O  O332  1  0.73700160  0.24964536  0.37263496  1
  O  O333  1  0.74491787  0.24380150  0.87943536  1
  O  O334  1  0.74770783  0.73799792  0.37606799  1
  O  O335  1  0.74540036  0.74393853  0.88070885  1
  O  O336  1  0.00639312  0.12709918  0.00713157  1
  O  O337  1  -0.00276570  0.11322656  0.50673164  1
  O  O338  1  0.00695977  0.62300159  0.00761539  1
  O  O339  1  0.00821675  0.61723559  0.50039642  1
  O  O340  1  0.50515504  0.12003791  0.00549259  1
  O  O341  1  0.50183248  0.11898331  0.50757099  1
  O  O342  1  0.50465658  0.62638516  0.00970587  1
  O  O343  1  0.50571071  0.61984438  0.50490221  1
  O  O344  1  0.49875721  0.38351181  0.49242488  1
  O  O345  1  0.49345953  0.37495971  0.99387538  1
  O  O346  1  0.49487988  0.88128526  0.49536491  1
  O  O347  1  0.49272818  0.88160640  1.00048709  1
  O  O348  1  0.99383123  0.37912735  0.49547439  1
  O  O349  1  0.99487081  0.37546342  0.99070799  1
  O  O350  1  0.99009873  0.88270838  0.49991136  1
  O  O351  1  0.99413714  0.87582874  0.99059181  1
  O  O352  1  0.49611319  0.49696765  0.37887529  1
  O  O353  1  0.49399158  0.49188695  0.87609974  1
  O  O354  1  0.49414804  0.99527204  0.38065674  1
  O  O355  1  0.49265816  0.99929953  0.88297047  1
  O  O356  1  0.99820694  0.49256166  0.38155255  1
  O  O357  1  0.99437998  0.48921744  0.87666756  1
  O  O358  1  0.99641939  0.99684596  0.38771986  1
  O  O359  1  0.99379117  0.99020887  0.87685184  1
  O  O360  1  0.00185475  0.01265679  0.12151873  1
  O  O361  1  0.00578764  0.00203956  0.61782758  1
  O  O362  1  0.00658327  0.50571061  0.12488074  1
  O  O363  1  0.00939802  0.50026599  0.61817410  1
  O  O364  1  0.50473029  0.00591359  0.11972996  1
  O  O365  1  0.50517212  0.00560530  0.62068676  1
  O  O366  1  0.50189122  0.51357529  0.12497524  1
  O  O367  1  0.50631292  0.50552646  0.62016062  1
  O  O368  1  0.24557118  0.38077562  0.24397845  1
  O  O369  1  0.24636819  0.38011998  0.74493223  1
  O  O370  1  0.24055679  0.87349664  0.24236921  1
  O  O371  1  0.24814675  0.87828529  0.74021490  1
  O  O372  1  0.74562382  0.38243978  0.24511838  1
  O  O373  1  0.74350620  0.38095191  0.74881374  1
  O  O374  1  0.74467525  0.88038290  0.24383231  1
  O  O375  1  0.74361096  0.88197842  0.74968808  1
  O  O376  1  0.25749104  0.12416433  0.25065476  1
  O  O377  1  0.25631656  0.12311382  0.75577590  1
  O  O378  1  0.25455397  0.62062934  0.25438319  1
  O  O379  1  0.25815544  0.61767055  0.75122643  1
  O  O380  1  0.75969586  0.12030517  0.24688966  1
  O  O381  1  0.75597953  0.11904419  0.75689489  1
  O  O382  1  0.74870440  0.61704052  0.25790074  1
  O  O383  1  0.75577941  0.61848456  0.75659474  1
  O  O384  1  0.37497531  0.11953330  0.36795561  1
  O  O385  1  0.36892145  0.12017519  0.87074900  1
  O  O386  1  0.36988127  0.62043232  0.36906914  1
  O  O387  1  0.37443547  0.61752759  0.86910104  1
  O  O388  1  0.87525814  0.12371690  0.36053898  1
  O  O389  1  0.87040634  0.11991841  0.87024254  1
  O  O390  1  0.86349829  0.62142980  0.37432120  1
  O  O391  1  0.86943769  0.61985704  0.87137442  1
  O  O392  1  0.13032837  0.37985903  0.12992210  1
  O  O393  1  0.13186062  0.38113707  0.63073756  1
  O  O394  1  0.13153906  0.87482937  0.13316575  1
  O  O395  1  0.12980300  0.88238549  0.62427590  1
  O  O396  1  0.63101424  0.37670549  0.13065812  1
  O  O397  1  0.62589356  0.38064507  0.63138822  1
  O  O398  1  0.62993092  0.88055314  0.13003022  1
  O  O399  1  0.62663052  0.88225091  0.63237028  1
  O  O400  1  0.11845122  0.25778825  0.25029985  1
  O  O401  1  0.12284273  0.25833321  0.75030541  1
  O  O402  1  0.11953342  0.75791167  0.25462111  1
  O  O403  1  0.12283671  0.75133921  0.75863615  1
  O  O404  1  0.61837475  0.25564505  0.25543121  1
  O  O405  1  0.62052907  0.25407771  0.75530488  1
  O  O406  1  0.61802477  0.75887282  0.25256537  1
  O  O407  1  0.62128594  0.75444314  0.75528217  1
  O  O408  1  0.38031276  0.24645845  0.24378169  1
  O  O409  1  0.38118910  0.24393147  0.74505191  1
  O  O410  1  0.38153415  0.74404672  0.24866421  1
  O  O411  1  0.38237768  0.74314210  0.74980125  1
  O  O412  1  0.88103563  0.24110161  0.24704095  1
  O  O413  1  0.87662041  0.24418094  0.74060005  1
  O  O414  1  0.88111206  0.74966341  0.24324744  1
  O  O415  1  0.87567346  0.74348793  0.74164167  1
  O  O416  1  0.38227750  0.50031227  0.49257464  1
  O  O417  1  0.37665962  0.49232622  0.99413099  1
  O  O418  1  0.38137729  0.99489434  0.49525820  1
  O  O419  1  0.37928428  0.99582860  0.99533211  1
  O  O420  1  0.88192727  0.48859187  0.50159124  1
  O  O421  1  0.87579638  0.49330702  0.99250454  1
  O  O422  1  0.88253233  0.99077524  0.50305493  1
  O  O423  1  0.87529183  0.99290523  0.99304316  1
  O  O424  1  0.12285050  0.01400406  0.00248160  1
  O  O425  1  0.11428770  -0.00233993  0.50903934  1
  O  O426  1  0.12467664  0.50594585  0.00795497  1
  O  O427  1  0.12236141  0.50422315  0.50505622  1
  O  O428  1  0.61994983  0.00510391  0.00513655  1
  O  O429  1  0.61802081  0.00158795  0.50729005  1
  O  O430  1  0.62201305  0.50902924  0.00208052  1
  O  O431  1  0.61962346  0.50492750  0.50541633  1
  O  O432  1  0.36961814  0.37029947  0.12021685  1
  O  O433  1  0.37013301  0.36811651  0.62446929  1
  O  O434  1  0.36461744  0.87507613  0.12027626  1
  O  O435  1  0.36842960  0.87463491  0.61759404  1
  O  O436  1  0.86820886  0.37350168  0.11772085  1
  O  O437  1  0.87711970  0.36619312  0.61714190  1
  O  O438  1  0.86946319  0.86967488  0.11969453  1
  O  O439  1  0.87370081  0.86613027  0.61740804  1
  O  O440  1  0.12801960  0.12914495  0.38022928  1
  O  O441  1  0.12834502  0.12607491  0.88275550  1
  O  O442  1  0.13163385  0.62963143  0.37969900  1
  O  O443  1  0.12667666  0.63061840  0.88261962  1
  O  O444  1  0.62320835  0.13821414  0.37301739  1
  O  O445  1  0.63062464  0.12957076  0.88014002  1
  O  O446  1  0.63422371  0.62612019  0.38139181  1
  O  O447  1  0.63114404  0.63044874  0.87964987  1
