# generated using pymatgen
data_V3Zn3O8
_symmetry_space_group_name_H-M   'P 1'
_cell_length_a   17.08981883
_cell_length_b   17.08722588
_cell_length_c   17.08831576
_cell_angle_alpha   90.00150743
_cell_angle_beta   90.00694993
_cell_angle_gamma   90.01928585
_symmetry_Int_Tables_number   1
_chemical_formula_structural   V3Zn3O8
_chemical_formula_sum   'V96 Zn96 O256'
_cell_volume   4990.08854219
_cell_formula_units_Z   32
loop_
 _symmetry_equiv_pos_site_id
 _symmetry_equiv_pos_as_xyz
  1  'x, y, z'
loop_
 _atom_site_type_symbol
 _atom_site_label
 _atom_site_symmetry_multiplicity
 _atom_site_fract_x
 _atom_site_fract_y
 _atom_site_fract_z
 _atom_site_occupancy
  V  V0  1  0.00047047  0.24977126  0.75095600  1
  V  V1  1  0.12503064  0.00052701  0.62604933  1
  V  V2  1  0.87500596  -0.00054135  0.37548027  1
  V  V3  1  0.00014947  0.50004455  0.00075359  1
  V  V4  1  0.49921591  0.12591077  0.12718374  1
  V  V5  1  0.37443054  0.24919830  0.12587914  1
  V  V6  1  0.75020653  0.62415309  0.37458841  1
  V  V7  1  0.87560967  0.25054564  0.62574266  1
  V  V8  1  0.25085400  0.12463701  0.37350626  1
  V  V9  1  0.62548272  0.49879957  0.62439047  1
  V  V10  1  0.75050382  0.12314638  0.37577744  1
  V  V11  1  0.87483644  0.74953693  0.12447318  1
  V  V12  1  -0.00159916  0.24960144  0.24989902  1
  V  V13  1  0.25025719  0.00016152  0.74888769  1
  V  V14  1  0.87464776  0.50042093  0.87394881  1
  V  V15  1  0.62525952  0.12360861  0.50049074  1
  V  V16  1  0.87453091  0.12435104  0.75140957  1
  V  V17  1  0.12434977  0.25095577  0.37603778  1
  V  V18  1  0.12377470  0.37567632  0.24999550  1
  V  V19  1  0.37539271  0.87619659  -0.00030466  1
  V  V20  1  0.24977675  0.50015257  0.24929206  1
  V  V21  1  -0.00019584  0.12551219  0.12572695  1
  V  V22  1  0.12574927  0.87547032  0.75019911  1
  V  V23  1  0.87619145  0.37392761  0.50092541  1
  V  V24  1  0.37356412  0.62444737  0.24843158  1
  V  V25  1  0.37574511  0.75000279  0.62392319  1
  V  V26  1  0.49861782  0.75097868  0.24965677  1
  V  V27  1  0.37380969  0.75086556  0.12473122  1
  V  V28  1  0.74866198  0.37514129  0.12598025  1
  V  V29  1  0.00034754  0.87496188  0.37551306  1
  V  V30  1  0.12672336  0.37596659  0.74923971  1
  V  V31  1  0.75035374  -0.00189416  0.25057777  1
  V  V32  1  0.37556805  0.49794787  0.37445958  1
  V  V33  1  0.62412239  0.49964571  0.12565753  1
  V  V34  1  0.62516571  0.12441914  -0.00001632  1
  V  V35  1  -0.00059449  0.00041988  0.00074794  1
  V  V36  1  0.00020754  0.12467072  0.62564153  1
  V  V37  1  0.25201364  0.62458359  0.87310665  1
  V  V38  1  0.62442675  0.24996377  0.37324934  1
  V  V39  1  0.24939621  0.75069002  -0.00043917  1
  V  V40  1  0.74988142  0.37517156  0.62658789  1
  V  V41  1  0.37539862  -0.00018728  0.87461439  1
  V  V42  1  0.37542852  0.87515149  0.49884275  1
  V  V43  1  0.87437426  0.24978714  0.12564072  1
  V  V44  1  0.24892742  0.24982593  -0.00052927  1
  V  V45  1  -0.00138731  0.37472952  0.37535387  1
  V  V46  1  0.75041420  0.87481636  0.62613224  1
  V  V47  1  0.12334131  0.50042795  0.12489423  1
  V  V48  1  0.49934705  0.62539937  0.12401492  1
  V  V49  1  0.12565070  0.25012722  0.87516920  1
  V  V50  1  0.62471841  0.87453403  0.24893451  1
  V  V51  1  0.62536398  0.62609990  -0.00104728  1
  V  V52  1  0.12545465  0.62624999  0.49993957  1
  V  V53  1  0.49907105  0.87566276  0.37485738  1
  V  V54  1  0.12450873  0.00027309  0.12513549  1
  V  V55  1  0.00073709  0.00019686  0.50129158  1
  V  V56  1  0.24958150  0.37470795  0.12437388  1
  V  V57  1  0.49966070  0.49942140  0.49802239  1
  V  V58  1  0.87524391  -0.00039743  0.87569030  1
  V  V59  1  0.25023528  0.12618136  0.87506497  1
  V  V60  1  0.62528490  0.74966250  0.87467123  1
  V  V61  1  0.75089727  -0.00020659  0.75079482  1
  V  V62  1  0.00097736  0.75115293  0.75109868  1
  V  V63  1  0.12479434  0.74969391  0.37555922  1
  V  V64  1  0.37625131  0.12460539  0.74946678  1
  V  V65  1  0.62457933  0.74922989  0.37466612  1
  V  V66  1  0.25056545  0.25247255  0.50146305  1
  V  V67  1  0.87530104  0.87402626  0.50061482  1
  V  V68  1  -0.00098599  0.62463785  0.12501404  1
  V  V69  1  0.87508068  0.62463881  0.75025331  1
  V  V70  1  0.12518300  0.87560148  0.24974742  1
  V  V71  1  0.37482786  0.37560047  -0.00081404  1
  V  V72  1  0.37553799  0.25103992  0.62421181  1
  V  V73  1  0.75001578  0.74979765  0.50009541  1
  V  V74  1  0.74955824  0.24871206  0.00068272  1
  V  V75  1  -0.00095330  0.74924605  0.24956158  1
  V  V76  1  0.49927180  0.37609237  0.87541862  1
  V  V77  1  0.49980748  -0.00035559  0.49965456  1
  V  V78  1  0.49971231  0.00019788  -0.00037635  1
  V  V79  1  0.50001539  0.62491208  0.62435114  1
  V  V80  1  0.62549330  0.24996759  0.87555590  1
  V  V81  1  0.12788161  0.49994511  0.62575846  1
  V  V82  1  0.12551611  0.75095729  0.87475703  1
  V  V83  1  0.87556831  0.74878779  0.62570894  1
  V  V84  1  0.87378365  0.50034032  0.37469606  1
  V  V85  1  0.00150839  0.62535429  0.62513732  1
  V  V86  1  0.25021626  0.75110828  0.49950274  1
  V  V87  1  0.87458249  0.87502830  0.00029137  1
  V  V88  1  0.50006941  0.75008617  0.74794421  1
  V  V89  1  0.00056833  0.37524005  0.87563970  1
  V  V90  1  0.62488893  0.62472262  0.49975595  1
  V  V91  1  0.24886976  0.87619932  0.12553754  1
  V  V92  1  0.50165289  0.12464814  0.62444591  1
  V  V93  1  0.62593175  0.87494887  0.75000487  1
  V  V94  1  0.74988815  0.87418707  0.12509331  1
  V  V95  1  0.50115249  0.24993113  0.74985024  1
  Zn  Zn96  1  0.37530991  0.50145569  0.87324014  1
  Zn  Zn97  1  0.62502646  -0.00069143  0.12443446  1
  Zn  Zn98  1  0.37480631  0.12424718  0.25101165  1
  Zn  Zn99  1  0.87436771  0.37462938  -0.00038826  1
  Zn  Zn100  1  0.25096092  0.00129358  0.25028095  1
  Zn  Zn101  1  0.37415707  0.00076016  0.37285496  1
  Zn  Zn102  1  0.75061462  0.24750094  0.50043519  1
  Zn  Zn103  1  0.37578159  0.62349986  0.74933171  1
  Zn  Zn104  1  0.87264241  0.62445469  0.24893725  1
  Zn  Zn105  1  0.25346453  0.37691693  0.62675516  1
  Zn  Zn106  1  0.24838750  0.62493426  0.37362009  1
  Zn  Zn107  1  0.12515533  0.62576880  -0.00008316  1
  Zn  Zn108  1  0.00199067  0.50019719  0.49970514  1
  Zn  Zn109  1  0.49717571  0.50043509  -0.00122961  1
  Zn  Zn110  1  0.74887893  0.50097495  0.24981414  1
  Zn  Zn111  1  0.12470932  0.12500372  0.50088625  1
  Zn  Zn112  1  0.37752762  0.37562542  0.50119477  1
  Zn  Zn113  1  0.25143067  0.87617175  0.62409790  1
  Zn  Zn114  1  0.25413510  0.49901090  0.75098852  1
  Zn  Zn115  1  0.62264793  0.37462866  0.25150734  1
  Zn  Zn116  1  0.75008135  0.12562888  0.87549498  1
  Zn  Zn117  1  0.62529069  0.37581060  0.75042140  1
  Zn  Zn118  1  0.49784788  0.25191886  0.25147323  1
  Zn  Zn119  1  0.74793764  0.50094092  0.75125347  1
  Zn  Zn120  1  0.87470460  0.12411206  0.25115615  1
  Zn  Zn121  1  0.12481062  0.12466008  -0.00000810  1
  Zn  Zn122  1  0.74955131  0.62303095  0.87359332  1
  Zn  Zn123  1  0.75113694  0.75023357  -0.00068365  1
  Zn  Zn124  1  0.50159170  0.37322131  0.37341176  1
  Zn  Zn125  1  0.49998603  0.87588486  0.87396781  1
  Zn  Zn126  1  0.62582172  -0.00000009  0.62597058  1
  Zn  Zn127  1  0.00014753  0.87484489  0.87629101  1
  Zn  Zn128  1  0.18550893  0.18784424  0.18812516  1
  Zn  Zn129  1  0.18765279  0.18715557  0.68756099  1
  Zn  Zn130  1  0.18601165  0.68724259  0.18723059  1
  Zn  Zn131  1  0.18954410  0.68867633  0.68758765  1
  Zn  Zn132  1  0.68703959  0.18499719  0.18944680  1
  Zn  Zn133  1  0.68780175  0.18783658  0.68828478  1
  Zn  Zn134  1  0.68891156  0.68761965  0.18812238  1
  Zn  Zn135  1  0.68851197  0.68580920  0.68810978  1
  Zn  Zn136  1  0.31250175  0.31126304  0.31073243  1
  Zn  Zn137  1  0.31303371  0.31291324  0.81102077  1
  Zn  Zn138  1  0.31088062  0.81327661  0.31280109  1
  Zn  Zn139  1  0.31325025  0.81280292  0.81105698  1
  Zn  Zn140  1  0.80976005  0.31165043  0.31150919  1
  Zn  Zn141  1  0.81274682  0.31270089  0.81296198  1
  Zn  Zn142  1  0.81295784  0.81185944  0.31173773  1
  Zn  Zn143  1  0.81221551  0.81217559  0.81422067  1
  Zn  Zn144  1  0.18842525  0.43829527  0.43773868  1
  Zn  Zn145  1  0.18677938  0.43878702  0.93798731  1
  Zn  Zn146  1  0.18724168  0.93810444  0.43881594  1
  Zn  Zn147  1  0.18700617  0.93819418  0.93755454  1
  Zn  Zn148  1  0.68892108  0.43530214  0.44013254  1
  Zn  Zn149  1  0.68706990  0.43689090  0.93941492  1
  Zn  Zn150  1  0.68611536  0.93726164  0.43776956  1
  Zn  Zn151  1  0.68824260  0.93783916  0.93760588  1
  Zn  Zn152  1  0.31212182  0.06264478  0.06211340  1
  Zn  Zn153  1  0.31352177  0.06328882  0.56084682  1
  Zn  Zn154  1  0.31177543  0.56141000  0.05897680  1
  Zn  Zn155  1  0.31243587  0.56534931  0.56036339  1
  Zn  Zn156  1  0.81248778  0.06240489  0.06394702  1
  Zn  Zn157  1  0.81255060  0.06190778  0.56364117  1
  Zn  Zn158  1  0.81220111  0.56267329  0.06049280  1
  Zn  Zn159  1  0.81288022  0.56108637  0.56185575  1
  Zn  Zn160  1  0.43979806  0.43501360  0.18894537  1
  Zn  Zn161  1  0.43615782  0.43863132  0.68861009  1
  Zn  Zn162  1  0.43466924  0.94130705  0.18877962  1
  Zn  Zn163  1  0.43879404  0.93675002  0.68578605  1
  Zn  Zn164  1  0.93545881  0.43716358  0.18852781  1
  Zn  Zn165  1  0.94005678  0.43825016  0.68819392  1
  Zn  Zn166  1  0.93715372  0.93711980  0.18751493  1
  Zn  Zn167  1  0.93820639  0.93659448  0.68888218  1
  Zn  Zn168  1  0.06430332  0.06356301  0.31260191  1
  Zn  Zn169  1  0.06237653  0.06223162  0.81389744  1
  Zn  Zn170  1  0.06040274  0.56319780  0.31200762  1
  Zn  Zn171  1  0.06448991  0.56393656  0.81235077  1
  Zn  Zn172  1  0.56395145  0.06161208  0.31249670  1
  Zn  Zn173  1  0.56401541  0.06224842  0.81328132  1
  Zn  Zn174  1  0.56109121  0.56335996  0.31093188  1
  Zn  Zn175  1  0.56223987  0.56119931  0.80932785  1
  Zn  Zn176  1  0.43734149  0.18682250  0.43829154  1
  Zn  Zn177  1  0.43742828  0.18817744  0.93872427  1
  Zn  Zn178  1  0.43607722  0.68620956  0.43653704  1
  Zn  Zn179  1  0.43787338  0.68925100  0.93695809  1
  Zn  Zn180  1  0.93681217  0.18670495  0.43860440  1
  Zn  Zn181  1  0.93635772  0.18668485  0.93923977  1
  Zn  Zn182  1  0.93861621  0.68630607  0.43831360  1
  Zn  Zn183  1  0.93861575  0.68691981  0.93824709  1
  Zn  Zn184  1  0.06188687  0.31267537  0.06160161  1
  Zn  Zn185  1  0.06318815  0.31362998  0.56241581  1
  Zn  Zn186  1  0.06174483  0.81292355  0.06192306  1
  Zn  Zn187  1  0.06398818  0.81353973  0.56420083  1
  Zn  Zn188  1  0.56173044  0.31115232  0.06132544  1
  Zn  Zn189  1  0.56276656  0.31257736  0.55870476  1
  Zn  Zn190  1  0.56158310  0.81356035  0.06213119  1
  Zn  Zn191  1  0.56297526  0.81327207  0.56272066  1
  O  O192  1  0.11795477  0.11890811  0.12367420  1
  O  O193  1  0.11721199  0.11873088  0.62517078  1
  O  O194  1  0.11759422  0.61795357  0.12415234  1
  O  O195  1  0.12090618  0.61878843  0.62080913  1
  O  O196  1  0.61536489  0.12408178  0.11843040  1
  O  O197  1  0.61916924  0.12420391  0.61883363  1
  O  O198  1  0.62033501  0.61984971  0.11759172  1
  O  O199  1  0.62063088  0.61986357  0.61811644  1
  O  O200  1  0.37499001  0.38859864  0.37416765  1
  O  O201  1  0.38482083  0.37274309  0.88071745  1
  O  O202  1  0.38214708  0.87475944  0.38107933  1
  O  O203  1  0.37621859  0.88167471  0.88164817  1
  O  O204  1  0.87761636  0.38154542  0.38000102  1
  O  O205  1  0.88202647  0.38427897  0.87485836  1
  O  O206  1  0.88065880  0.87893010  0.38177303  1
  O  O207  1  0.87634857  0.88116009  0.88191797  1
  O  O208  1  0.24857065  0.01330108  0.37646728  1
  O  O209  1  0.25577343  0.00631262  0.86912885  1
  O  O210  1  0.25811753  0.50149893  0.36792781  1
  O  O211  1  0.24922743  0.51273122  0.87525895  1
  O  O212  1  0.75565505  0.00258993  0.37067526  1
  O  O213  1  0.75746031  0.00175784  0.86838075  1
  O  O214  1  0.75835272  0.50474240  0.37591385  1
  O  O215  1  0.76144632  0.49940765  0.87393174  1
  O  O216  1  0.24399993  0.49404969  0.12938550  1
  O  O217  1  0.23821094  0.50084472  0.62510582  1
  O  O218  1  0.24265264  0.99348331  0.12473447  1
  O  O219  1  0.24387211  1.00125808  0.63138397  1
  O  O220  1  0.74167516  0.49222231  0.12334716  1
  O  O221  1  0.74514600  0.49059183  0.62435950  1
  O  O222  1  0.74904673  0.99219601  0.13253484  1
  O  O223  1  0.75004915  0.99206682  0.63254824  1
  O  O224  1  0.00480441  0.36950371  0.25553878  1
  O  O225  1  0.00643397  0.36881741  0.75577945  1
  O  O226  1  0.00557812  0.86925515  0.25605641  1
  O  O227  1  0.00688482  0.86820033  0.75200821  1
  O  O228  1  0.50582644  0.37033465  0.25452414  1
  O  O229  1  0.50061220  0.36764247  0.75975279  1
  O  O230  1  0.50429402  0.86958707  0.25435054  1
  O  O231  1  0.50783769  0.86828077  0.75092155  1
  O  O232  1  0.50036827  0.12529013  0.23668893  1
  O  O233  1  0.49526756  0.13000145  0.74484546  1
  O  O234  1  0.49361125  0.63175660  0.24320220  1
  O  O235  1  0.50048997  0.63261226  0.74152724  1
  O  O236  1  0.99849864  0.13240945  0.24454589  1
  O  O237  1  0.99416974  0.13046085  0.74532830  1
  O  O238  1  0.99688510  0.63182845  0.24336557  1
  O  O239  1  0.99546845  0.63169696  0.74426473  1
  O  O240  1  0.36787457  0.25591153  0.00549468  1
  O  O241  1  0.36634683  0.25120378  0.50532609  1
  O  O242  1  0.37018376  0.75640892  0.00609877  1
  O  O243  1  0.37058025  0.75505111  0.50379145  1
  O  O244  1  0.86804453  0.25231083  0.00736911  1
  O  O245  1  0.87408211  0.25607966  0.50802808  1
  O  O246  1  0.87376697  0.75608492  0.00588573  1
  O  O247  1  0.86992543  0.75469603  0.50562769  1
  O  O248  1  0.13381521  0.24952034  0.49499269  1
  O  O249  1  0.13133347  0.24949180  0.99275234  1
  O  O250  1  0.12973096  0.74641611  0.49518273  1
  O  O251  1  0.13208436  0.75055063  0.99355671  1
  O  O252  1  0.62742433  0.24177307  0.49071104  1
  O  O253  1  0.63026649  0.24385993  0.99494086  1
  O  O254  1  0.63043796  0.74475391  0.49405213  1
  O  O255  1  0.62373458  0.74237380  0.99183159  1
  O  O256  1  0.49384779  0.24008859  0.12342603  1
  O  O257  1  0.49569574  0.24445881  0.62930348  1
  O  O258  1  0.49340221  0.74535883  0.13026301  1
  O  O259  1  0.49615036  0.74413561  0.62816015  1
  O  O260  1  0.99480753  0.24630356  0.13029466  1
  O  O261  1  0.99559044  0.24538078  0.63163803  1
  O  O262  1  0.99495129  0.74482497  0.13010794  1
  O  O263  1  0.99469378  0.74511114  0.63070489  1
  O  O264  1  0.00409317  0.25526733  0.37021706  1
  O  O265  1  0.00495503  0.25479684  0.87014942  1
  O  O266  1  0.00459060  0.75601553  0.37054365  1
  O  O267  1  0.00721553  0.75062635  0.86843686  1
  O  O268  1  0.51145629  0.24860598  0.37469517  1
  O  O269  1  0.50478591  0.25725790  0.87064341  1
  O  O270  1  0.50519476  0.75446130  0.36903814  1
  O  O271  1  0.51086596  0.75100962  0.86847105  1
  O  O272  1  0.24838033  0.13623089  0.49237241  1
  O  O273  1  0.24885456  0.13221854  0.99269269  1
  O  O274  1  0.24262410  0.63330945  0.49646018  1
  O  O275  1  0.24813301  0.63278330  0.99178917  1
  O  O276  1  0.74395474  0.12407692  0.49414355  1
  O  O277  1  0.74315756  0.13111828  1.00003094  1
  O  O278  1  0.74441591  0.63100795  0.49539856  1
  O  O279  1  0.73615817  0.62746288  0.99805043  1
  O  O280  1  0.25430692  0.36948536  0.00522944  1
  O  O281  1  0.25204473  0.36261233  0.50107711  1
  O  O282  1  0.25589395  0.87023058  0.00574123  1
  O  O283  1  0.25700926  0.86894935  0.50084937  1
  O  O284  1  0.75034484  0.36857354  0.01121925  1
  O  O285  1  0.75751384  0.37237520  0.51221780  1
  O  O286  1  0.75629429  0.87361547  0.00726980  1
  O  O287  1  0.75553303  0.86889294  0.50514383  1
  O  O288  1  0.12935762  0.49458481  0.24515116  1
  O  O289  1  0.12603902  0.49525421  0.74045644  1
  O  O290  1  0.12591529  0.99232658  0.24358828  1
  O  O291  1  0.13053033  0.99553087  0.74592575  1
  O  O292  1  0.62643606  0.50145576  0.23603954  1
  O  O293  1  0.62756128  0.49608251  0.74024909  1
  O  O294  1  0.63197473  0.99139137  0.24881169  1
  O  O295  1  0.63229143  0.99315914  0.74972710  1
  O  O296  1  0.36873320  0.00544533  0.25488811  1
  O  O297  1  0.37068971  0.00542113  0.75428044  1
  O  O298  1  0.36982088  0.50490324  0.25508231  1
  O  O299  1  0.37165685  0.50521708  0.75458914  1
  O  O300  1  0.86883346  -0.00132699  0.25859937  1
  O  O301  1  0.87084070  0.00461368  0.75539765  1
  O  O302  1  0.87191591  0.50090402  0.26328631  1
  O  O303  1  0.87689342  0.50589329  0.75946125  1
  O  O304  1  0.11895306  0.37126669  0.36949559  1
  O  O305  1  0.11957825  0.36990085  0.86938608  1
  O  O306  1  0.11897202  0.86955312  0.37044472  1
  O  O307  1  0.12438608  0.86890400  0.86786179  1
  O  O308  1  0.62811909  0.36261234  0.37495737  1
  O  O309  1  0.61544426  0.36894060  0.87605525  1
  O  O310  1  0.61940577  0.86758710  0.36951477  1
  O  O311  1  0.62401661  0.86489425  0.86980669  1
  O  O312  1  0.38398422  0.13100088  0.12315245  1
  O  O313  1  0.38177032  0.13078710  0.63037885  1
  O  O314  1  0.37936509  0.63066011  0.12836771  1
  O  O315  1  0.38304687  0.63242815  0.62380607  1
  O  O316  1  0.88139016  0.13202501  0.12820700  1
  O  O317  1  0.88068602  0.13041173  0.63138677  1
  O  O318  1  0.88060763  0.63067613  0.12569643  1
  O  O319  1  0.88098654  0.62971812  0.62916402  1
  O  O320  1  0.25325428  0.25581294  0.11957306  1
  O  O321  1  0.25559199  0.24850973  0.61573349  1
  O  O322  1  0.25460464  0.75574356  0.11987753  1
  O  O323  1  0.25718689  0.75187788  0.61727818  1
  O  O324  1  0.75284237  0.25700862  0.12125968  1
  O  O325  1  0.75709331  0.25860381  0.62473217  1
  O  O326  1  0.75659787  0.75634570  0.12381304  1
  O  O327  1  0.75610093  0.75446525  0.61929504  1
  O  O328  1  0.24484033  0.24514754  0.38245252  1
  O  O329  1  0.24521912  0.24544377  0.87964743  1
  O  O330  1  0.24212840  0.74833210  0.38064139  1
  O  O331  1  0.24584389  0.74390408  0.87987448  1
  O  O332  1  0.74262019  0.24210938  0.37708969  1
  O  O333  1  0.74407491  0.25047457  0.88227111  1
  O  O334  1  0.74469131  0.74508966  0.38095369  1
  O  O335  1  0.73658383  0.74663251  0.87610384  1
  O  O336  1  0.00153878  0.11870959  0.00784803  1
  O  O337  1  0.00069974  0.11807306  0.50768765  1
  O  O338  1  0.00282528  0.61803635  0.00714584  1
  O  O339  1  0.00731079  0.62414905  0.50794808  1
  O  O340  1  0.50437885  0.12067685  0.00810584  1
  O  O341  1  0.50527399  0.11899527  0.50545734  1
  O  O342  1  0.50989716  0.62483811  0.00522299  1
  O  O343  1  0.50655733  0.62014878  0.50437566  1
  O  O344  1  0.49777599  0.38410808  0.49432386  1
  O  O345  1  0.49380921  0.37378156  0.99033326  1
  O  O346  1  0.49591686  0.87919237  0.49398462  1
  O  O347  1  0.49281585  0.88178513  0.99891046  1
  O  O348  1  0.99384534  0.37634975  0.49293289  1
  O  O349  1  0.99774515  0.38160493  0.99312180  1
  O  O350  1  0.99446593  0.87955727  0.49534749  1
  O  O351  1  0.99229535  0.88233252  0.99948683  1
  O  O352  1  0.49089952  0.50176490  0.37952312  1
  O  O353  1  0.50092807  0.48723528  0.87633623  1
  O  O354  1  0.49965451  0.99303259  0.38160815  1
  O  O355  1  0.49255919  0.99962369  0.88124173  1
  O  O356  1  0.99029784  0.49346446  0.37572631  1
  O  O357  1  0.99389598  0.49591016  0.87966592  1
  O  O358  1  0.99580297  0.99410855  0.38097719  1
  O  O359  1  0.99330388  0.99886931  0.88219253  1
  O  O360  1  0.00441183  0.00533509  0.12067596  1
  O  O361  1  0.00430270  0.00514679  0.62096226  1
  O  O362  1  0.00356217  0.50382742  0.12119404  1
  O  O363  1  0.01151482  0.50613737  0.62413495  1
  O  O364  1  0.50003134  0.00978279  0.11805996  1
  O  O365  1  0.50237669  0.00731470  0.61857512  1
  O  O366  1  0.50871421  0.50626620  0.12290020  1
  O  O367  1  0.50562970  0.50516418  0.61792467  1
  O  O368  1  0.24333212  0.38034136  0.24372495  1
  O  O369  1  0.24146963  0.37684553  0.74758342  1
  O  O370  1  0.24228172  0.87545346  0.24319766  1
  O  O371  1  0.24434595  0.88276837  0.74764723  1
  O  O372  1  0.74496316  0.37699566  0.23679870  1
  O  O373  1  0.74979054  0.37665338  0.73726105  1
  O  O374  1  0.74392479  0.87833648  0.24572866  1
  O  O375  1  0.74606396  0.87939822  0.74477183  1
  O  O376  1  0.24872145  0.12615185  0.26229870  1
  O  O377  1  0.25702193  0.12033399  0.75537191  1
  O  O378  1  0.25597109  0.61820983  0.24986653  1
  O  O379  1  0.25200466  0.62596027  0.76190314  1
  O  O380  1  0.75189391  0.11592620  0.25722584  1
  O  O381  1  0.75723100  0.11857849  0.75129209  1
  O  O382  1  0.75240883  0.62245201  0.25886570  1
  O  O383  1  0.75928422  0.62140780  0.75191272  1
  O  O384  1  0.36285504  0.12555189  0.37443971  1
  O  O385  1  0.37020835  0.12030972  0.86909567  1
  O  O386  1  0.37361684  0.61480628  0.36710194  1
  O  O387  1  0.36468950  0.62630684  0.87454126  1
  O  O388  1  0.86906392  0.11689212  0.37490543  1
  O  O389  1  0.87349666  0.11855818  0.86850862  1
  O  O390  1  0.86976868  0.61555036  0.37657026  1
  O  O391  1  0.87476027  0.61593124  0.86977618  1
  O  O392  1  0.12967763  0.38012221  0.13097783  1
  O  O393  1  0.12550975  0.38484557  0.63026895  1
  O  O394  1  0.12946858  0.87986933  0.13050874  1
  O  O395  1  0.12725148  0.88268032  0.63221019  1
  O  O396  1  0.63176970  0.38379958  0.12206606  1
  O  O397  1  0.63483563  0.37911670  0.62337021  1
  O  O398  1  0.63089261  0.87502658  0.13161774  1
  O  O399  1  0.63321627  0.87483619  0.63180309  1
  O  O400  1  0.11856034  0.25756671  0.25582387  1
  O  O401  1  0.11948401  0.25523030  0.75523920  1
  O  O402  1  0.11860999  0.75562481  0.25521605  1
  O  O403  1  0.12030068  0.75589280  0.75430345  1
  O  O404  1  0.62386193  0.24846101  0.26244227  1
  O  O405  1  0.61831356  0.25180470  0.75699163  1
  O  O406  1  0.61797368  0.75420459  0.25530516  1
  O  O407  1  0.62088559  0.75385612  0.75676887  1
  O  O408  1  0.37643257  0.24611145  0.24100406  1
  O  O409  1  0.38108438  0.24308308  0.74469885  1
  O  O410  1  0.37922392  0.74509197  0.24396735  1
  O  O411  1  0.38276822  0.74984304  0.74200683  1
  O  O412  1  0.88117127  0.24908023  0.24396398  1
  O  O413  1  0.88146673  0.24475156  0.74579973  1
  O  O414  1  0.88237775  0.74958891  0.24337272  1
  O  O415  1  0.88050628  0.74511608  0.74483355  1
  O  O416  1  0.37974304  0.50122599  0.48968379  1
  O  O417  1  0.37754761  0.49121795  0.99592848  1
  O  O418  1  0.38203242  0.99332465  0.49766878  1
  O  O419  1  0.37937143  0.99511403  0.99388760  1
  O  O420  1  0.87756637  0.49387466  0.49022371  1
  O  O421  1  0.88099492  0.49869742  0.98984948  1
  O  O422  1  0.88078737  0.99265295  0.49581283  1
  O  O423  1  0.87983298  0.99488838  0.99566155  1
  O  O424  1  0.11781400  0.00104906  0.00674466  1
  O  O425  1  0.11757313  0.00112049  0.50774289  1
  O  O426  1  0.11772324  0.50068632  0.00820898  1
  O  O427  1  0.12449867  0.50601602  0.50849973  1
  O  O428  1  0.61800745  0.00600362  0.00086435  1
  O  O429  1  0.61812126  0.00535649  0.50211878  1
  O  O430  1  0.62287431  0.50899125  0.00911361  1
  O  O431  1  0.62013806  0.50620546  0.50409565  1
  O  O432  1  0.36882342  0.36982417  0.11947132  1
  O  O433  1  0.37292121  0.36659472  0.62268142  1
  O  O434  1  0.36910429  0.86978063  0.11993921  1
  O  O435  1  0.37486945  0.86802337  0.61655568  1
  O  O436  1  0.86424678  0.37018882  0.12412105  1
  O  O437  1  0.86980466  0.37110247  0.62178203  1
  O  O438  1  0.86990989  0.86910679  0.11983946  1
  O  O439  1  0.87051873  0.86801249  0.62011775  1
  O  O440  1  0.13245472  0.13319733  0.37793759  1
  O  O441  1  0.13243777  0.13238000  0.87520260  1
  O  O442  1  0.12419702  0.63183083  0.38111773  1
  O  O443  1  0.13431473  0.63258119  0.87645598  1
  O  O444  1  0.63063447  0.13058421  0.38070517  1
  O  O445  1  0.62624804  0.13247122  0.88207226  1
  O  O446  1  0.62954540  0.63013454  0.38021805  1
  O  O447  1  0.62355114  0.63154065  0.88271555  1
