# generated using pymatgen
data_V3Zn3O8
_symmetry_space_group_name_H-M   'P 1'
_cell_length_a   17.08608516
_cell_length_b   17.08599482
_cell_length_c   17.08704423
_cell_angle_alpha   90.00270229
_cell_angle_beta   89.99329523
_cell_angle_gamma   89.99407894
_symmetry_Int_Tables_number   1
_chemical_formula_structural   V3Zn3O8
_chemical_formula_sum   'V96 Zn96 O256'
_cell_volume   4988.26796072
_cell_formula_units_Z   32
loop_
 _symmetry_equiv_pos_site_id
 _symmetry_equiv_pos_as_xyz
  1  'x, y, z'
loop_
 _atom_site_type_symbol
 _atom_site_label
 _atom_site_symmetry_multiplicity
 _atom_site_fract_x
 _atom_site_fract_y
 _atom_site_fract_z
 _atom_site_occupancy
  V  V0  1  -0.00065849  0.87568921  0.87524468  1
  V  V1  1  0.37443697  0.87528212  0.49921303  1
  V  V2  1  0.12544872  0.62585274  -0.00001899  1
  V  V3  1  0.12563224  0.25098386  0.87463016  1
  V  V4  1  0.00001607  0.25000120  0.24946675  1
  V  V5  1  0.87619127  0.25040989  0.62391554  1
  V  V6  1  0.12615125  0.37568749  0.24932756  1
  V  V7  1  0.37588923  0.62352318  0.25121829  1
  V  V8  1  0.25053150  -0.00041067  0.75076708  1
  V  V9  1  0.75133639  0.24990103  0.49979650  1
  V  V10  1  -0.00004404  0.62519470  0.12439526  1
  V  V11  1  0.24985010  0.50112861  0.75042462  1
  V  V12  1  -0.00017896  0.12594625  0.12391137  1
  V  V13  1  0.37362119  0.62574981  0.75085753  1
  V  V14  1  0.50026216  0.25068153  0.75073435  1
  V  V15  1  0.75072535  0.12408620  0.37424798  1
  V  V16  1  0.62580527  0.87485641  0.25080928  1
  V  V17  1  0.62473680  0.12371629  -0.00053620  1
  V  V18  1  -0.00046889  0.62456917  0.62448874  1
  V  V19  1  0.25000447  0.37506333  0.12481991  1
  V  V20  1  0.12565028  0.00092126  0.12546193  1
  V  V21  1  0.00041105  0.75059789  0.24937147  1
  V  V22  1  0.87507694  0.37601108  -0.00090212  1
  V  V23  1  0.37361467  0.75126139  0.12589824  1
  V  V24  1  0.12400257  0.87516249  0.74865748  1
  V  V25  1  0.00070037  -0.00082540  0.49917480  1
  V  V26  1  0.62413509  0.62471624  0.00090435  1
  V  V27  1  0.37278121  0.75092696  0.62486364  1
  V  V28  1  0.75040025  0.62481261  0.37503261  1
  V  V29  1  0.87429042  0.62492466  0.74950365  1
  V  V30  1  0.25004890  0.37506914  0.62572739  1
  V  V31  1  0.87571445  0.87508657  0.49908139  1
  V  V32  1  0.24893033  0.00052092  0.24877351  1
  V  V33  1  0.37553539  0.37538230  0.50017417  1
  V  V34  1  0.87512901  0.74892061  0.62508610  1
  V  V35  1  0.50014076  0.12438176  0.12485800  1
  V  V36  1  0.74921008  0.87505797  0.12501432  1
  V  V37  1  0.00040515  0.37517032  0.37466367  1
  V  V38  1  0.62409335  0.74952028  0.87639378  1
  V  V39  1  0.74873285  0.74967553  -0.00007277  1
  V  V40  1  -0.00040031  0.00087311  -0.00090840  1
  V  V41  1  0.12543194  0.12687981  -0.00113171  1
  V  V42  1  0.87463718  0.87575158  -0.00139760  1
  V  V43  1  0.50009740  0.37506806  0.87546059  1
  V  V44  1  0.12395665  0.75075330  0.37385023  1
  V  V45  1  0.50009217  0.49966188  0.00012300  1
  V  V46  1  0.75076059  0.12556868  0.87376196  1
  V  V47  1  0.25036081  0.24944247  0.50112974  1
  V  V48  1  0.62471613  0.37389422  0.24982455  1
  V  V49  1  0.12568477  0.50021267  0.12541511  1
  V  V50  1  0.50037956  0.00011209  0.00058124  1
  V  V51  1  0.87467200  0.49994934  0.37406283  1
  V  V52  1  0.12572813  0.25051218  0.37537474  1
  V  V53  1  0.87490335  0.37390636  0.49970511  1
  V  V54  1  0.74884227  0.87460522  0.62521438  1
  V  V55  1  0.12443428  0.75026427  0.87634884  1
  V  V56  1  0.37430759  0.87438311  0.00200178  1
  V  V57  1  0.74967549  0.74951288  0.49947816  1
  V  V58  1  0.37570335  -0.00018760  0.37598743  1
  V  V59  1  0.62558354  0.12477677  0.50108681  1
  V  V60  1  0.87468526  0.25040141  0.12397694  1
  V  V61  1  0.87545493  0.12472976  0.74926910  1
  V  V62  1  -0.00112153  0.50030847  -0.00071561  1
  V  V63  1  0.62427493  0.25071502  0.87434664  1
  V  V64  1  0.37568308  0.24945618  0.62639740  1
  V  V65  1  0.62559266  0.74996576  0.37558220  1
  V  V66  1  0.24935186  0.62568431  0.87600648  1
  V  V67  1  0.87489995  0.74977874  0.12457753  1
  V  V68  1  0.50013853  0.87430967  0.87568047  1
  V  V69  1  0.50038167  0.75135405  0.25283114  1
  V  V70  1  0.50032700  0.24908835  0.25004048  1
  V  V71  1  0.87432953  0.12435070  0.24945333  1
  V  V72  1  0.12526679  0.12339329  0.50062503  1
  V  V73  1  0.25004397  0.62434963  0.37624353  1
  V  V74  1  0.49945284  0.49920013  0.49860254  1
  V  V75  1  0.62441474  0.49925355  0.12561707  1
  V  V76  1  0.62487153  0.87493571  0.74885060  1
  V  V77  1  0.00119511  0.25053630  0.74937671  1
  V  V78  1  0.87426706  0.50084344  0.87444010  1
  V  V79  1  0.25104848  0.12544551  0.37529347  1
  V  V80  1  0.12450052  0.50112378  0.62451009  1
  V  V81  1  0.00063379  0.49999449  0.50001001  1
  V  V82  1  0.62568686  0.49918159  0.62600300  1
  V  V83  1  0.37493863  0.37517698  0.00018425  1
  V  V84  1  0.87442458  0.62423228  0.24978786  1
  V  V85  1  0.74911921  0.37495880  0.12512612  1
  V  V86  1  0.50127996  0.12358159  0.62532761  1
  V  V87  1  0.49838415  0.62433719  0.62591765  1
  V  V88  1  0.62499324  0.25011022  0.37448033  1
  V  V89  1  0.24982096  0.25090034  -0.00033439  1
  V  V90  1  0.74971528  0.50000775  0.74954694  1
  V  V91  1  0.12490127  0.37446890  0.75028718  1
  V  V92  1  0.75004689  0.24959866  -0.00081166  1
  V  V93  1  0.37447081  -0.00075573  0.87580654  1
  V  V94  1  0.75033212  -0.00022620  0.24954152  1
  V  V95  1  0.37613954  0.12581457  0.25003354  1
  Zn  Zn96  1  -0.00070937  0.87533017  0.37209353  1
  Zn  Zn97  1  0.25209206  0.12622581  0.87499640  1
  Zn  Zn98  1  -0.00123523  0.75015061  0.74947781  1
  Zn  Zn99  1  0.24921661  0.75156270  0.00178636  1
  Zn  Zn100  1  0.50028440  0.62401100  0.12620649  1
  Zn  Zn101  1  0.87590305  -0.00237240  0.37362689  1
  Zn  Zn102  1  0.24709820  0.75071620  0.50009226  1
  Zn  Zn103  1  0.50170831  0.87711493  0.37656625  1
  Zn  Zn104  1  0.49898320  0.37481291  0.37369379  1
  Zn  Zn105  1  0.37483440  0.49802128  0.37445800  1
  Zn  Zn106  1  0.87383973  -0.00051642  0.87303615  1
  Zn  Zn107  1  0.62496317  -0.00110343  0.12488669  1
  Zn  Zn108  1  0.62610199  0.37521046  0.75050822  1
  Zn  Zn109  1  0.62612218  -0.00084968  0.62371478  1
  Zn  Zn110  1  0.74920206  0.62508057  0.87501751  1
  Zn  Zn111  1  0.12524175  0.62629495  0.50103141  1
  Zn  Zn112  1  0.25185506  0.49776163  0.25085558  1
  Zn  Zn113  1  0.49830856  0.74930405  0.75164053  1
  Zn  Zn114  1  -0.00012265  0.37624663  0.87435668  1
  Zn  Zn115  1  0.24746624  0.87551613  0.12566287  1
  Zn  Zn116  1  0.74998318  0.37432583  0.62542160  1
  Zn  Zn117  1  0.00283368  0.12403630  0.62528276  1
  Zn  Zn118  1  0.12447497  0.87618655  0.24805061  1
  Zn  Zn119  1  0.75054017  0.00069475  0.74861811  1
  Zn  Zn120  1  0.37497730  0.50149673  0.87589084  1
  Zn  Zn121  1  0.12711949  -0.00075992  0.62363430  1
  Zn  Zn122  1  0.37498357  0.25035645  0.12502311  1
  Zn  Zn123  1  0.50165421  -0.00058967  0.50001795  1
  Zn  Zn124  1  0.24845790  0.87475440  0.62350650  1
  Zn  Zn125  1  0.37494558  0.12422782  0.75193553  1
  Zn  Zn126  1  0.62462765  0.62558558  0.49944498  1
  Zn  Zn127  1  0.74882422  0.49938401  0.25050518  1
  Zn  Zn128  1  0.18825241  0.18794562  0.18645331  1
  Zn  Zn129  1  0.18727411  0.18474501  0.68720311  1
  Zn  Zn130  1  0.18853517  0.68610438  0.18954870  1
  Zn  Zn131  1  0.18672761  0.68800308  0.68876447  1
  Zn  Zn132  1  0.68628748  0.18627961  0.18625082  1
  Zn  Zn133  1  0.68817874  0.18977633  0.68721616  1
  Zn  Zn134  1  0.68750688  0.68676829  0.18792561  1
  Zn  Zn135  1  0.68721312  0.68690188  0.68741646  1
  Zn  Zn136  1  0.31424871  0.31272199  0.31294407  1
  Zn  Zn137  1  0.31379172  0.31316549  0.81366243  1
  Zn  Zn138  1  0.31027872  0.81434824  0.31202281  1
  Zn  Zn139  1  0.31083144  0.81211226  0.81401617  1
  Zn  Zn140  1  0.81162596  0.31210432  0.31203050  1
  Zn  Zn141  1  0.81230089  0.31425079  0.81140505  1
  Zn  Zn142  1  0.81297325  0.81267081  0.31329703  1
  Zn  Zn143  1  0.81097400  0.81107696  0.81249327  1
  Zn  Zn144  1  0.18828742  0.43866773  0.43807155  1
  Zn  Zn145  1  0.18755391  0.43813809  0.93706603  1
  Zn  Zn146  1  0.18835909  0.93623731  0.43503077  1
  Zn  Zn147  1  0.18841795  0.93695278  0.93847456  1
  Zn  Zn148  1  0.68758167  0.43673405  0.43703771  1
  Zn  Zn149  1  0.68721570  0.43824205  0.93686001  1
  Zn  Zn150  1  0.68798769  0.93858545  0.43765529  1
  Zn  Zn151  1  0.68877181  0.93923916  0.93489891  1
  Zn  Zn152  1  0.31250705  0.06389569  0.06285895  1
  Zn  Zn153  1  0.31332483  0.06118580  0.56491998  1
  Zn  Zn154  1  0.31204060  0.56211313  0.06256202  1
  Zn  Zn155  1  0.31210364  0.56343031  0.56230189  1
  Zn  Zn156  1  0.81221068  0.06125476  0.06222575  1
  Zn  Zn157  1  0.81290313  0.06072611  0.56365145  1
  Zn  Zn158  1  0.81011106  0.56212051  0.06247428  1
  Zn  Zn159  1  0.81249525  0.56246784  0.56146121  1
  Zn  Zn160  1  0.43842961  0.43622326  0.18610304  1
  Zn  Zn161  1  0.43721396  0.43744377  0.68907739  1
  Zn  Zn162  1  0.43825971  0.93785603  0.18896739  1
  Zn  Zn163  1  0.43793398  0.93696376  0.68787956  1
  Zn  Zn164  1  0.93757788  0.43803785  0.18718801  1
  Zn  Zn165  1  0.93725844  0.43698066  0.68732392  1
  Zn  Zn166  1  0.93836068  0.93706142  0.18641585  1
  Zn  Zn167  1  0.93810152  0.93839582  0.68451479  1
  Zn  Zn168  1  0.06272867  0.06287665  0.31326189  1
  Zn  Zn169  1  0.06282877  0.06290745  0.81454737  1
  Zn  Zn170  1  0.06269025  0.56315369  0.31153255  1
  Zn  Zn171  1  0.06099414  0.56301780  0.81188907  1
  Zn  Zn172  1  0.56282389  0.06114411  0.31335642  1
  Zn  Zn173  1  0.56267032  0.06134317  0.81225208  1
  Zn  Zn174  1  0.56387872  0.56277544  0.31269139  1
  Zn  Zn175  1  0.56115286  0.56307832  0.81313060  1
  Zn  Zn176  1  0.43865393  0.18775187  0.43797993  1
  Zn  Zn177  1  0.43603250  0.18693823  0.93743647  1
  Zn  Zn178  1  0.43838707  0.68839793  0.43845023  1
  Zn  Zn179  1  0.43788747  0.68687267  0.93877124  1
  Zn  Zn180  1  0.93798894  0.18521968  0.43642008  1
  Zn  Zn181  1  0.93863022  0.18923525  0.93468057  1
  Zn  Zn182  1  0.93778525  0.68673865  0.43790889  1
  Zn  Zn183  1  0.93737136  0.68798898  0.93581104  1
  Zn  Zn184  1  0.06249036  0.31394472  0.06180906  1
  Zn  Zn185  1  0.06240447  0.31208478  0.56357427  1
  Zn  Zn186  1  0.06254220  0.81433682  0.06268951  1
  Zn  Zn187  1  0.06121685  0.81178570  0.56124064  1
  Zn  Zn188  1  0.56142857  0.31138434  0.06292311  1
  Zn  Zn189  1  0.56309320  0.31255138  0.56260453  1
  Zn  Zn190  1  0.56090816  0.81193007  0.06481751  1
  Zn  Zn191  1  0.56009326  0.81116623  0.56210482  1
  O  O192  1  0.11798276  0.12194053  0.11886321  1
  O  O193  1  0.12352268  0.12099717  0.61593138  1
  O  O194  1  0.11960268  0.62041976  0.12047140  1
  O  O195  1  0.11888212  0.61907538  0.62416217  1
  O  O196  1  0.61885086  0.12277286  0.11683784  1
  O  O197  1  0.61626127  0.12618048  0.62012855  1
  O  O198  1  0.62319589  0.61828696  0.11976637  1
  O  O199  1  0.61834753  0.61481182  0.62379788  1
  O  O200  1  0.37773773  0.37829908  0.38376909  1
  O  O201  1  0.38204665  0.37774869  0.88211411  1
  O  O202  1  0.37532698  0.87973698  0.38410131  1
  O  O203  1  0.38062592  0.87885890  0.88165251  1
  O  O204  1  0.88131247  0.37922257  0.37910864  1
  O  O205  1  0.87656226  0.38204424  0.88202210  1
  O  O206  1  0.87778628  0.87614656  0.38391454  1
  O  O207  1  0.88069113  0.87556863  0.88068828  1
  O  O208  1  0.25544760  0.00721522  0.36918370  1
  O  O209  1  0.25555011  0.00007524  0.86638263  1
  O  O210  1  0.25192913  0.51100277  0.37271538  1
  O  O211  1  0.25034565  0.50763195  0.86788848  1
  O  O212  1  0.75254151  0.00728903  0.36783828  1
  O  O213  1  0.75365262  0.00937683  0.87040447  1
  O  O214  1  0.75705080  0.50595281  0.37390874  1
  O  O215  1  0.75579981  0.50213519  0.86806296  1
  O  O216  1  0.24272147  0.49347933  0.12699810  1
  O  O217  1  0.24455388  0.49501430  0.62998435  1
  O  O218  1  0.24295334  1.00240298  0.13185075  1
  O  O219  1  0.24926452  0.99581016  0.63748429  1
  O  O220  1  0.74295392  0.49210807  0.12640147  1
  O  O221  1  0.74062536  0.49996492  0.62928978  1
  O  O222  1  0.74832359  0.99277055  0.13095591  1
  O  O223  1  0.74694102  0.99067687  0.62812573  1
  O  O224  1  0.00544506  0.36917451  0.25475162  1
  O  O225  1  0.00753202  0.36882155  0.75035388  1
  O  O226  1  0.00207363  0.86634661  0.25158390  1
  O  O227  1  0.00947773  0.87620899  0.75517099  1
  O  O228  1  0.50678539  0.36736574  0.25079334  1
  O  O229  1  0.50144341  0.36872299  0.75684356  1
  O  O230  1  0.50715656  0.86886894  0.25284454  1
  O  O231  1  0.50879924  0.87315802  0.75636009  1
  O  O232  1  0.49571955  0.12935810  0.24480567  1
  O  O233  1  0.50006727  0.13108191  0.74102808  1
  O  O234  1  0.49023725  0.63165544  0.25092314  1
  O  O235  1  0.49205263  0.62664233  0.74347288  1
  O  O236  1  0.99484946  0.13126678  0.24412961  1
  O  O237  1  0.99160663  0.13087896  0.74920904  1
  O  O238  1  0.99389735  0.62998066  0.24314021  1
  O  O239  1  0.99244126  0.62610857  0.74233664  1
  O  O240  1  0.36821965  0.25698035  0.00128583  1
  O  O241  1  0.36943385  0.25510690  0.50630109  1
  O  O242  1  0.37549086  0.75456317  0.01144856  1
  O  O243  1  0.37342297  0.75764022  0.50785920  1
  O  O244  1  0.86980293  0.25512083  0.00481383  1
  O  O245  1  0.87135240  0.25407950  0.50348076  1
  O  O246  1  0.86958208  0.75531329  0.00537189  1
  O  O247  1  0.86976471  0.75487089  0.50547323  1
  O  O248  1  0.13086914  0.24524803  0.49459516  1
  O  O249  1  0.12947479  0.24660879  0.99461165  1
  O  O250  1  0.12642510  0.74723540  0.48851018  1
  O  O251  1  0.12549567  0.74335795  0.99497296  1
  O  O252  1  0.63141958  0.24521583  0.49486012  1
  O  O253  1  0.63066878  0.24375351  0.99424801  1
  O  O254  1  0.63127194  0.74842714  0.49461563  1
  O  O255  1  0.62905601  0.74513090  0.99653698  1
  O  O256  1  0.49888380  0.24221396  0.13187280  1
  O  O257  1  0.49574231  0.24309900  0.63031266  1
  O  O258  1  0.48887152  0.74766963  0.13292381  1
  O  O259  1  0.48789667  0.74319595  0.62573066  1
  O  O260  1  0.99445539  0.24564913  0.12992380  1
  O  O261  1  0.99432791  0.24732797  0.63096777  1
  O  O262  1  0.99416617  0.74396201  0.12875882  1
  O  O263  1  0.99253184  0.74303553  0.62586173  1
  O  O264  1  0.00590103  0.25548449  0.36934119  1
  O  O265  1  0.00752811  0.25376578  0.86769233  1
  O  O266  1  0.00947675  0.74710407  0.36842042  1
  O  O267  1  0.00642007  0.75748421  0.87252262  1
  O  O268  1  0.50780726  0.25018305  0.36858751  1
  O  O269  1  0.50517124  0.25469262  0.87054624  1
  O  O270  1  0.50739869  0.75168800  0.37014663  1
  O  O271  1  0.50609957  0.75721953  0.87447346  1
  O  O272  1  0.24622736  0.13002330  0.49492984  1
  O  O273  1  0.24284205  0.13249144  0.99904998  1
  O  O274  1  0.24923240  0.62734733  0.48805665  1
  O  O275  1  0.24267943  0.62659635  0.99431670  1
  O  O276  1  0.74613009  0.13047263  0.49467889  1
  O  O277  1  0.74559549  0.13067746  0.99449001  1
  O  O278  1  0.74948212  0.63186864  0.49290546  1
  O  O279  1  0.74260993  0.63206431  0.99915388  1
  O  O280  1  0.25449966  0.37071465  0.00512534  1
  O  O281  1  0.25463791  0.36935036  0.50638983  1
  O  O282  1  0.25868231  0.87226014  0.00407065  1
  O  O283  1  0.26143792  0.87269778  0.50189048  1
  O  O284  1  0.75528833  0.36892554  0.00536824  1
  O  O285  1  0.75761550  0.36789558  0.50048478  1
  O  O286  1  0.75456836  0.86989742  0.00483244  1
  O  O287  1  0.75531808  0.86891506  0.50554091  1
  O  O288  1  0.12531896  0.49317250  0.24307609  1
  O  O289  1  0.13006374  0.49478212  0.74390256  1
  O  O290  1  0.13088210  1.00223345  0.24359761  1
  O  O291  1  0.13235672  0.99072711  0.75111168  1
  O  O292  1  0.62570569  0.49253879  0.24403267  1
  O  O293  1  0.62976262  0.50020839  0.74093002  1
  O  O294  1  0.63239092  0.99327915  0.24868422  1
  O  O295  1  0.62622880  0.98602798  0.74900701  1
  O  O296  1  0.36971688  0.00656175  0.25602883  1
  O  O297  1  0.36571194  -0.00264814  0.75681243  1
  O  O298  1  0.37597291  0.51171240  0.25167840  1
  O  O299  1  0.36720943  0.50739689  0.75040136  1
  O  O300  1  0.86932486  0.00695053  0.24976256  1
  O  O301  1  0.87520918  0.01293459  0.74989040  1
  O  O302  1  0.87413439  0.50601260  0.25625101  1
  O  O303  1  0.86951132  0.50515240  0.75394824  1
  O  O304  1  0.12025002  0.36980534  0.36995506  1
  O  O305  1  0.12359152  0.36963748  0.86756895  1
  O  O306  1  0.12446542  0.86156091  0.37137684  1
  O  O307  1  0.11943234  0.87032581  0.86827806  1
  O  O308  1  0.62408777  0.36744657  0.36818153  1
  O  O309  1  0.61803591  0.36786234  0.87520231  1
  O  O310  1  0.62550959  0.86759521  0.36894411  1
  O  O311  1  0.62028680  0.86932182  0.86812948  1
  O  O312  1  0.38219688  0.12696485  0.13214587  1
  O  O313  1  0.38500492  0.13131078  0.62639645  1
  O  O314  1  0.37516783  0.63288290  0.13552101  1
  O  O315  1  0.37770831  0.63292650  0.63015324  1
  O  O316  1  0.88008723  0.13160116  0.12916373  1
  O  O317  1  0.87640448  0.13175651  0.63420045  1
  O  O318  1  0.88004511  0.63012390  0.12921196  1
  O  O319  1  0.87994451  0.62934916  0.62960555  1
  O  O320  1  0.25022682  0.25754078  0.11760455  1
  O  O321  1  0.25524860  0.25509900  0.62040382  1
  O  O322  1  0.26276852  0.75083083  0.12632032  1
  O  O323  1  0.26141463  0.75042667  0.62302327  1
  O  O324  1  0.75531784  0.25450120  0.11848501  1
  O  O325  1  0.75729587  0.25210340  0.61718554  1
  O  O326  1  0.75598523  0.75533165  0.11971935  1
  O  O327  1  0.75525023  0.75444642  0.61876518  1
  O  O328  1  0.24497452  0.24512217  0.38163742  1
  O  O329  1  0.24350383  0.24952837  0.88130433  1
  O  O330  1  0.24116989  0.74054189  0.37341625  1
  O  O331  1  0.24233791  0.74312365  0.87756120  1
  O  O332  1  0.74505385  0.24357255  0.37983770  1
  O  O333  1  0.74475102  0.24561292  0.88062936  1
  O  O334  1  0.74536075  0.74416436  0.38030291  1
  O  O335  1  0.74221630  0.74858541  0.88294338  1
  O  O336  1  0.00477066  0.12177588  0.00489615  1
  O  O337  1  0.00640797  0.11612780  0.49950198  1
  O  O338  1  0.00496949  0.61997904  0.00585458  1
  O  O339  1  0.00063609  0.61670355  0.50639460  1
  O  O340  1  0.50523088  0.11967719  0.00462140  1
  O  O341  1  0.50621559  0.12699254  0.51114909  1
  O  O342  1  0.50622088  0.61786197  0.00273025  1
  O  O343  1  0.49991880  0.61498889  0.50699463  1
  O  O344  1  0.49422234  0.38410675  0.50083312  1
  O  O345  1  0.49481676  0.37936803  0.99531226  1
  O  O346  1  0.48711564  0.87705627  0.49931536  1
  O  O347  1  0.49474584  0.88045504  0.99557762  1
  O  O348  1  0.99538475  0.37949876  0.49330467  1
  O  O349  1  0.99274607  0.38262568  0.99973537  1
  O  O350  1  0.99456602  0.88329602  0.49760037  1
  O  O351  1  0.99393132  0.88098918  0.99494782  1
  O  O352  1  0.49983282  0.49931935  0.38851279  1
  O  O353  1  0.49885661  0.49313438  0.88221042  1
  O  O354  1  0.49080398  0.99858945  0.37849634  1
  O  O355  1  0.49447224  0.99367325  0.88085150  1
  O  O356  1  0.99514110  0.49440960  0.37947507  1
  O  O357  1  0.99295312  0.49935396  0.88191903  1
  O  O358  1  0.99877246  0.99823103  0.38598980  1
  O  O359  1  0.99797284  0.99377856  0.88224033  1
  O  O360  1  0.00488423  0.00746322  0.11876156  1
  O  O361  1  0.00342976  0.00158060  0.61124065  1
  O  O362  1  0.00511951  0.50605772  0.11942867  1
  O  O363  1  0.00509376  0.50461541  0.61936981  1
  O  O364  1  0.50181844  0.00618341  0.11840543  1
  O  O365  1  0.50131068  0.01282426  0.62473765  1
  O  O366  1  0.50726334  0.50095938  0.11801638  1
  O  O367  1  0.50649966  0.50397470  0.61828065  1
  O  O368  1  0.24367474  0.37530732  0.24424439  1
  O  O369  1  0.24515667  0.38063468  0.74423024  1
  O  O370  1  0.24727826  0.88563713  0.24745051  1
  O  O371  1  0.23995589  0.88290716  0.75135448  1
  O  O372  1  0.74344214  0.37473486  0.24250531  1
  O  O373  1  0.74744842  0.38417125  0.74596143  1
  O  O374  1  0.74594652  0.87933401  0.24431538  1
  O  O375  1  0.74043523  0.87430710  0.74420545  1
  O  O376  1  0.25594432  0.12179912  0.25614341  1
  O  O377  1  0.25133999  0.11218197  0.75229340  1
  O  O378  1  0.25984467  0.62310321  0.25876048  1
  O  O379  1  0.25387457  0.61983809  0.75585968  1
  O  O380  1  0.75495924  0.12021891  0.25366375  1
  O  O381  1  0.75992864  0.12701476  0.75482096  1
  O  O382  1  0.75737085  0.62361583  0.25643419  1
  O  O383  1  0.75626792  0.61778742  0.75094733  1
  O  O384  1  0.36941479  0.12061064  0.37082226  1
  O  O385  1  0.37324162  0.11509175  0.87235513  1
  O  O386  1  0.36694679  0.62681114  0.36679207  1
  O  O387  1  0.36811955  0.62513657  0.86891858  1
  O  O388  1  0.86815350  0.12479686  0.36648294  1
  O  O389  1  0.86977439  0.12709550  0.86439585  1
  O  O390  1  0.87055519  0.61949078  0.36915597  1
  O  O391  1  0.87321669  0.61896080  0.86815377  1
  O  O392  1  0.12959699  0.38065082  0.13013656  1
  O  O393  1  0.13139310  0.38037711  0.63027347  1
  O  O394  1  0.12652204  0.88474787  0.12661682  1
  O  O395  1  0.12678229  0.87441401  0.63661956  1
  O  O396  1  0.63039229  0.37881893  0.12960951  1
  O  O397  1  0.62558370  0.38796854  0.62646075  1
  O  O398  1  0.63194354  0.87488687  0.13234043  1
  O  O399  1  0.62882021  0.87296996  0.63388553  1
  O  O400  1  0.11936657  0.25521186  0.25551493  1
  O  O401  1  0.12151168  0.25487892  0.75402248  1
  O  O402  1  0.11865747  0.74893335  0.25746101  1
  O  O403  1  0.12393914  0.76056970  0.75640618  1
  O  O404  1  0.62021540  0.25373811  0.25492109  1
  O  O405  1  0.61889303  0.25234822  0.75690639  1
  O  O406  1  0.62038948  0.75495479  0.25549176  1
  O  O407  1  0.62317449  0.75925723  0.75564996  1
  O  O408  1  0.38196044  0.24283256  0.24949501  1
  O  O409  1  0.38121535  0.24806792  0.74376474  1
  O  O410  1  0.37943366  0.74330029  0.24501434  1
  O  O411  1  0.37498924  0.74588025  0.74084298  1
  O  O412  1  0.88063499  0.24525044  0.24349272  1
  O  O413  1  0.88057391  0.24354065  0.74471145  1
  O  O414  1  0.88001193  0.74389134  0.24378552  1
  O  O415  1  0.87525078  0.74356493  0.74265730  1
  O  O416  1  0.38501989  0.49465967  0.50214781  1
  O  O417  1  0.38178049  0.49380380  0.99922750  1
  O  O418  1  0.37516791  0.99130143  0.49512735  1
  O  O419  1  0.38065546  0.99448450  0.99571203  1
  O  O420  1  0.88094356  0.49375873  0.49382443  1
  O  O421  1  0.87922585  0.49572549  0.99533234  1
  O  O422  1  0.88428142  0.99457216  0.49858317  1
  O  O423  1  0.88186144  0.99379510  0.99869159  1
  O  O424  1  0.11926264  0.00692886  0.00453168  1
  O  O425  1  0.11821562  0.00402247  0.49906156  1
  O  O426  1  0.11885636  0.50578244  0.00583330  1
  O  O427  1  0.11831755  0.50071562  0.50690386  1
  O  O428  1  0.61824736  0.00616391  -0.00018173  1
  O  O429  1  0.62217453  0.00860771  0.50270370  1
  O  O430  1  0.62005878  0.50469673  0.00592015  1
  O  O431  1  0.61646015  0.50076039  0.50843914  1
  O  O432  1  0.36778102  0.37312582  0.11852347  1
  O  O433  1  0.36912844  0.36933570  0.62035794  1
  O  O434  1  0.37492443  0.86577313  0.12131983  1
  O  O435  1  0.37441644  0.86642218  0.61817120  1
  O  O436  1  0.86972893  0.36955820  0.11968954  1
  O  O437  1  0.87480478  0.36847201  0.61661364  1
  O  O438  1  0.86950306  0.86858643  0.11861091  1
  O  O439  1  0.86942973  0.86861586  0.61974023  1
  O  O440  1  0.13173713  0.13196433  0.38020798  1
  O  O441  1  0.12678368  0.13291397  0.88193012  1
  O  O442  1  0.13355432  0.63276086  0.37405648  1
  O  O443  1  0.12880222  0.63034818  0.88010497  1
  O  O444  1  0.63129677  0.13087430  0.38033849  1
  O  O445  1  0.63010154  0.13090291  0.87981208  1
  O  O446  1  0.63241987  0.63160922  0.37639631  1
  O  O447  1  0.62547859  0.63181615  0.88217092  1
