# generated using pymatgen
data_V3Zn3O8
_symmetry_space_group_name_H-M   'P 1'
_cell_length_a   17.09168220
_cell_length_b   17.09080299
_cell_length_c   17.09044802
_cell_angle_alpha   89.98616569
_cell_angle_beta   89.97431784
_cell_angle_gamma   89.98678564
_symmetry_Int_Tables_number   1
_chemical_formula_structural   V3Zn3O8
_chemical_formula_sum   'V96 Zn96 O256'
_cell_volume   4992.29978689
_cell_formula_units_Z   32
loop_
 _symmetry_equiv_pos_site_id
 _symmetry_equiv_pos_as_xyz
  1  'x, y, z'
loop_
 _atom_site_type_symbol
 _atom_site_label
 _atom_site_symmetry_multiplicity
 _atom_site_fract_x
 _atom_site_fract_y
 _atom_site_fract_z
 _atom_site_occupancy
  V  V0  1  0.12361712  0.00355516  0.12318715  1
  V  V1  1  0.62611159  0.37551249  0.24998212  1
  V  V2  1  0.50136798  0.37512450  0.37524396  1
  V  V3  1  0.74981515  0.87531192  0.12468415  1
  V  V4  1  0.50060418  0.62579531  0.12509591  1
  V  V5  1  0.37509875  0.50182565  0.87485346  1
  V  V6  1  0.37577462  0.62575352  0.25043308  1
  V  V7  1  0.62478115  0.12507879  0.00028544  1
  V  V8  1  0.50073987  0.50025957  -0.00013029  1
  V  V9  1  0.12492035  0.87542726  0.25026984  1
  V  V10  1  0.49879801  -0.00045271  0.50036796  1
  V  V11  1  0.49847028  0.87498072  0.87469931  1
  V  V12  1  0.24976260  0.00088996  0.24980311  1
  V  V13  1  0.50101422  0.12499380  0.12588894  1
  V  V14  1  0.49951377  0.87491711  0.37510821  1
  V  V15  1  0.62550508  0.87582675  0.24926690  1
  V  V16  1  0.62363886  0.87430952  0.74917269  1
  V  V17  1  0.24999026  0.62539610  0.37569752  1
  V  V18  1  0.87483521  0.37296963  0.00065765  1
  V  V19  1  0.00225469  0.49993302  0.00108038  1
  V  V20  1  -0.00131913  0.62533977  0.62608427  1
  V  V21  1  0.25106391  0.87522944  0.12445061  1
  V  V22  1  0.74949202  0.87314462  0.62282182  1
  V  V23  1  0.12760184  0.37570566  0.25088219  1
  V  V24  1  0.62554488  0.49869666  0.62506899  1
  V  V25  1  0.37487066  0.87542615  -0.00006017  1
  V  V26  1  0.12128482  0.12371535  0.50220211  1
  V  V27  1  0.62615684  0.50057584  0.12469447  1
  V  V28  1  -0.00218933  -0.00013966  -0.00187419  1
  V  V29  1  0.87614374  0.62566550  0.24827916  1
  V  V30  1  0.75133389  0.50013288  0.24927231  1
  V  V31  1  0.12605428  0.25109584  0.37532326  1
  V  V32  1  0.75106770  0.12459143  0.37332893  1
  V  V33  1  0.24798409  0.87467349  0.62537451  1
  V  V34  1  0.25063636  0.50138450  0.75207865  1
  V  V35  1  0.12553684  0.49807114  0.62658152  1
  V  V36  1  0.50043007  0.50017075  0.50038928  1
  V  V37  1  0.87662824  0.49929084  0.37470466  1
  V  V38  1  0.75034520  0.25048782  0.49933939  1
  V  V39  1  0.37626020  0.12570372  0.25023171  1
  V  V40  1  0.12568542  0.50159093  0.12406744  1
  V  V41  1  0.24873132  -0.00004242  0.75050540  1
  V  V42  1  0.62443188  0.74981308  0.87450436  1
  V  V43  1  0.37643189  0.37557754  0.00126973  1
  V  V44  1  0.75147626  0.37427465  0.12425413  1
  V  V45  1  -0.00021851  0.74969287  0.24880210  1
  V  V46  1  0.62510625  0.24858157  0.87526892  1
  V  V47  1  0.25075507  0.25078998  0.50085571  1
  V  V48  1  0.00056506  0.37697963  0.37540632  1
  V  V49  1  0.62282250  -0.00079132  0.62354762  1
  V  V50  1  0.75040548  0.62487019  0.37399210  1
  V  V51  1  0.74924493  0.37417813  0.62481511  1
  V  V52  1  0.62506193  0.37439895  0.74934642  1
  V  V53  1  -0.00066902  0.87511415  0.37638858  1
  V  V54  1  0.37579940  0.50060743  0.37587934  1
  V  V55  1  0.24942330  0.75053876  0.50097631  1
  V  V56  1  0.12435145  0.75006512  0.37470090  1
  V  V57  1  0.62507605  0.74983292  0.37449604  1
  V  V58  1  0.75048579  0.00147435  0.75096381  1
  V  V59  1  0.25028355  0.24889219  -0.00101990  1
  V  V60  1  0.49839673  0.74903341  0.74895013  1
  V  V61  1  0.37307501  0.12447454  0.75106203  1
  V  V62  1  0.37459032  0.25040117  0.62500113  1
  V  V63  1  0.25032504  0.12543422  0.37542550  1
  V  V64  1  0.00123360  0.37217287  0.87378505  1
  V  V65  1  0.37469868  0.75153880  0.12458141  1
  V  V66  1  0.49917823  0.62573851  0.62577483  1
  V  V67  1  0.00023869  0.24852137  0.24718178  1
  V  V68  1  0.87454344  0.24791259  0.62500258  1
  V  V69  1  0.50052486  0.24994853  0.25040156  1
  V  V70  1  0.25281098  0.37555571  0.12550844  1
  V  V71  1  0.75040810  0.62468481  0.87449500  1
  V  V72  1  0.00017455  0.24770277  0.74919647  1
  V  V73  1  0.37416469  -0.00019340  0.87490594  1
  V  V74  1  0.87605155  -0.00079014  0.37614392  1
  V  V75  1  0.37279403  0.87415603  0.50087678  1
  V  V76  1  0.62567205  0.62534847  -0.00053093  1
  V  V77  1  0.50102755  0.37517055  0.87544045  1
  V  V78  1  0.37529284  0.37454711  0.50095130  1
  V  V79  1  0.87419363  0.62525472  0.74936216  1
  V  V80  1  0.25116187  0.50009481  0.25034466  1
  V  V81  1  0.74978248  0.24941955  -0.00018812  1
  V  V82  1  0.87501623  0.49976185  0.87543582  1
  V  V83  1  0.75040714  0.75013423  0.50012492  1
  V  V84  1  0.75104965  0.75111056  -0.00012287  1
  V  V85  1  0.12464456  0.74866163  0.87681629  1
  V  V86  1  0.12120754  0.87539110  0.75113316  1
  V  V87  1  0.50016166  0.75058733  0.25002238  1
  V  V88  1  0.87541944  0.75106783  0.12420961  1
  V  V89  1  0.62576661  0.00008528  0.12502332  1
  V  V90  1  0.37452445  -0.00030227  0.37512428  1
  V  V91  1  0.62668237  0.24983905  0.37521936  1
  V  V92  1  0.49911958  0.24966650  0.74985174  1
  V  V93  1  0.12447399  0.62453830  0.50055532  1
  V  V94  1  0.49873650  0.12371538  0.62423888  1
  V  V95  1  0.62502293  0.62438244  0.49954917  1
  Zn  Zn96  1  0.87525602  0.24703064  0.12452382  1
  Zn  Zn97  1  0.62353295  0.12431084  0.49897314  1
  Zn  Zn98  1  0.12645844  0.62599920  0.00057444  1
  Zn  Zn99  1  -0.00295645  0.12619179  0.12299392  1
  Zn  Zn100  1  0.37671682  0.25012349  0.12549104  1
  Zn  Zn101  1  0.87668616  0.87221421  0.50149678  1
  Zn  Zn102  1  0.87725860  0.12437957  0.24868638  1
  Zn  Zn103  1  0.12341127  0.12773552  -0.00315490  1
  Zn  Zn104  1  0.24947017  0.74804449  -0.00039799  1
  Zn  Zn105  1  -0.00215675  0.75131191  0.75235746  1
  Zn  Zn106  1  0.87437270  0.12275513  0.75278450  1
  Zn  Zn107  1  0.75196976  0.00016124  0.24914920  1
  Zn  Zn108  1  0.12024613  -0.00005426  0.62628858  1
  Zn  Zn109  1  -0.00465477  0.87432464  0.87500506  1
  Zn  Zn110  1  0.87428052  -0.00053844  0.87563003  1
  Zn  Zn111  1  0.12689009  0.37349674  0.75000798  1
  Zn  Zn112  1  -0.00224497  0.12173900  0.62572163  1
  Zn  Zn113  1  0.37288864  0.74807640  0.62715459  1
  Zn  Zn114  1  0.00196952  0.62643910  0.12269779  1
  Zn  Zn115  1  0.37424000  0.62724457  0.75075459  1
  Zn  Zn116  1  0.24843419  0.12516212  0.87568538  1
  Zn  Zn117  1  0.25109094  0.62624483  0.87819388  1
  Zn  Zn118  1  0.87437001  0.75028436  0.62400775  1
  Zn  Zn119  1  0.87468202  0.87563972  -0.00296344  1
  Zn  Zn120  1  0.12713262  0.24814314  0.87299534  1
  Zn  Zn121  1  0.49986299  0.00089637  -0.00038182  1
  Zn  Zn122  1  0.75059564  0.12368492  0.87539440  1
  Zn  Zn123  1  -0.00115153  0.49835663  0.50018058  1
  Zn  Zn124  1  -0.00062118  -0.00288092  0.50314119  1
  Zn  Zn125  1  0.25010503  0.37489360  0.62620812  1
  Zn  Zn126  1  0.87679580  0.37651619  0.50007158  1
  Zn  Zn127  1  0.74961245  0.49826716  0.74981551  1
  Zn  Zn128  1  0.18907402  0.18871108  0.18581050  1
  Zn  Zn129  1  0.18720969  0.18699367  0.68680450  1
  Zn  Zn130  1  0.18778018  0.68709989  0.18662861  1
  Zn  Zn131  1  0.18652200  0.68788215  0.68982082  1
  Zn  Zn132  1  0.68812708  0.18747382  0.18693128  1
  Zn  Zn133  1  0.68535618  0.18579294  0.68583258  1
  Zn  Zn134  1  0.68878532  0.68893857  0.18684687  1
  Zn  Zn135  1  0.68713988  0.68678447  0.68721804  1
  Zn  Zn136  1  0.31426839  0.31214244  0.31392803  1
  Zn  Zn137  1  0.31320249  0.31564405  0.81329840  1
  Zn  Zn138  1  0.31161184  0.81290187  0.31227889  1
  Zn  Zn139  1  0.31041178  0.81228797  0.81265724  1
  Zn  Zn140  1  0.81543917  0.31309402  0.31208980  1
  Zn  Zn141  1  0.81222903  0.31103146  0.81230518  1
  Zn  Zn142  1  0.81300176  0.81343113  0.31178790  1
  Zn  Zn143  1  0.81264581  0.81476789  0.81265291  1
  Zn  Zn144  1  0.18797490  0.43796782  0.43934863  1
  Zn  Zn145  1  0.18755771  0.43555579  0.93770725  1
  Zn  Zn146  1  0.18650797  0.93842676  0.43788887  1
  Zn  Zn147  1  0.18735381  0.93598824  0.93715317  1
  Zn  Zn148  1  0.68995937  0.43701606  0.43827507  1
  Zn  Zn149  1  0.68835496  0.43677482  0.93686696  1
  Zn  Zn150  1  0.68772133  0.93772232  0.43785750  1
  Zn  Zn151  1  0.68562647  0.93706745  0.93810910  1
  Zn  Zn152  1  0.31440026  0.06293196  0.06261254  1
  Zn  Zn153  1  0.30934241  0.06151696  0.56450462  1
  Zn  Zn154  1  0.31105158  0.56479564  0.06083808  1
  Zn  Zn155  1  0.31261995  0.56336255  0.56441225  1
  Zn  Zn156  1  0.81379765  0.06475623  0.06452181  1
  Zn  Zn157  1  0.81079203  0.06168753  0.56105500  1
  Zn  Zn158  1  0.81502447  0.56305386  0.06157274  1
  Zn  Zn159  1  0.81208974  0.56060292  0.56076715  1
  Zn  Zn160  1  0.43839223  0.43817061  0.18753923  1
  Zn  Zn161  1  0.43706676  0.43807130  0.68786121  1
  Zn  Zn162  1  0.43867355  0.93931031  0.18692396  1
  Zn  Zn163  1  0.43480480  0.93596214  0.68749587  1
  Zn  Zn164  1  0.93910396  0.43613649  0.18678652  1
  Zn  Zn165  1  0.93621632  0.43648501  0.68817307  1
  Zn  Zn166  1  0.93685188  0.93705610  0.18750818  1
  Zn  Zn167  1  0.93594322  0.93767409  0.68374526  1
  Zn  Zn168  1  0.06230874  0.06278571  0.31445932  1
  Zn  Zn169  1  0.06408848  0.06526612  0.81635106  1
  Zn  Zn170  1  0.06211275  0.56304652  0.31070491  1
  Zn  Zn171  1  0.06243069  0.56313196  0.81345162  1
  Zn  Zn172  1  0.56394220  0.06204740  0.31206182  1
  Zn  Zn173  1  0.56198120  0.06197725  0.81256969  1
  Zn  Zn174  1  0.56319086  0.56240547  0.31216849  1
  Zn  Zn175  1  0.56235657  0.56246349  0.81105231  1
  Zn  Zn176  1  0.43778245  0.18723881  0.43750916  1
  Zn  Zn177  1  0.43648900  0.18690960  0.93825977  1
  Zn  Zn178  1  0.43699864  0.68858146  0.43931736  1
  Zn  Zn179  1  0.43609799  0.68780182  0.93700749  1
  Zn  Zn180  1  0.93706642  0.18953364  0.43598326  1
  Zn  Zn181  1  0.93410711  0.18175083  0.93660162  1
  Zn  Zn182  1  0.93702458  0.68658168  0.43806070  1
  Zn  Zn183  1  0.94013927  0.68762260  0.93802834  1
  Zn  Zn184  1  0.06567184  0.31523607  0.06275578  1
  Zn  Zn185  1  0.06116228  0.31246580  0.56167561  1
  Zn  Zn186  1  0.06189434  0.81534813  0.06141060  1
  Zn  Zn187  1  0.06161212  0.81160010  0.56327076  1
  Zn  Zn188  1  0.56385414  0.31146099  0.06339441  1
  Zn  Zn189  1  0.56296575  0.31092238  0.56193565  1
  Zn  Zn190  1  0.56214569  0.81394385  0.06115843  1
  Zn  Zn191  1  0.56210901  0.81161444  0.56249586  1
  O  O192  1  0.12595350  0.11171384  0.12471514  1
  O  O193  1  0.12366736  0.12502844  0.61249737  1
  O  O194  1  0.12299976  0.61630700  0.12471206  1
  O  O195  1  0.11717943  0.61715318  0.62223149  1
  O  O196  1  0.62024474  0.11996946  0.12086122  1
  O  O197  1  0.61585983  0.11790637  0.62189095  1
  O  O198  1  0.62048308  0.62029000  0.11975740  1
  O  O199  1  0.61988802  0.61844601  0.61847090  1
  O  O200  1  0.38192557  0.38115497  0.38062330  1
  O  O201  1  0.38328058  0.38190181  0.88136452  1
  O  O202  1  0.37958980  0.88045381  0.37982081  1
  O  O203  1  0.37960720  0.87995413  0.87999451  1
  O  O204  1  0.88227217  0.38227111  0.37489439  1
  O  O205  1  0.88284805  0.37949497  0.87978252  1
  O  O206  1  0.88014463  0.88317835  0.37572942  1
  O  O207  1  0.87742499  0.88060686  0.87800504  1
  O  O208  1  0.25521226  0.00535201  0.36923448  1
  O  O209  1  0.25710265  0.00002296  0.86810647  1
  O  O210  1  0.25621855  0.50588384  0.37035905  1
  O  O211  1  0.25536385  0.49853177  0.86672113  1
  O  O212  1  0.75694334  0.00808648  0.37452773  1
  O  O213  1  0.74517053  -0.00095141  0.86086547  1
  O  O214  1  0.75483554  0.50542754  0.36815231  1
  O  O215  1  0.75661375  0.50649830  0.87410545  1
  O  O216  1  0.24702597  0.49502105  0.13206358  1
  O  O217  1  0.24130070  0.50021252  0.63293347  1
  O  O218  1  0.24309047  0.99544193  0.13056629  1
  O  O219  1  0.24576297  0.99253568  0.63240018  1
  O  O220  1  0.74510611  0.49513023  0.12963107  1
  O  O221  1  0.74259973  0.49273753  0.62542381  1
  O  O222  1  0.74328696  0.99371022  0.12768203  1
  O  O223  1  0.74253275  0.99397174  0.63009479  1
  O  O224  1  0.00849058  0.36794168  0.25521129  1
  O  O225  1  -0.00157679  0.36652288  0.75903958  1
  O  O226  1  0.00636400  0.86908826  0.25618018  1
  O  O227  1  0.01069414  0.87369891  0.74927464  1
  O  O228  1  0.50635141  0.37127121  0.25603985  1
  O  O229  1  0.50502081  0.36910111  0.75549798  1
  O  O230  1  0.50461585  0.86946170  0.25583462  1
  O  O231  1  0.50488474  0.86927168  0.75462387  1
  O  O232  1  0.49581482  0.13060826  0.24664340  1
  O  O233  1  0.49352799  0.13036276  0.74387086  1
  O  O234  1  0.49557579  0.63042977  0.24516233  1
  O  O235  1  0.50055563  0.63135433  0.74308853  1
  O  O236  1  1.00298439  0.13844293  0.25050401  1
  O  O237  1  0.99773652  0.13681363  0.74855064  1
  O  O238  1  0.99353428  0.63238371  0.24821327  1
  O  O239  1  0.99062742  0.62379048  0.74226923  1
  O  O240  1  0.36821984  0.25770842  0.00240394  1
  O  O241  1  0.37056209  0.25476995  0.50464314  1
  O  O242  1  0.37507815  0.75728914  0.00772620  1
  O  O243  1  0.36697761  0.75701154  0.50013520  1
  O  O244  1  0.86829341  0.25642255  0.00073226  1
  O  O245  1  0.86954601  0.25220630  0.50898051  1
  O  O246  1  0.86813731  0.75005733  0.00609085  1
  O  O247  1  0.86514485  0.74947148  0.50184792  1
  O  O248  1  0.13099321  0.24374682  0.49494616  1
  O  O249  1  0.13866933  0.25130310  1.00066911  1
  O  O250  1  0.13015609  0.74375667  0.49383370  1
  O  O251  1  0.12604545  0.75192705  0.98946835  1
  O  O252  1  0.63145960  0.24803843  0.49261105  1
  O  O253  1  0.62992462  0.24554829  0.99449315  1
  O  O254  1  0.62916188  0.74357877  0.49281601  1
  O  O255  1  0.63002286  0.74408504  0.99440552  1
  O  O256  1  0.50030659  0.24403839  0.13339718  1
  O  O257  1  0.49435170  0.24423920  0.63007639  1
  O  O258  1  0.49538967  0.74503122  0.13091598  1
  O  O259  1  0.49941315  0.74352252  0.63076716  1
  O  O260  1  1.00339309  0.25121961  0.13665529  1
  O  O261  1  0.99060693  0.25088267  0.63266250  1
  O  O262  1  0.99422609  0.75063885  0.13180230  1
  O  O263  1  0.99908552  0.73517411  0.62796991  1
  O  O264  1  0.00693561  0.25667580  0.36668501  1
  O  O265  1  -0.00330908  0.25838029  0.86624085  1
  O  O266  1  0.00558765  0.75414650  0.36906758  1
  O  O267  1  0.01026508  0.75288738  0.87239065  1
  O  O268  1  0.50618450  0.25570370  0.37049632  1
  O  O269  1  0.50474122  0.25599338  0.86940466  1
  O  O270  1  0.50513243  0.75501532  0.36981244  1
  O  O271  1  0.50585329  0.75495198  0.86954693  1
  O  O272  1  0.24300630  0.13077193  0.49461645  1
  O  O273  1  0.25207562  0.13795077  1.00065281  1
  O  O274  1  0.24465759  0.63009236  0.49458892  1
  O  O275  1  0.24517669  0.62968061  0.99667084  1
  O  O276  1  0.74784371  0.13098960  0.48824687  1
  O  O277  1  0.74148470  0.13188144  0.99983395  1
  O  O278  1  0.74326208  0.62904766  0.49326437  1
  O  O279  1  0.74470213  0.63041736  0.99441135  1
  O  O280  1  0.25717704  0.36902941  0.00587457  1
  O  O281  1  0.25768391  0.36869647  0.50102560  1
  O  O282  1  0.25726626  0.87342870  0.00794034  1
  O  O283  1  0.25290522  0.86988998  0.50441596  1
  O  O284  1  0.75470751  0.36997946  0.00501580  1
  O  O285  1  0.75162405  0.36761581  0.50669207  1
  O  O286  1  0.74886162  0.86775842  0.00704977  1
  O  O287  1  0.74895833  0.86736218  0.50546772  1
  O  O288  1  0.13271782  0.49494209  0.24593432  1
  O  O289  1  0.13220871  0.49935027  0.74218061  1
  O  O290  1  0.12986875  0.99545464  0.24361440  1
  O  O291  1  0.12980860  0.99032420  0.75102506  1
  O  O292  1  0.63105057  0.49542711  0.24451506  1
  O  O293  1  0.62565562  0.49217211  0.74316768  1
  O  O294  1  0.62663811  0.99269195  0.24393964  1
  O  O295  1  0.62968139  0.99347238  0.74292846  1
  O  O296  1  0.36960686  0.00537549  0.25605224  1
  O  O297  1  0.36882031  0.00460008  0.75495274  1
  O  O298  1  0.37137321  0.50613444  0.25636358  1
  O  O299  1  0.36671358  0.50014343  0.75581735  1
  O  O300  1  0.87375374  0.00158701  0.26348514  1
  O  O301  1  0.86019171  0.00028201  0.74692586  1
  O  O302  1  0.86974207  0.50521284  0.25380736  1
  O  O303  1  0.87337749  0.50939967  0.75603228  1
  O  O304  1  0.12212744  0.37068004  0.36991818  1
  O  O305  1  0.11099980  0.37195214  0.87311076  1
  O  O306  1  0.12062279  0.86952785  0.36938637  1
  O  O307  1  0.12412288  0.86741315  0.86496143  1
  O  O308  1  0.62087383  0.37065717  0.36921459  1
  O  O309  1  0.61945654  0.36942722  0.86992899  1
  O  O310  1  0.61876262  0.86933342  0.36977456  1
  O  O311  1  0.61855285  0.86845270  0.86921439  1
  O  O312  1  0.38254145  0.12575940  0.13376274  1
  O  O313  1  0.37944951  0.13035841  0.63059307  1
  O  O314  1  0.38160113  0.63035913  0.13143700  1
  O  O315  1  0.38400564  0.62696274  0.62726974  1
  O  O316  1  0.87884510  0.12979003  0.13221656  1
  O  O317  1  0.87381161  0.13822802  0.62580260  1
  O  O318  1  0.87612671  0.63222979  0.13160749  1
  O  O319  1  0.88199264  0.62195446  0.63294544  1
  O  O320  1  0.25380069  0.25760963  0.11785579  1
  O  O321  1  0.25710746  0.25255962  0.61905081  1
  O  O322  1  0.25762618  0.75806794  0.12708564  1
  O  O323  1  0.24931454  0.75544788  0.61810430  1
  O  O324  1  0.74912274  0.25808808  0.11830387  1
  O  O325  1  0.75603108  0.25391490  0.62040294  1
  O  O326  1  0.75470383  0.75504316  0.11899363  1
  O  O327  1  0.74801383  0.75514223  0.61760120  1
  O  O328  1  0.24575335  0.24484931  0.38056039  1
  O  O329  1  0.25061136  0.25254292  0.88670142  1
  O  O330  1  0.24385252  0.74483875  0.37974563  1
  O  O331  1  0.23837806  0.74897555  0.87588082  1
  O  O332  1  0.74695667  0.24386452  0.37883236  1
  O  O333  1  0.74182618  0.24979740  0.88143980  1
  O  O334  1  0.74375148  0.74391386  0.37865365  1
  O  O335  1  0.74344238  0.74421421  0.87965610  1
  O  O336  1  0.00371648  0.11509935  0.00372276  1
  O  O337  1  0.01244368  0.12749855  0.49861447  1
  O  O338  1  0.00326743  0.61461194  0.00212991  1
  O  O339  1  0.00588128  0.62249262  0.50935888  1
  O  O340  1  0.50646440  0.12494734  0.00780756  1
  O  O341  1  0.49906058  0.11721355  0.50595310  1
  O  O342  1  0.50631679  0.62013556  0.00592229  1
  O  O343  1  0.50596579  0.61942110  0.50388297  1
  O  O344  1  0.49571943  0.38041309  0.49413639  1
  O  O345  1  0.49726944  0.38090680  0.99553804  1
  O  O346  1  0.49349110  0.87947620  0.49402305  1
  O  O347  1  0.49342024  0.87643021  0.99255395  1
  O  O348  1  0.99866718  0.37755530  0.49064236  1
  O  O349  1  0.99497621  0.37821457  0.99139182  1
  O  O350  1  0.99827464  0.87492547  0.49143244  1
  O  O351  1  0.99804151  0.88766982  0.99943503  1
  O  O352  1  0.49578047  0.49511577  0.38035351  1
  O  O353  1  0.49672320  0.49444832  0.88095578  1
  O  O354  1  0.49400914  0.99431279  0.37960253  1
  O  O355  1  0.49281639  0.99218423  0.87476941  1
  O  O356  1  0.99501691  0.49434660  0.37420628  1
  O  O357  1  0.99508559  0.49017924  0.87905080  1
  O  O358  1  0.99206287  0.99414444  0.37644368  1
  O  O359  1  1.00085245  0.99872623  0.88736981  1
  O  O360  1  0.01020335  -0.00053358  0.11975515  1
  O  O361  1  0.00207574  0.00537630  0.62009033  1
  O  O362  1  0.00787947  0.49873682  0.11893256  1
  O  O363  1  0.00810120  0.50850623  0.62618360  1
  O  O364  1  0.50764498  0.00722455  0.12444047  1
  O  O365  1  0.50279244  0.00381548  0.61977424  1
  O  O366  1  0.50660101  0.50620559  0.12024308  1
  O  O367  1  0.50604808  0.50437949  0.61879614  1
  O  O368  1  0.24741625  0.38073205  0.24687723  1
  O  O369  1  0.24778584  0.38711241  0.74747748  1
  O  O370  1  0.24488327  0.88180371  0.24541106  1
  O  O371  1  0.24090722  0.88009246  0.74475352  1
  O  O372  1  0.74497125  0.38055959  0.24498258  1
  O  O373  1  0.74263508  0.37519174  0.74332105  1
  O  O374  1  0.74181945  0.87473065  0.24327663  1
  O  O375  1  0.74209164  0.88107024  0.74295986  1
  O  O376  1  0.25546124  0.12052901  0.25595282  1
  O  O377  1  0.25672317  0.11870270  0.75000386  1
  O  O378  1  0.25668360  0.62000044  0.25636126  1
  O  O379  1  0.25117087  0.61193454  0.75174838  1
  O  O380  1  0.75131028  0.12534200  0.26350025  1
  O  O381  1  0.74691745  0.11228503  0.74924572  1
  O  O382  1  0.75504197  0.61981179  0.25462708  1
  O  O383  1  0.75791692  0.62258893  0.75545533  1
  O  O384  1  0.36984268  0.11912815  0.37026980  1
  O  O385  1  0.37406025  0.11834860  0.86772743  1
  O  O386  1  0.37034468  0.62021992  0.37036390  1
  O  O387  1  0.37392660  0.61627513  0.87238836  1
  O  O388  1  0.86733293  0.11808918  0.37401855  1
  O  O389  1  0.86754255  0.11756030  0.86996232  1
  O  O390  1  0.86923745  0.61982811  0.36769962  1
  O  O391  1  0.87083972  0.61999984  0.86743725  1
  O  O392  1  0.13368909  0.38217634  0.13236730  1
  O  O393  1  0.12492918  0.38786500  0.62564864  1
  O  O394  1  0.13083063  0.88438984  0.13139253  1
  O  O395  1  0.12965383  0.87400115  0.63506119  1
  O  O396  1  0.63059772  0.38184011  0.13052789  1
  O  O397  1  0.62887498  0.37884603  0.63000388  1
  O  O398  1  0.62930768  0.87950594  0.13009765  1
  O  O399  1  0.62862655  0.87997364  0.62996474  1
  O  O400  1  0.12117404  0.25614472  0.25577646  1
  O  O401  1  0.11295830  0.25368447  0.74826393  1
  O  O402  1  0.12073442  0.75569431  0.25553733  1
  O  O403  1  0.12379922  0.75908014  0.75781024  1
  O  O404  1  0.62032535  0.25670607  0.25596901  1
  O  O405  1  0.61808177  0.25474992  0.75428529  1
  O  O406  1  0.61897062  0.75471102  0.25502389  1
  O  O407  1  0.61955475  0.75494799  0.75569268  1
  O  O408  1  0.38276522  0.24364691  0.25078940  1
  O  O409  1  0.38027246  0.24585343  0.74514777  1
  O  O410  1  0.38101817  0.74519161  0.24564931  1
  O  O411  1  0.38262884  0.74844658  0.74828769  1
  O  O412  1  0.88931321  0.25090212  0.24909065  1
  O  O413  1  0.88190416  0.24922968  0.74092976  1
  O  O414  1  0.88009961  0.74480454  0.24477017  1
  O  O415  1  0.87530958  0.73601112  0.74836961  1
  O  O416  1  0.38069935  0.49536326  0.49474517  1
  O  O417  1  0.38219269  0.49523084  0.99574480  1
  O  O418  1  0.37815752  0.99412122  0.49406606  1
  O  O419  1  0.37715524  0.99347914  0.99373415  1
  O  O420  1  0.87760880  0.49780691  0.49064423  1
  O  O421  1  0.88113497  0.49334811  0.99454137  1
  O  O422  1  0.87564862  0.99809841  0.48705741  1
  O  O423  1  0.88636348  0.99872956  1.00221104  1
  O  O424  1  0.11887602  -0.00088826  0.00995445  1
  O  O425  1  0.12417386  0.01238696  0.49956003  1
  O  O426  1  0.11917052  0.49764440  0.00691320  1
  O  O427  1  0.12558698  0.50677205  0.51036912  1
  O  O428  1  0.62261375  0.00669219  0.00697949  1
  O  O429  1  0.61623159  0.00025837  0.50556572  1
  O  O430  1  0.62036811  0.50557458  0.00516259  1
  O  O431  1  0.61956262  0.50473765  0.50422770  1
  O  O432  1  0.37070043  0.37502758  0.11936297  1
  O  O433  1  0.37568978  0.36836532  0.61774659  1
  O  O434  1  0.37110786  0.87106657  0.12113723  1
  O  O435  1  0.36660187  0.87302697  0.61757780  1
  O  O436  1  0.86837208  0.37338828  0.11833441  1
  O  O437  1  0.86878044  0.36475914  0.62461038  1
  O  O438  1  0.86706835  0.86791907  0.12479433  1
  O  O439  1  0.86535009  0.86995323  0.62196318  1
  O  O440  1  0.13174528  0.13114774  0.38228131  1
  O  O441  1  0.13146721  0.13171052  0.87938130  1
  O  O442  1  0.13072472  0.63004013  0.37960191  1
  O  O443  1  0.12585737  0.63644142  0.87471524  1
  O  O444  1  0.63388714  0.13068221  0.37583091  1
  O  O445  1  0.62439082  0.13193020  0.88149998  1
  O  O446  1  0.63028953  0.62974870  0.37926149  1
  O  O447  1  0.62992300  0.62981795  0.88031440  1
