# generated using pymatgen
data_V3Zn3O8
_symmetry_space_group_name_H-M   'P 1'
_cell_length_a   17.09240811
_cell_length_b   17.09114899
_cell_length_c   17.09176939
_cell_angle_alpha   89.98891811
_cell_angle_beta   90.01060797
_cell_angle_gamma   90.00355813
_symmetry_Int_Tables_number   1
_chemical_formula_structural   V3Zn3O8
_chemical_formula_sum   'V96 Zn96 O256'
_cell_volume   4992.99949356
_cell_formula_units_Z   32
loop_
 _symmetry_equiv_pos_site_id
 _symmetry_equiv_pos_as_xyz
  1  'x, y, z'
loop_
 _atom_site_type_symbol
 _atom_site_label
 _atom_site_symmetry_multiplicity
 _atom_site_fract_x
 _atom_site_fract_y
 _atom_site_fract_z
 _atom_site_occupancy
  V  V0  1  0.87402124  -0.00044159  0.87553909  1
  V  V1  1  -0.00013487  0.62576194  0.62467268  1
  V  V2  1  0.62514917  0.24937733  0.87568324  1
  V  V3  1  0.87556873  0.25090146  0.12439795  1
  V  V4  1  0.87610363  0.12552586  0.75046922  1
  V  V5  1  0.25100751  0.62436513  0.37523323  1
  V  V6  1  0.87402379  0.87486025  -0.00007272  1
  V  V7  1  0.00083313  0.62481505  0.12359202  1
  V  V8  1  0.50052699  0.62502264  0.62337357  1
  V  V9  1  0.00099877  0.87406232  0.87629036  1
  V  V10  1  0.12582833  0.37466525  0.74896480  1
  V  V11  1  0.49866338  0.87446560  0.87608317  1
  V  V12  1  0.37666264  0.37622220  0.49876385  1
  V  V13  1  0.75005659  0.62485694  0.87440780  1
  V  V14  1  0.00077494  0.12526976  0.12452919  1
  V  V15  1  0.37590008  0.49998536  0.87363173  1
  V  V16  1  0.12468447  0.75037741  0.37672902  1
  V  V17  1  0.24928238  0.87415997  0.12457194  1
  V  V18  1  0.62488984  0.74867892  0.87504210  1
  V  V19  1  0.12560081  0.25091399  0.87597848  1
  V  V20  1  0.62437661  0.87469263  0.74979405  1
  V  V21  1  0.74984467  -0.00074806  0.75120419  1
  V  V22  1  0.50110385  0.12440108  0.62493521  1
  V  V23  1  0.74927053  0.87484746  0.62475091  1
  V  V24  1  0.62568766  0.37430778  0.24997545  1
  V  V25  1  0.00038711  0.87525481  0.37501392  1
  V  V26  1  0.37529450  0.00047946  0.37520078  1
  V  V27  1  0.50100896  0.49969351  0.00079941  1
  V  V28  1  0.87560797  0.62395386  0.25053277  1
  V  V29  1  0.24991807  0.24978360  -0.00026229  1
  V  V30  1  0.00043997  0.37535189  0.87415288  1
  V  V31  1  -0.00017640  0.25043199  0.24988774  1
  V  V32  1  0.37471379  0.87616820  0.50016955  1
  V  V33  1  0.74942093  0.24910093  -0.00011010  1
  V  V34  1  0.49940722  0.12387183  0.12461810  1
  V  V35  1  0.62403224  -0.00007070  0.62524604  1
  V  V36  1  0.87606478  0.24864206  0.62583638  1
  V  V37  1  0.12468620  0.12497439  0.49999410  1
  V  V38  1  0.12584626  0.24968548  0.37528010  1
  V  V39  1  0.49995289  0.75010589  0.24981950  1
  V  V40  1  0.87529737  0.37396505  0.50092969  1
  V  V41  1  0.37497468  0.25014075  0.12489765  1
  V  V42  1  0.87465785  0.12521398  0.24957089  1
  V  V43  1  0.62490293  0.62433534  0.49951530  1
  V  V44  1  -0.00120575  0.74952719  0.25043524  1
  V  V45  1  0.12562165  0.37523726  0.24983711  1
  V  V46  1  0.62408191  0.12459855  -0.00004452  1
  V  V47  1  0.37374154  0.74913037  0.12490093  1
  V  V48  1  0.74892349  0.74980214  -0.00036206  1
  V  V49  1  0.24880394  0.62579903  0.87540191  1
  V  V50  1  0.49969303  0.62485616  0.12543961  1
  V  V51  1  -0.00031222  0.75040846  0.75115021  1
  V  V52  1  0.24987617  0.37611291  0.12548118  1
  V  V53  1  0.87544161  0.75058034  0.62406919  1
  V  V54  1  0.75157223  0.49996416  0.24946657  1
  V  V55  1  0.74915347  0.87385879  0.12556499  1
  V  V56  1  0.00005392  0.50019112  0.50130842  1
  V  V57  1  0.37546391  0.37435682  -0.00014462  1
  V  V58  1  0.00094482  0.37479442  0.37598735  1
  V  V59  1  0.12378947  0.87564508  0.24984610  1
  V  V60  1  0.37518024  0.12488174  0.25110587  1
  V  V61  1  0.87568996  0.37509983  -0.00148526  1
  V  V62  1  0.62650335  0.12524597  0.50044213  1
  V  V63  1  0.37539515  0.12492759  0.75030966  1
  V  V64  1  0.25096136  0.12552231  0.37516552  1
  V  V65  1  0.00072714  0.00122071  0.50087775  1
  V  V66  1  0.87561842  0.49971264  0.37451731  1
  V  V67  1  0.37563672  0.62397695  0.74929536  1
  V  V68  1  0.62630309  0.37548829  0.74847265  1
  V  V69  1  0.50016605  0.37470000  0.87455466  1
  V  V70  1  0.12582213  0.50108485  0.12403082  1
  V  V71  1  0.74966573  0.37581729  0.62585948  1
  V  V72  1  0.87378505  0.50048265  0.87263096  1
  V  V73  1  0.49854573  0.87521928  0.37489117  1
  V  V74  1  0.50094390  0.37569362  0.37486899  1
  V  V75  1  0.37414342  0.75063226  0.62511562  1
  V  V76  1  0.24830786  0.00089784  0.75107455  1
  V  V77  1  0.74960282  0.75085142  0.49847528  1
  V  V78  1  0.12407731  0.00008306  0.12532041  1
  V  V79  1  0.62490701  0.50029920  0.12436331  1
  V  V80  1  0.74842175  -0.00007286  0.24932111  1
  V  V81  1  0.62397005  0.75118571  0.37405471  1
  V  V82  1  0.25061173  0.37603287  0.62457786  1
  V  V83  1  0.49881808  -0.00035809  0.00024615  1
  V  V84  1  0.50135728  0.25011936  0.24931144  1
  V  V85  1  0.87498784  0.87607215  0.49953550  1
  V  V86  1  0.37708320  0.25078580  0.62519833  1
  V  V87  1  0.12406741  0.62535258  0.50111719  1
  V  V88  1  0.24803954  0.87617916  0.62576627  1
  V  V89  1  0.49998448  0.74970862  0.75041028  1
  V  V90  1  0.75087753  0.37536380  0.12477702  1
  V  V91  1  0.12466901  0.12622957  0.00093576  1
  V  V92  1  0.87467479  0.00037682  0.37438002  1
  V  V93  1  0.75039085  0.24866800  0.49950054  1
  V  V94  1  0.37463506  -0.00066608  0.87594339  1
  V  V95  1  0.50094949  0.24990510  0.75044229  1
  Zn  Zn96  1  0.00090983  0.24815756  0.74910610  1
  Zn  Zn97  1  0.50062702  0.00077757  0.49991016  1
  Zn  Zn98  1  0.24857584  0.75037698  0.50156505  1
  Zn  Zn99  1  0.00121718  0.50137651  -0.00257055  1
  Zn  Zn100  1  0.75016248  0.62564404  0.37349692  1
  Zn  Zn101  1  0.37395638  0.87460190  0.00011248  1
  Zn  Zn102  1  0.62797260  0.24790671  0.37436084  1
  Zn  Zn103  1  0.62261743  -0.00049764  0.12510418  1
  Zn  Zn104  1  0.62575230  0.49968161  0.62455665  1
  Zn  Zn105  1  0.12496713  0.62608430  -0.00247907  1
  Zn  Zn106  1  0.24930482  0.12508347  0.87572620  1
  Zn  Zn107  1  0.87321599  0.62386754  0.74774047  1
  Zn  Zn108  1  0.25220567  0.50031781  0.25084010  1
  Zn  Zn109  1  0.74952140  0.12390320  0.87653335  1
  Zn  Zn110  1  0.37508107  0.50116440  0.37243668  1
  Zn  Zn111  1  0.62357817  0.87560424  0.25009112  1
  Zn  Zn112  1  0.12498289  0.50070892  0.62536933  1
  Zn  Zn113  1  0.25089969  0.50088804  0.74916160  1
  Zn  Zn114  1  0.00263675  0.12459122  0.62547262  1
  Zn  Zn115  1  0.25018348  0.24965904  0.49932494  1
  Zn  Zn116  1  0.87457529  0.74830538  0.12519935  1
  Zn  Zn117  1  0.37448488  0.62204627  0.25164404  1
  Zn  Zn118  1  0.24949067  0.00069976  0.25058069  1
  Zn  Zn119  1  -0.00108451  0.00019569  0.00063708  1
  Zn  Zn120  1  0.74895205  0.12598065  0.37482799  1
  Zn  Zn121  1  0.12573762  0.74936175  0.87709287  1
  Zn  Zn122  1  0.24748027  0.74972028  -0.00120606  1
  Zn  Zn123  1  0.62508739  0.62429226  -0.00039116  1
  Zn  Zn124  1  0.12409275  0.87684299  0.75160203  1
  Zn  Zn125  1  0.12294025  0.00267158  0.62632322  1
  Zn  Zn126  1  0.50165539  0.50105011  0.49888177  1
  Zn  Zn127  1  0.74803352  0.50237786  0.74704061  1
  Zn  Zn128  1  0.18841868  0.18779222  0.18830043  1
  Zn  Zn129  1  0.18874832  0.18848576  0.68566571  1
  Zn  Zn130  1  0.18670337  0.68825693  0.19083031  1
  Zn  Zn131  1  0.18586016  0.68840289  0.69012827  1
  Zn  Zn132  1  0.68651392  0.18694027  0.18565177  1
  Zn  Zn133  1  0.68957124  0.18785124  0.68714119  1
  Zn  Zn134  1  0.68624596  0.68655654  0.18777535  1
  Zn  Zn135  1  0.68826391  0.68702753  0.68752579  1
  Zn  Zn136  1  0.31226720  0.31151878  0.31197838  1
  Zn  Zn137  1  0.31180349  0.31189545  0.81234657  1
  Zn  Zn138  1  0.31162366  0.81101990  0.31169426  1
  Zn  Zn139  1  0.31363026  0.81194977  0.81168472  1
  Zn  Zn140  1  0.81248483  0.31213504  0.31391284  1
  Zn  Zn141  1  0.81057414  0.31190803  0.81242182  1
  Zn  Zn142  1  0.81280187  0.81146044  0.31219577  1
  Zn  Zn143  1  0.81319533  0.81169092  0.81250991  1
  Zn  Zn144  1  0.18747877  0.43941901  0.43931935  1
  Zn  Zn145  1  0.18889136  0.43960694  0.93753334  1
  Zn  Zn146  1  0.18818172  0.94015002  0.43805774  1
  Zn  Zn147  1  0.18555766  0.93836977  0.93989090  1
  Zn  Zn148  1  0.68923608  0.43759777  0.43679984  1
  Zn  Zn149  1  0.68798396  0.43740446  0.93677792  1
  Zn  Zn150  1  0.68566206  0.93822253  0.43676300  1
  Zn  Zn151  1  0.68559567  0.93766278  0.93774111  1
  Zn  Zn152  1  0.31127041  0.06190065  0.06286543  1
  Zn  Zn153  1  0.31245592  0.06265113  0.56132817  1
  Zn  Zn154  1  0.31348329  0.56260040  0.06082576  1
  Zn  Zn155  1  0.31240512  0.56136331  0.56033003  1
  Zn  Zn156  1  0.81253184  0.06210922  0.06240187  1
  Zn  Zn157  1  0.81212563  0.06255756  0.56378782  1
  Zn  Zn158  1  0.81314043  0.56253702  0.06017833  1
  Zn  Zn159  1  0.81200329  0.56244251  0.56198487  1
  Zn  Zn160  1  0.43617063  0.43955166  0.18935073  1
  Zn  Zn161  1  0.44103369  0.44028609  0.68597043  1
  Zn  Zn162  1  0.43619917  0.93735917  0.18918517  1
  Zn  Zn163  1  0.43638973  0.93829255  0.68820832  1
  Zn  Zn164  1  0.93890816  0.43802770  0.18746674  1
  Zn  Zn165  1  0.93817899  0.43662888  0.68761899  1
  Zn  Zn166  1  0.93635224  0.93782253  0.18651103  1
  Zn  Zn167  1  0.93731226  0.93878384  0.68718856  1
  Zn  Zn168  1  0.06301446  0.06234830  0.31269720  1
  Zn  Zn169  1  0.06208576  0.06244995  0.81560538  1
  Zn  Zn170  1  0.06424775  0.56203842  0.31227583  1
  Zn  Zn171  1  0.06205668  0.56137931  0.80939248  1
  Zn  Zn172  1  0.56294384  0.06262076  0.31464577  1
  Zn  Zn173  1  0.56192941  0.06223884  0.81373947  1
  Zn  Zn174  1  0.56227263  0.56275339  0.31161955  1
  Zn  Zn175  1  0.56385948  0.56169427  0.81146035  1
  Zn  Zn176  1  0.43980889  0.18885497  0.43797451  1
  Zn  Zn177  1  0.43693935  0.18602970  0.93689062  1
  Zn  Zn178  1  0.43613911  0.69084923  0.43864799  1
  Zn  Zn179  1  0.43623020  0.68656587  0.93967791  1
  Zn  Zn180  1  0.93727182  0.18611707  0.43711338  1
  Zn  Zn181  1  0.93911181  0.18839445  0.93618698  1
  Zn  Zn182  1  0.93738542  0.68703252  0.43723957  1
  Zn  Zn183  1  0.93439421  0.68731182  0.93911592  1
  Zn  Zn184  1  0.06180353  0.31383731  0.06129158  1
  Zn  Zn185  1  0.06149589  0.30908550  0.56330950  1
  Zn  Zn186  1  0.06462253  0.80897804  0.06001178  1
  Zn  Zn187  1  0.06336400  0.81388742  0.56289984  1
  Zn  Zn188  1  0.56286581  0.31225515  0.06286115  1
  Zn  Zn189  1  0.56459815  0.31087432  0.56211806  1
  Zn  Zn190  1  0.56310469  0.81265986  0.06179757  1
  Zn  Zn191  1  0.56096724  0.81207263  0.56091205  1
  O  O192  1  0.11985882  0.12093760  0.12132279  1
  O  O193  1  0.12425502  0.12396354  0.61622483  1
  O  O194  1  0.11708768  0.61686578  0.12766728  1
  O  O195  1  0.11856876  0.62402381  0.61994780  1
  O  O196  1  0.61674008  0.12366916  0.11780840  1
  O  O197  1  0.62042939  0.11927552  0.62151444  1
  O  O198  1  0.61826446  0.61758504  0.12298532  1
  O  O199  1  0.61973514  0.62789866  0.61390830  1
  O  O200  1  0.38320023  0.37305255  0.38297536  1
  O  O201  1  0.38083063  0.37910859  0.87985783  1
  O  O202  1  0.37816386  0.87951124  0.37991245  1
  O  O203  1  0.38123707  0.88069241  0.87672495  1
  O  O204  1  0.88203339  0.37971383  0.38072619  1
  O  O205  1  0.87938378  0.38131378  0.87868319  1
  O  O206  1  0.88098689  0.88022614  0.38007441  1
  O  O207  1  0.88210241  0.87943782  0.87965514  1
  O  O208  1  0.25724873  0.00712426  0.37238437  1
  O  O209  1  0.25482191  -0.00040874  0.86592679  1
  O  O210  1  0.24949058  0.51188165  0.37448822  1
  O  O211  1  0.25821129  0.50785032  0.87267813  1
  O  O212  1  0.75612121  -0.00117613  0.36404662  1
  O  O213  1  0.75575835  -0.00017510  0.86836175  1
  O  O214  1  0.75788951  0.50051800  0.36711128  1
  O  O215  1  0.75892698  0.50475687  0.87397518  1
  O  O216  1  0.24076269  0.49533213  0.12476916  1
  O  O217  1  0.24934291  0.48684535  0.62652527  1
  O  O218  1  0.24409898  0.99021488  0.12747457  1
  O  O219  1  0.25206039  0.99184500  0.63514391  1
  O  O220  1  0.74579883  0.49415690  0.12935180  1
  O  O221  1  0.74860396  0.49153962  0.62644454  1
  O  O222  1  0.75009126  0.99122248  0.13338870  1
  O  O223  1  0.74423136  0.99309670  0.63141398  1
  O  O224  1  0.00539809  0.36962428  0.25575886  1
  O  O225  1  0.01060335  0.37282925  0.75465148  1
  O  O226  1  0.00356522  0.86979904  0.25523926  1
  O  O227  1  -0.00153691  0.86804750  0.75900097  1
  O  O228  1  0.50521196  0.36995489  0.25618553  1
  O  O229  1  0.50503874  0.36868864  0.75501688  1
  O  O230  1  0.50129474  0.86837796  0.25614897  1
  O  O231  1  0.50461901  0.86944615  0.75548436  1
  O  O232  1  0.49514955  0.13043484  0.24484051  1
  O  O233  1  0.49524648  0.13047692  0.74487397  1
  O  O234  1  0.49811058  0.63211100  0.24333914  1
  O  O235  1  0.49559316  0.63106621  0.74434382  1
  O  O236  1  0.99472525  0.13131336  0.24459296  1
  O  O237  1  0.98753378  0.12460539  0.74976498  1
  O  O238  1  0.99604226  0.62901478  0.24263767  1
  O  O239  1  0.99716227  0.63465989  0.74428163  1
  O  O240  1  0.37052613  0.25500759  0.00523199  1
  O  O241  1  0.37538772  0.26119280  0.50627053  1
  O  O242  1  0.37261586  0.75263211  0.01365629  1
  O  O243  1  0.37127659  0.75824996  0.50851036  1
  O  O244  1  0.86974360  0.25516402  0.00504590  1
  O  O245  1  0.87102089  0.25499909  0.50534483  1
  O  O246  1  0.86655900  0.75708364  0.00276808  1
  O  O247  1  0.87028209  0.75696945  0.50381319  1
  O  O248  1  0.12580045  0.24356092  0.49206528  1
  O  O249  1  0.13087725  0.24654441  0.99597731  1
  O  O250  1  0.12514933  0.74391869  0.49398998  1
  O  O251  1  0.12974936  0.74330907  0.99481382  1
  O  O252  1  0.63302099  0.24253668  0.49982472  1
  O  O253  1  0.62946583  0.24499586  0.99541826  1
  O  O254  1  0.62975521  0.74294266  0.49461096  1
  O  O255  1  0.63110252  0.74875881  0.99217314  1
  O  O256  1  0.49387328  0.24480461  0.12949112  1
  O  O257  1  0.49588301  0.24458457  0.63174074  1
  O  O258  1  0.49263239  0.74620350  0.12899439  1
  O  O259  1  0.49405685  0.74541540  0.63116369  1
  O  O260  1  0.99483354  0.24609668  0.13065102  1
  O  O261  1  0.99129522  0.24610483  0.62908275  1
  O  O262  1  0.99992224  0.73980480  0.13173054  1
  O  O263  1  0.99475772  0.74752808  0.63217530  1
  O  O264  1  0.00482796  0.25574018  0.36896476  1
  O  O265  1  0.00769403  0.25782666  0.87214974  1
  O  O266  1  0.00471562  0.75613889  0.37032325  1
  O  O267  1  -0.00371757  0.75775268  0.86698694  1
  O  O268  1  0.50218008  0.26061153  0.36800646  1
  O  O269  1  0.50486061  0.25559403  0.87000530  1
  O  O270  1  0.50361440  0.75595358  0.36915762  1
  O  O271  1  0.50402776  0.75407938  0.86987151  1
  O  O272  1  0.24411416  0.12774701  0.49333933  1
  O  O273  1  0.24298596  0.13236188  0.99983878  1
  O  O274  1  0.24291245  0.62699095  0.49291120  1
  O  O275  1  0.25098181  0.62544311  0.98636982  1
  O  O276  1  0.74469260  0.13073307  0.49997104  1
  O  O277  1  0.74339753  0.13159421  0.99993327  1
  O  O278  1  0.74116503  0.63245901  0.49823124  1
  O  O279  1  0.74837545  0.63187829  0.99340630  1
  O  O280  1  0.25615024  0.36995347  0.00572006  1
  O  O281  1  0.25839649  0.37314286  0.50753963  1
  O  O282  1  0.25063802  0.87348141  0.01334079  1
  O  O283  1  0.25499523  0.87583253  0.51113650  1
  O  O284  1  0.75555142  0.36900568  0.00590111  1
  O  O285  1  0.75653185  0.36941951  0.50526227  1
  O  O286  1  0.75374496  0.87066385  0.00746146  1
  O  O287  1  0.75511733  0.87080784  0.50525935  1
  O  O288  1  0.12583355  0.49357101  0.23945797  1
  O  O289  1  0.12756279  0.48590449  0.74674608  1
  O  O290  1  0.12605031  0.99309652  0.24360044  1
  O  O291  1  0.13679400  1.00000048  0.74963233  1
  O  O292  1  0.63124156  0.49401108  0.24405359  1
  O  O293  1  0.62702478  0.49072041  0.74727731  1
  O  O294  1  0.63699158  0.99845651  0.24816474  1
  O  O295  1  0.62984142  0.99401873  0.74565205  1
  O  O296  1  0.37311003  0.00778111  0.25690597  1
  O  O297  1  0.36708272  0.00509797  0.75564663  1
  O  O298  1  0.36966518  0.50390108  0.25394800  1
  O  O299  1  0.37600102  0.50637294  0.75620428  1
  O  O300  1  0.86702487  0.00490460  0.25402581  1
  O  O301  1  0.86913068  0.00649762  0.75497766  1
  O  O302  1  0.87104524  0.50362478  0.25520010  1
  O  O303  1  0.87343715  0.49964633  0.76245867  1
  O  O304  1  0.12010481  0.37024330  0.37039955  1
  O  O305  1  0.12208235  0.37167721  0.86769727  1
  O  O306  1  0.11974707  0.87082818  0.37043895  1
  O  O307  1  0.11217660  0.87402157  0.87421395  1
  O  O308  1  0.61668093  0.37375350  0.36900852  1
  O  O309  1  0.61891649  0.36876239  0.87020235  1
  O  O310  1  0.61710309  0.86858976  0.37439640  1
  O  O311  1  0.61884174  0.86895379  0.86845521  1
  O  O312  1  0.37967313  0.13097907  0.13053822  1
  O  O313  1  0.38049649  0.13084450  0.63025585  1
  O  O314  1  0.37954568  0.63415684  0.12616873  1
  O  O315  1  0.37927152  0.63020082  0.62872738  1
  O  O316  1  0.88070771  0.13144842  0.12975571  1
  O  O317  1  0.87521631  0.12935088  0.63568703  1
  O  O318  1  0.88549305  0.62309288  0.13109711  1
  O  O319  1  0.88147978  0.63313419  0.62445009  1
  O  O320  1  0.25551489  0.25631749  0.11959573  1
  O  O321  1  0.25831255  0.26157127  0.62363988  1
  O  O322  1  0.25692402  0.75717886  0.12663726  1
  O  O323  1  0.25516426  0.76121035  0.62793230  1
  O  O324  1  0.75619433  0.25609782  0.11994683  1
  O  O325  1  0.75701235  0.25578597  0.61918997  1
  O  O326  1  0.75062556  0.75873339  0.12044058  1
  O  O327  1  0.75520741  0.75653458  0.61895124  1
  O  O328  1  0.24321455  0.24399071  0.37606240  1
  O  O329  1  0.24399693  0.24916977  0.88233428  1
  O  O330  1  0.24262796  0.74209696  0.37755499  1
  O  O331  1  0.25015091  0.73877596  0.87409050  1
  O  O332  1  0.74896595  0.24755791  0.38312328  1
  O  O333  1  0.74273794  0.24877474  0.88299668  1
  O  O334  1  0.74347678  0.74930945  0.38115709  1
  O  O335  1  0.74480709  0.74564870  0.87964670  1
  O  O336  1  0.00636915  0.12539970  0.00744224  1
  O  O337  1  0.00633888  0.11828791  0.49960528  1
  O  O338  1  0.00016243  0.62332944  0.01243625  1
  O  O339  1  0.00454046  0.62016434  0.50520326  1
  O  O340  1  0.50409989  0.11990902  0.00545600  1
  O  O341  1  0.50715394  0.12463738  0.50804248  1
  O  O342  1  0.50122222  0.61711346  0.00677018  1
  O  O343  1  0.50964014  0.62711680  0.50409361  1
  O  O344  1  0.49377853  0.37401929  0.49186524  1
  O  O345  1  0.49454828  0.37919924  0.99457120  1
  O  O346  1  0.49247211  0.87657765  0.49362478  1
  O  O347  1  0.49861017  0.88141385  0.99357596  1
  O  O348  1  0.99479831  0.37957406  0.49530047  1
  O  O349  1  0.99309455  0.37721797  0.99277052  1
  O  O350  1  0.99446000  0.88028797  0.49415867  1
  O  O351  1  0.99320541  0.87358942  0.99112879  1
  O  O352  1  0.49850335  0.48709282  0.37618748  1
  O  O353  1  0.49539851  0.49395765  0.88054979  1
  O  O354  1  0.49302916  0.99320780  0.37629173  1
  O  O355  1  0.49415070  0.99378725  0.87953313  1
  O  O356  1  0.99570869  0.49385614  0.38046980  1
  O  O357  1  0.99088602  0.49500783  0.87555321  1
  O  O358  1  0.99398067  0.99389086  0.37937367  1
  O  O359  1  0.99345368  0.98891675  0.87625088  1
  O  O360  1  0.00557083  0.00684449  0.12390332  1
  O  O361  1  0.00242011  0.00139200  0.61682288  1
  O  O362  1  0.00876458  0.50801256  0.12491893  1
  O  O363  1  -0.00013896  0.50704058  0.61872970  1
  O  O364  1  0.49967644  0.00592809  0.11929900  1
  O  O365  1  0.50645323  0.00649118  0.62569729  1
  O  O366  1  0.50513086  0.50425098  0.12027049  1
  O  O367  1  0.50433352  0.50944656  0.61945304  1
  O  O368  1  0.24282147  0.37505217  0.24283148  1
  O  O369  1  0.24381126  0.37562793  0.74142362  1
  O  O370  1  0.24269403  0.87505123  0.23988906  1
  O  O371  1  0.25040873  0.88420415  0.74265966  1
  O  O372  1  0.74638306  0.38000551  0.24374300  1
  O  O373  1  0.74331591  0.37460575  0.74305767  1
  O  O374  1  0.75121892  0.88315944  0.24167044  1
  O  O375  1  0.74415914  0.87896745  0.74449030  1
  O  O376  1  0.25762056  0.12490617  0.25642109  1
  O  O377  1  0.25651929  0.11598802  0.74997280  1
  O  O378  1  0.24959571  0.62466030  0.26374363  1
  O  O379  1  0.25680430  0.62301593  0.75735868  1
  O  O380  1  0.75595216  0.11530099  0.24776205  1
  O  O381  1  0.75971485  0.11847461  0.75211175  1
  O  O382  1  0.75700969  0.61765057  0.25021203  1
  O  O383  1  0.75368233  0.62379522  0.75752581  1
  O  O384  1  0.37148114  0.12165682  0.37063659  1
  O  O385  1  0.37291392  0.11840609  0.86776421  1
  O  O386  1  0.36343835  0.62535514  0.37700288  1
  O  O387  1  0.36914551  0.61995184  0.86897307  1
  O  O388  1  0.87334247  0.11784706  0.36680524  1
  O  O389  1  0.87377077  0.11928060  0.86701467  1
  O  O390  1  0.87487344  0.61732016  0.36868929  1
  O  O391  1  0.86984049  0.61524601  0.87418102  1
  O  O392  1  0.12893431  0.38267845  0.12925809  1
  O  O393  1  0.13420462  0.37267695  0.63160900  1
  O  O394  1  0.13084858  0.87870167  0.12987471  1
  O  O395  1  0.13695478  0.87828320  0.62750385  1
  O  O396  1  0.63099043  0.38015333  0.13032613  1
  O  O397  1  0.63158463  0.37487034  0.63054355  1
  O  O398  1  0.63766018  0.87716549  0.12670256  1
  O  O399  1  0.62935991  0.87906553  0.63043112  1
  O  O400  1  0.11852024  0.25554319  0.25476514  1
  O  O401  1  0.12645976  0.26018184  0.75576654  1
  O  O402  1  0.11745884  0.75648030  0.25675061  1
  O  O403  1  0.11043484  0.75379051  0.75307134  1
  O  O404  1  0.61922216  0.25684428  0.24959134  1
  O  O405  1  0.61970373  0.25443293  0.75558296  1
  O  O406  1  0.61849973  0.75154535  0.25647447  1
  O  O407  1  0.61925109  0.75590072  0.75474713  1
  O  O408  1  0.38164830  0.24512638  0.24376763  1
  O  O409  1  0.38139158  0.24517053  0.74542467  1
  O  O410  1  0.38055439  0.74849487  0.23908706  1
  O  O411  1  0.38176151  0.74395173  0.74415299  1
  O  O412  1  0.88018583  0.24581083  0.24379058  1
  O  O413  1  0.87430741  0.23992315  0.74607184  1
  O  O414  1  0.88169680  0.74268439  0.24862185  1
  O  O415  1  0.88506500  0.75058463  0.74312144  1
  O  O416  1  0.37784681  0.48612431  0.49743297  1
  O  O417  1  0.38161397  0.49283507  0.99450134  1
  O  O418  1  0.37729881  0.99399476  0.49335623  1
  O  O419  1  0.38074454  0.99911868  0.99373201  1
  O  O420  1  0.88038854  0.49371194  0.49411040  1
  O  O421  1  0.87569956  0.49336191  0.98857848  1
  O  O422  1  0.87909811  0.99457613  0.49436604  1
  O  O423  1  0.87630898  0.99331603  0.99363683  1
  O  O424  1  0.12181189  0.00795673  0.00747717  1
  O  O425  1  0.11825870  0.00777511  0.49988191  1
  O  O426  1  0.12273921  0.50187219  0.01244221  1
  O  O427  1  0.11661075  0.50623307  0.50295206  1
  O  O428  1  0.61709859  0.00673039  0.00083570  1
  O  O429  1  0.62417140  0.00624027  0.50815937  1
  O  O430  1  0.61852545  0.49909352  0.00686626  1
  O  O431  1  0.62561810  0.51355897  0.49942800  1
  O  O432  1  0.37033375  0.36958742  0.11930950  1
  O  O433  1  0.37055337  0.37104416  0.61851192  1
  O  O434  1  0.36538154  0.86702103  0.12605287  1
  O  O435  1  0.36680692  0.87112145  0.62170009  1
  O  O436  1  0.87083953  0.37045236  0.11958526  1
  O  O437  1  0.87065932  0.36879067  0.61983276  1
  O  O438  1  0.86456839  0.87342665  0.11972631  1
  O  O439  1  0.86872627  0.87061924  0.61880635  1
  O  O440  1  0.13039228  0.13044112  0.37919758  1
  O  O441  1  0.12627241  0.13237183  0.88232879  1
  O  O442  1  0.13052042  0.63061208  0.38088540  1
  O  O443  1  0.13655275  0.62278541  0.87363359  1
  O  O444  1  0.62795714  0.12714949  0.38388156  1
  O  O445  1  0.62534969  0.13195895  0.88147854  1
  O  O446  1  0.62539737  0.63164511  0.38394066  1
  O  O447  1  0.63097507  0.63153458  0.87623717  1
