# generated using pymatgen
data_V3Zn3O8
_symmetry_space_group_name_H-M   'P 1'
_cell_length_a   17.08904653
_cell_length_b   17.08799595
_cell_length_c   17.08946761
_cell_angle_alpha   90.00164315
_cell_angle_beta   89.99919479
_cell_angle_gamma   89.99291784
_symmetry_Int_Tables_number   1
_chemical_formula_structural   V3Zn3O8
_chemical_formula_sum   'V96 Zn96 O256'
_cell_volume   4990.42455620
_cell_formula_units_Z   32
loop_
 _symmetry_equiv_pos_site_id
 _symmetry_equiv_pos_as_xyz
  1  'x, y, z'
loop_
 _atom_site_type_symbol
 _atom_site_label
 _atom_site_symmetry_multiplicity
 _atom_site_fract_x
 _atom_site_fract_y
 _atom_site_fract_z
 _atom_site_occupancy
  V  V0  1  -0.00117177  0.25084531  0.74957836  1
  V  V1  1  0.37529720  0.12483333  0.25032855  1
  V  V2  1  0.00110775  0.75082410  0.24857699  1
  V  V3  1  0.25099759  0.12552424  0.37521035  1
  V  V4  1  0.49721404  0.49870619  0.00175142  1
  V  V5  1  0.37513388  0.75088315  0.62440104  1
  V  V6  1  -0.00267449  0.50034369  -0.00155534  1
  V  V7  1  0.37690915  -0.00060863  0.37509456  1
  V  V8  1  0.62530355  0.12493728  0.50183558  1
  V  V9  1  0.37133822  0.25240824  0.12414273  1
  V  V10  1  0.62459292  0.62404341  0.00026727  1
  V  V11  1  -0.00123880  0.87623081  0.87427755  1
  V  V12  1  0.87383022  0.62399365  0.74969459  1
  V  V13  1  0.37416094  0.75051819  0.12496360  1
  V  V14  1  0.37484510  0.00033007  0.87545937  1
  V  V15  1  0.74898031  0.49920694  0.25094557  1
  V  V16  1  -0.00307072  0.37594522  0.87487952  1
  V  V17  1  -0.00022665  0.62640811  0.62309462  1
  V  V18  1  0.75102962  0.75039458  0.49880691  1
  V  V19  1  0.75044539  0.87629273  0.62563288  1
  V  V20  1  0.00085775  0.37392176  0.37382300  1
  V  V21  1  0.62673156  0.87533266  0.74901962  1
  V  V22  1  0.49990276  0.75003561  0.75003290  1
  V  V23  1  0.50043427  0.87397466  0.87416950  1
  V  V24  1  0.87443313  0.25066045  0.62482737  1
  V  V25  1  0.12585851  0.87513653  0.74964156  1
  V  V26  1  0.37543503  0.62492377  0.25073161  1
  V  V27  1  0.00048715  0.50004672  0.49822196  1
  V  V28  1  0.74967494  0.87375947  0.12430300  1
  V  V29  1  0.24949751  0.50153608  0.75070971  1
  V  V30  1  0.49866500  0.62341021  0.12630047  1
  V  V31  1  0.24897673  0.49905268  0.24940542  1
  V  V32  1  0.37480053  0.87398086  0.00049817  1
  V  V33  1  0.62615436  0.75002415  0.37546351  1
  V  V34  1  0.62545435  0.87293198  0.25042381  1
  V  V35  1  0.12327030  0.37620430  0.74903145  1
  V  V36  1  0.62570255  0.37624549  0.75110730  1
  V  V37  1  0.37451050  0.62435408  0.75094731  1
  V  V38  1  0.37574934  0.50014207  0.37683572  1
  V  V39  1  0.74919258  0.37387639  0.12676418  1
  V  V40  1  -0.00041264  -0.00060070  -0.00109557  1
  V  V41  1  0.49971973  0.12474314  0.12537391  1
  V  V42  1  0.74994964  0.12360151  0.87547140  1
  V  V43  1  0.37561299  0.37550119  0.50112907  1
  V  V44  1  0.12579080  0.75139542  0.37271841  1
  V  V45  1  0.25086967  0.62561908  0.37492022  1
  V  V46  1  0.12579793  0.37620873  0.24869846  1
  V  V47  1  -0.00060304  0.12522451  0.12512621  1
  V  V48  1  0.87577009  0.62464717  0.24963724  1
  V  V49  1  0.12579088  0.00005094  0.12443792  1
  V  V50  1  0.62448902  0.25010684  0.37500216  1
  V  V51  1  0.87588034  0.49949972  0.37424446  1
  V  V52  1  0.74888265  0.25004401  0.00245167  1
  V  V53  1  0.62501806  0.49943065  0.62666191  1
  V  V54  1  0.25074378  0.00048098  0.74934954  1
  V  V55  1  0.50071648  0.25061139  0.25213755  1
  V  V56  1  0.24909318  0.12615323  0.87523872  1
  V  V57  1  0.25169807  0.87555228  0.62399909  1
  V  V58  1  0.62314494  0.24985429  0.87716942  1
  V  V59  1  0.37556319  0.12602407  0.75024296  1
  V  V60  1  0.37405277  0.25030151  0.62528791  1
  V  V61  1  0.75146690  0.12352198  0.37491582  1
  V  V62  1  0.12569850  0.87533755  0.24812617  1
  V  V63  1  0.00019865  0.62452259  0.12342710  1
  V  V64  1  0.49980460  -0.00077768  0.00028322  1
  V  V65  1  0.12447960  0.12597679  -0.00119185  1
  V  V66  1  0.49985957  0.49966744  0.50094723  1
  V  V67  1  0.12548047  0.62572632  0.49893447  1
  V  V68  1  0.62494149  -0.00157163  0.12522157  1
  V  V69  1  0.12617142  0.74940736  0.87410177  1
  V  V70  1  0.50057206  0.87559613  0.37549106  1
  V  V71  1  0.25057775  0.25043233  0.49994319  1
  V  V72  1  0.12471675  0.50047242  0.62429808  1
  V  V73  1  0.12606777  0.00093288  0.62450356  1
  V  V74  1  0.25151515  0.75115736  0.49959114  1
  V  V75  1  0.87618197  0.87608697  0.49926599  1
  V  V76  1  0.12369016  0.24993159  0.87455688  1
  V  V77  1  0.62504536  0.12379527  0.00022435  1
  V  V78  1  0.75119360  0.00014311  0.25043895  1
  V  V79  1  0.00062151  0.12557564  0.62545161  1
  V  V80  1  0.87348688  0.37524638  -0.00068187  1
  V  V81  1  0.50126281  0.12465903  0.62537097  1
  V  V82  1  0.87697072  0.75051270  0.62308486  1
  V  V83  1  0.87335509  0.12463389  0.75176013  1
  V  V84  1  0.62648599  0.62507404  0.50064120  1
  V  V85  1  0.12621243  0.24975900  0.37552315  1
  V  V86  1  0.87482015  0.74963764  0.12394325  1
  V  V87  1  0.25024931  -0.00012070  0.24880632  1
  V  V88  1  0.87509134  0.37437255  0.50023174  1
  V  V89  1  0.49670093  0.37482229  0.87769027  1
  V  V90  1  0.50067414  0.62536282  0.62606061  1
  V  V91  1  0.74936107  0.74798441  -0.00080815  1
  V  V92  1  -0.00029770  0.24858616  0.24917028  1
  V  V93  1  0.12505825  0.62461510  -0.00138617  1
  V  V94  1  0.00037874  0.00037213  0.49825468  1
  V  V95  1  0.75035908  0.25012528  0.50092680  1
  Zn  Zn96  1  0.62258106  0.49817575  0.12846305  1
  Zn  Zn97  1  0.62566823  0.74807791  0.87381005  1
  Zn  Zn98  1  0.37190434  0.50094563  0.87622491  1
  Zn  Zn99  1  0.37718219  0.87694592  0.49981441  1
  Zn  Zn100  1  0.75114951  0.62525703  0.37546810  1
  Zn  Zn101  1  0.87464707  0.24677435  0.12665882  1
  Zn  Zn102  1  0.50109223  0.74797196  0.25175345  1
  Zn  Zn103  1  0.36969370  0.37599036  0.00023667  1
  Zn  Zn104  1  0.24985597  0.87535339  0.12268953  1
  Zn  Zn105  1  0.74872079  0.50224851  0.75148025  1
  Zn  Zn106  1  0.00100377  0.75062093  0.74705968  1
  Zn  Zn107  1  0.49823393  0.25009746  0.75256113  1
  Zn  Zn108  1  0.24729285  0.37737147  0.12139483  1
  Zn  Zn109  1  0.50205449  0.37530859  0.37526802  1
  Zn  Zn110  1  0.12520366  0.49834089  0.12389989  1
  Zn  Zn111  1  0.12613714  0.12580527  0.50019364  1
  Zn  Zn112  1  0.87261048  -0.00072513  0.87485252  1
  Zn  Zn113  1  0.62768284  0.00150577  0.62448131  1
  Zn  Zn114  1  0.24799392  0.25414902  -0.00042821  1
  Zn  Zn115  1  0.24943031  0.37440194  0.62489980  1
  Zn  Zn116  1  0.62353489  0.37520950  0.25255059  1
  Zn  Zn117  1  0.50134156  -0.00110504  0.50057742  1
  Zn  Zn118  1  -0.00043848  0.87649765  0.37244592  1
  Zn  Zn119  1  0.87380781  0.87493411  -0.00201439  1
  Zn  Zn120  1  0.75023774  0.62321238  0.87396955  1
  Zn  Zn121  1  0.25000517  0.75073992  -0.00046818  1
  Zn  Zn122  1  0.87641281  -0.00016611  0.37217418  1
  Zn  Zn123  1  0.87562873  0.12364852  0.24966331  1
  Zn  Zn124  1  0.75030613  0.37684531  0.62605317  1
  Zn  Zn125  1  0.75145497  0.00032263  0.75069131  1
  Zn  Zn126  1  0.87067165  0.50010245  0.87331633  1
  Zn  Zn127  1  0.25201432  0.62581380  0.87609595  1
  Zn  Zn128  1  0.18631039  0.18722688  0.18818194  1
  Zn  Zn129  1  0.18740064  0.18774336  0.68714767  1
  Zn  Zn130  1  0.18854280  0.68626930  0.18611755  1
  Zn  Zn131  1  0.18806011  0.68766941  0.68678789  1
  Zn  Zn132  1  0.68669151  0.18625735  0.18976115  1
  Zn  Zn133  1  0.68736120  0.19097250  0.68996942  1
  Zn  Zn134  1  0.68702935  0.68596686  0.18683181  1
  Zn  Zn135  1  0.68908519  0.68979056  0.68525402  1
  Zn  Zn136  1  0.31333789  0.31461254  0.31279633  1
  Zn  Zn137  1  0.31044320  0.31302888  0.81131598  1
  Zn  Zn138  1  0.31311512  0.81429176  0.31080551  1
  Zn  Zn139  1  0.31268610  0.81254643  0.81201102  1
  Zn  Zn140  1  0.81413416  0.30950527  0.31321090  1
  Zn  Zn141  1  0.81039911  0.31068285  0.81441502  1
  Zn  Zn142  1  0.81412568  0.81421653  0.31366461  1
  Zn  Zn143  1  0.81286568  0.80786956  0.81176981  1
  Zn  Zn144  1  0.18927725  0.43632456  0.43662321  1
  Zn  Zn145  1  0.18534859  0.43663816  0.93657289  1
  Zn  Zn146  1  0.18809020  0.93715458  0.43631597  1
  Zn  Zn147  1  0.18825952  0.93776902  0.93877531  1
  Zn  Zn148  1  0.68736406  0.43573561  0.43779641  1
  Zn  Zn149  1  0.68773386  0.44019812  0.93680075  1
  Zn  Zn150  1  0.68737061  0.93928293  0.43843761  1
  Zn  Zn151  1  0.68694981  0.93679197  0.93567851  1
  Zn  Zn152  1  0.31138118  0.06453395  0.06155069  1
  Zn  Zn153  1  0.31490635  0.06281617  0.55996957  1
  Zn  Zn154  1  0.31042968  0.56304603  0.06400643  1
  Zn  Zn155  1  0.31239011  0.56332278  0.56421064  1
  Zn  Zn156  1  0.81501771  0.06065655  0.06196091  1
  Zn  Zn157  1  0.81293883  0.06203645  0.56422378  1
  Zn  Zn158  1  0.81286280  0.56066636  0.06410879  1
  Zn  Zn159  1  0.81087686  0.56119418  0.56407682  1
  Zn  Zn160  1  0.43596718  0.43543392  0.19020765  1
  Zn  Zn161  1  0.43728368  0.43738115  0.68793462  1
  Zn  Zn162  1  0.43842334  0.93583250  0.18934586  1
  Zn  Zn163  1  0.43841037  0.93866814  0.68758599  1
  Zn  Zn164  1  0.93741596  0.43659888  0.18567277  1
  Zn  Zn165  1  0.93720115  0.43914217  0.68566497  1
  Zn  Zn166  1  0.93690472  0.93720181  0.18534794  1
  Zn  Zn167  1  0.93716362  0.93922492  0.68767696  1
  Zn  Zn168  1  0.06444445  0.06395208  0.31201049  1
  Zn  Zn169  1  0.06190052  0.06249513  0.81147838  1
  Zn  Zn170  1  0.06349056  0.56312147  0.31132661  1
  Zn  Zn171  1  0.05859344  0.56241682  0.81197577  1
  Zn  Zn172  1  0.56414215  0.06269649  0.31301045  1
  Zn  Zn173  1  0.56271781  0.06098461  0.81165087  1
  Zn  Zn174  1  0.56271302  0.56345232  0.31529756  1
  Zn  Zn175  1  0.56100785  0.56117797  0.81502290  1
  Zn  Zn176  1  0.43808211  0.18759839  0.43877084  1
  Zn  Zn177  1  0.43601198  0.18762439  0.93993691  1
  Zn  Zn178  1  0.43928468  0.68825213  0.43831326  1
  Zn  Zn179  1  0.43738377  0.68730159  0.93652766  1
  Zn  Zn180  1  0.93663875  0.18598283  0.43627240  1
  Zn  Zn181  1  0.93539908  0.18846206  0.93875780  1
  Zn  Zn182  1  0.93824672  0.68843705  0.43481122  1
  Zn  Zn183  1  0.93797897  0.68845397  0.93484593  1
  Zn  Zn184  1  0.06181232  0.31284291  0.06306864  1
  Zn  Zn185  1  0.06308498  0.31288996  0.56191261  1
  Zn  Zn186  1  0.06250819  0.81288904  0.06161981  1
  Zn  Zn187  1  0.06377485  0.81405235  0.56077896  1
  Zn  Zn188  1  0.56214960  0.31196026  0.06559802  1
  Zn  Zn189  1  0.56162788  0.31143000  0.56327890  1
  Zn  Zn190  1  0.56111451  0.81096092  0.06338917  1
  Zn  Zn191  1  0.56290431  0.81285546  0.56172354  1
  O  O192  1  0.11949217  0.11965413  0.11865597  1
  O  O193  1  0.11867970  0.11876907  0.62398121  1
  O  O194  1  0.11868697  0.62605755  0.11355753  1
  O  O195  1  0.11989242  0.62076624  0.61796818  1
  O  O196  1  0.61915913  0.11848810  0.11947211  1
  O  O197  1  0.61608229  0.12729467  0.62229768  1
  O  O198  1  0.61795725  0.62268805  0.11551131  1
  O  O199  1  0.61922609  0.62047076  0.62044187  1
  O  O200  1  0.37716263  0.38295613  0.38287870  1
  O  O201  1  0.38627778  0.37613457  0.87638283  1
  O  O202  1  0.38348558  0.88072609  0.37391371  1
  O  O203  1  0.38062102  0.88069569  0.87937394  1
  O  O204  1  0.88189960  0.37977795  0.38058208  1
  O  O205  1  0.87997669  0.37510435  0.88110690  1
  O  O206  1  0.87940463  0.87857305  0.38348722  1
  O  O207  1  0.88842889  0.87241117  0.87458740  1
  O  O208  1  0.25577447  0.00546937  0.36854923  1
  O  O209  1  0.25525365  0.00550406  0.86883754  1
  O  O210  1  0.25604786  0.50718185  0.37073156  1
  O  O211  1  0.24876357  0.50210375  0.86136164  1
  O  O212  1  0.75050600  0.00605817  0.36844597  1
  O  O213  1  0.75150645  0.00756401  0.87293846  1
  O  O214  1  0.75703292  0.49949737  0.36580032  1
  O  O215  1  0.75279311  0.50575046  0.87070052  1
  O  O216  1  0.24673973  0.49918103  0.13450281  1
  O  O217  1  0.24323220  0.50011256  0.63488450  1
  O  O218  1  0.24386929  1.00095672  0.13129882  1
  O  O219  1  0.24650885  0.99602207  0.62990054  1
  O  O220  1  0.74958248  0.49106887  0.13475687  1
  O  O221  1  0.74050655  0.49600701  0.62893662  1
  O  O222  1  0.74332229  0.99335145  0.12843487  1
  O  O223  1  0.74824770  0.99174324  0.62955925  1
  O  O224  1  0.00508771  0.37016531  0.25551043  1
  O  O225  1  0.00346764  0.37037241  0.75427354  1
  O  O226  1  0.00745120  0.86844110  0.24917218  1
  O  O227  1  0.00751230  0.87456356  0.75784750  1
  O  O228  1  0.50307419  0.36695114  0.25358588  1
  O  O229  1  0.50781533  0.37534678  0.76121939  1
  O  O230  1  0.50784773  0.87225346  0.25777312  1
  O  O231  1  0.50730896  0.87001326  0.75379588  1
  O  O232  1  0.49474988  0.12958264  0.24397689  1
  O  O233  1  0.49441084  0.12653401  0.74287547  1
  O  O234  1  0.49351689  0.62494934  0.24434639  1
  O  O235  1  0.49552808  0.63003572  0.74537021  1
  O  O236  1  1.00105689  0.13065418  0.24289214  1
  O  O237  1  0.99483419  0.13151378  0.74511135  1
  O  O238  1  0.99560284  0.63060392  0.24337931  1
  O  O239  1  0.99177493  0.62702760  0.74106707  1
  O  O240  1  0.37284919  0.25031020  0.01245964  1
  O  O241  1  0.36982762  0.25555521  0.50527924  1
  O  O242  1  0.37467088  0.75407553  0.00869084  1
  O  O243  1  0.36859037  0.75069772  0.50684783  1
  O  O244  1  0.86627129  0.25724376  0.00286706  1
  O  O245  1  0.87091286  0.25508134  0.50520495  1
  O  O246  1  0.86489522  0.74839414  0.00508209  1
  O  O247  1  0.87142584  0.75548172  0.50379488  1
  O  O248  1  0.13175528  0.24966150  0.49326127  1
  O  O249  1  0.12405172  0.24352507  0.99189768  1
  O  O250  1  0.13157281  0.74508989  0.49362884  1
  O  O251  1  0.12479498  0.74154701  0.99126468  1
  O  O252  1  0.63066652  0.24443913  0.49582572  1
  O  O253  1  0.62891484  0.24335657  0.99695156  1
  O  O254  1  0.63158677  0.74460907  0.49580203  1
  O  O255  1  0.63219482  0.74062967  1.00167820  1
  O  O256  1  0.49216910  0.24388843  0.13058388  1
  O  O257  1  0.49347550  0.23935705  0.62739835  1
  O  O258  1  0.48913213  0.74340105  0.12645267  1
  O  O259  1  0.49484228  0.74449673  0.63042632  1
  O  O260  1  0.99977420  0.24291423  0.13141334  1
  O  O261  1  0.99485835  0.24532929  0.62999755  1
  O  O262  1  0.99463489  0.74429904  0.12871318  1
  O  O263  1  0.99526378  0.74417600  0.62348372  1
  O  O264  1  0.00630607  0.25485665  0.37049770  1
  O  O265  1  0.00424572  0.25560987  0.86858402  1
  O  O266  1  0.00821537  0.75106126  0.36662450  1
  O  O267  1  0.01079362  0.75919614  0.87305916  1
  O  O268  1  0.50617826  0.24943482  0.36941373  1
  O  O269  1  0.50467172  0.25934072  0.87751698  1
  O  O270  1  0.50724354  0.75719510  0.37404195  1
  O  O271  1  0.50114039  0.75681687  0.86793749  1
  O  O272  1  0.24951755  0.13209101  0.49290705  1
  O  O273  1  0.24233636  0.12672595  0.99182092  1
  O  O274  1  0.24459218  0.63066466  0.49491453  1
  O  O275  1  0.23728938  0.62572926  0.99662909  1
  O  O276  1  0.74542026  0.13109468  0.49639668  1
  O  O277  1  0.74337933  0.12971311  0.99672850  1
  O  O278  1  0.74441457  0.63187525  0.49946791  1
  O  O279  1  0.74078898  0.63189065  1.00390740  1
  O  O280  1  0.25230875  0.37268013  0.00235132  1
  O  O281  1  0.25709406  0.36921931  0.50246371  1
  O  O282  1  0.25874413  0.87258010  0.00258180  1
  O  O283  1  0.25200046  0.86863151  0.50626811  1
  O  O284  1  0.75230757  0.37089885  0.00848177  1
  O  O285  1  0.75782139  0.36799758  0.50133613  1
  O  O286  1  0.74817850  0.86354514  0.00509367  1
  O  O287  1  0.75576475  0.87014934  0.50559194  1
  O  O288  1  0.13109181  0.49459801  0.24969576  1
  O  O289  1  0.13023783  0.49694562  0.74424504  1
  O  O290  1  0.13047950  0.99526341  0.24396480  1
  O  O291  1  0.13132109  0.99518968  0.74440184  1
  O  O292  1  0.63673810  0.49914242  0.25012184  1
  O  O293  1  0.62287493  0.49153547  0.74552618  1
  O  O294  1  0.63057458  0.99350453  0.24353518  1
  O  O295  1  0.62590040  0.98594529  0.74844990  1
  O  O296  1  0.37033025  0.00595004  0.25416505  1
  O  O297  1  0.36985107  0.00557767  0.75616631  1
  O  O298  1  0.36959522  0.50593988  0.25685343  1
  O  O299  1  0.36520218  0.50524707  0.74963601  1
  O  O300  1  0.86658516  0.00072408  0.25084323  1
  O  O301  1  0.87364884  0.00908301  0.75350781  1
  O  O302  1  0.86821902  0.50416187  0.25447487  1
  O  O303  1  0.87310852  0.51204364  0.74785620  1
  O  O304  1  0.11949791  0.36967991  0.36965850  1
  O  O305  1  0.11641850  0.36965022  0.86800555  1
  O  O306  1  0.12433280  0.86834428  0.36663968  1
  O  O307  1  0.11875413  0.86812948  0.87043673  1
  O  O308  1  0.62304257  0.36557995  0.37374937  1
  O  O309  1  0.61574349  0.37099259  0.87061988  1
  O  O310  1  0.62011203  0.86972579  0.36997966  1
  O  O311  1  0.61885936  0.87190165  0.86593935  1
  O  O312  1  0.38058530  0.13200026  0.13029866  1
  O  O313  1  0.38230720  0.12987187  0.63042056  1
  O  O314  1  0.37950491  0.63228329  0.13017357  1
  O  O315  1  0.38122040  0.63103508  0.63100690  1
  O  O316  1  0.88404505  0.12629547  0.12663019  1
  O  O317  1  0.88090202  0.13181042  0.63122377  1
  O  O318  1  0.88067638  0.63026430  0.13029155  1
  O  O319  1  0.88060067  0.63043653  0.62969257  1
  O  O320  1  0.26095360  0.24945453  0.12503482  1
  O  O321  1  0.25610545  0.25099153  0.61889634  1
  O  O322  1  0.26328299  0.75000302  0.12289705  1
  O  O323  1  0.25515562  0.75564942  0.61971469  1
  O  O324  1  0.74961503  0.25838682  0.12124972  1
  O  O325  1  0.75658129  0.25287045  0.61901267  1
  O  O326  1  0.75442039  0.75368179  0.11724970  1
  O  O327  1  0.75716492  0.75696344  0.61730365  1
  O  O328  1  0.24624043  0.24485942  0.37971057  1
  O  O329  1  0.24168302  0.24347428  0.87419501  1
  O  O330  1  0.24586035  0.74480798  0.37927730  1
  O  O331  1  0.23719257  0.74932871  0.87602251  1
  O  O332  1  0.74502962  0.24366297  0.38139627  1
  O  O333  1  0.74184585  0.24454673  0.88328278  1
  O  O334  1  0.74449536  0.74888308  0.38148718  1
  O  O335  1  0.74777335  0.74577802  0.88774991  1
  O  O336  1  0.00566506  0.11964553  0.00383576  1
  O  O337  1  0.00159988  0.11620249  0.50656677  1
  O  O338  1  0.00643689  0.62141128  0.00330540  1
  O  O339  1  0.00601408  0.61954802  0.50286905  1
  O  O340  1  0.50544995  0.11832378  0.00528104  1
  O  O341  1  0.50591941  0.12518560  0.51053405  1
  O  O342  1  0.50590288  0.61743216  0.00497702  1
  O  O343  1  0.50627332  0.61980129  0.50696507  1
  O  O344  1  0.49352036  0.38227665  0.50022342  1
  O  O345  1  0.50091952  0.38302100  0.99378348  1
  O  O346  1  0.49912972  0.87718643  0.49057795  1
  O  O347  1  0.49528231  0.88000018  0.99448444  1
  O  O348  1  0.99535024  0.38063045  0.49344205  1
  O  O349  1  0.99378837  0.38012564  0.99465526  1
  O  O350  1  0.99626054  0.88578123  0.49987453  1
  O  O351  1  1.00079631  0.87971918  0.98910197  1
  O  O352  1  0.49327483  0.50021831  0.38357287  1
  O  O353  1  0.49857313  0.49094230  0.88506282  1
  O  O354  1  0.49523953  0.99277146  0.37432241  1
  O  O355  1  0.49421205  0.99430491  0.88072994  1
  O  O356  1  0.99558772  0.49441561  0.37921660  1
  O  O357  1  0.99595578  0.49297012  0.88053296  1
  O  O358  1  1.00112046  1.00004141  0.38699773  1
  O  O359  1  1.00203490  0.98940114  0.87947729  1
  O  O360  1  0.00692066  0.00479090  0.11849939  1
  O  O361  1  0.00616419  0.00537943  0.61748000  1
  O  O362  1  0.00107430  0.50723091  0.11727021  1
  O  O363  1  0.00559027  0.50626296  0.61674616  1
  O  O364  1  0.50484306  0.00479817  0.12013668  1
  O  O365  1  0.50117409  0.01388720  0.62476257  1
  O  O366  1  0.50006495  0.50366757  0.11738037  1
  O  O367  1  0.50507019  0.50653064  0.62072034  1
  O  O368  1  0.24325784  0.38220640  0.25046620  1
  O  O369  1  0.24240401  0.38505135  0.74829259  1
  O  O370  1  0.24400590  0.88239592  0.24631071  1
  O  O371  1  0.24550526  0.88151343  0.74435146  1
  O  O372  1  0.75172915  0.38273318  0.24303339  1
  O  O373  1  0.73525947  0.37556124  0.75142766  1
  O  O374  1  0.74436629  0.87899563  0.24358677  1
  O  O375  1  0.74132626  0.87196243  0.74549928  1
  O  O376  1  0.25586250  0.11950675  0.25579208  1
  O  O377  1  0.25533619  0.11925464  0.75544653  1
  O  O378  1  0.25541476  0.61971741  0.25633011  1
  O  O379  1  0.25441859  0.61637105  0.75013542  1
  O  O380  1  0.74991937  0.11733483  0.25635297  1
  O  O381  1  0.75482681  0.12620835  0.75778483  1
  O  O382  1  0.75660963  0.61444302  0.24906529  1
  O  O383  1  0.76103257  0.62690079  0.74989899  1
  O  O384  1  0.37068472  0.12026791  0.36877935  1
  O  O385  1  0.37028181  0.11968534  0.87047384  1
  O  O386  1  0.37002016  0.62058551  0.37081592  1
  O  O387  1  0.37199892  0.62258700  0.86706418  1
  O  O388  1  0.86655522  0.12132852  0.37253962  1
  O  O389  1  0.86786192  0.12554547  0.86923853  1
  O  O390  1  0.87426218  0.61772909  0.36746415  1
  O  O391  1  0.87618751  0.62545397  0.86126256  1
  O  O392  1  0.12613456  0.37759192  0.13337575  1
  O  O393  1  0.12493536  0.38268187  0.63138707  1
  O  O394  1  0.12700450  0.88155404  0.12969106  1
  O  O395  1  0.13193881  0.88036026  0.63038699  1
  O  O396  1  0.63765056  0.37692410  0.12802837  1
  O  O397  1  0.62233593  0.37948860  0.63676777  1
  O  O398  1  0.62934586  0.87904418  0.13004429  1
  O  O399  1  0.63037628  0.87467496  0.63445705  1
  O  O400  1  0.11991976  0.25573674  0.25661507  1
  O  O401  1  0.11822155  0.25587307  0.75427172  1
  O  O402  1  0.12098817  0.75453534  0.25292601  1
  O  O403  1  0.12414555  0.75550410  0.75787439  1
  O  O404  1  0.61816900  0.24972817  0.25717081  1
  O  O405  1  0.62083928  0.26010782  0.75847474  1
  O  O406  1  0.62476327  0.75474851  0.25612082  1
  O  O407  1  0.61902666  0.75886136  0.75048379  1
  O  O408  1  0.37989006  0.24405957  0.24340926  1
  O  O409  1  0.37634574  0.24368091  0.74433553  1
  O  O410  1  0.37639693  0.74348819  0.24114374  1
  O  O411  1  0.37985587  0.74489380  0.74389596  1
  O  O412  1  0.88466363  0.24692202  0.24788801  1
  O  O413  1  0.87997024  0.24555962  0.74468781  1
  O  O414  1  0.88030743  0.74461805  0.24395213  1
  O  O415  1  0.87831678  0.74138025  0.74131457  1
  O  O416  1  0.37980840  0.49644086  0.49689553  1
  O  O417  1  0.38623065  0.50003431  0.99902535  1
  O  O418  1  0.37889026  0.99778693  0.49053127  1
  O  O419  1  0.38087370  0.99550852  0.99493403  1
  O  O420  1  0.88097742  0.49503124  0.49456267  1
  O  O421  1  0.88004643  0.49351575  0.99831100  1
  O  O422  1  0.88675279  0.99506228  0.50167567  1
  O  O423  1  0.88339370  0.99478552  0.99523143  1
  O  O424  1  0.11960471  0.00605646  0.00433573  1
  O  O425  1  0.11662548  0.00076336  0.50610996  1
  O  O426  1  0.11686989  0.51087905  -0.00203084  1
  O  O427  1  0.12042124  0.50589089  0.50340231  1
  O  O428  1  0.61889145  0.00385426  0.00574733  1
  O  O429  1  0.62252968  0.00944258  0.50436396  1
  O  O430  1  0.61482508  0.50769021  0.00314252  1
  O  O431  1  0.61993442  0.50479633  0.50596261  1
  O  O432  1  0.37296696  0.36284974  0.12464742  1
  O  O433  1  0.37399340  0.36825707  0.61969429  1
  O  O434  1  0.37627718  0.86565111  0.12000213  1
  O  O435  1  0.36949117  0.86898178  0.62498848  1
  O  O436  1  0.86348933  0.37308482  0.11923641  1
  O  O437  1  0.87471708  0.36855151  0.61815075  1
  O  O438  1  0.86792266  0.86670173  0.12135649  1
  O  O439  1  0.87113674  0.86950371  0.61995809  1
  O  O440  1  0.13343780  0.13218274  0.37639887  1
  O  O441  1  0.12912742  0.13020858  0.87844617  1
  O  O442  1  0.13115100  0.63117913  0.37966799  1
  O  O443  1  0.12169546  0.63428754  0.88176402  1
  O  O444  1  0.63106976  0.13070102  0.38170723  1
  O  O445  1  0.62810462  0.12960418  0.88112665  1
  O  O446  1  0.62777172  0.63160238  0.38307872  1
  O  O447  1  0.62399263  0.62705275  0.88896230  1
