# generated using pymatgen
data_V3Zn3O8
_symmetry_space_group_name_H-M   'P 1'
_cell_length_a   17.08234722
_cell_length_b   17.08190533
_cell_length_c   17.08185500
_cell_angle_alpha   89.99583544
_cell_angle_beta   89.99606691
_cell_angle_gamma   90.01512886
_symmetry_Int_Tables_number   1
_chemical_formula_structural   V3Zn3O8
_chemical_formula_sum   'V96 Zn96 O256'
_cell_volume   4984.46865764
_cell_formula_units_Z   32
loop_
 _symmetry_equiv_pos_site_id
 _symmetry_equiv_pos_as_xyz
  1  'x, y, z'
loop_
 _atom_site_type_symbol
 _atom_site_label
 _atom_site_symmetry_multiplicity
 _atom_site_fract_x
 _atom_site_fract_y
 _atom_site_fract_z
 _atom_site_occupancy
  V  V0  1  0.74996626  0.37349600  0.12544614  1
  V  V1  1  0.37486164  0.74940771  0.62506706  1
  V  V2  1  0.87450993  0.12582947  0.75051715  1
  V  V3  1  0.25185646  0.62445557  0.87389732  1
  V  V4  1  0.12517573  0.50051981  0.62550044  1
  V  V5  1  0.75035097  -0.00023131  0.25037325  1
  V  V6  1  0.12562102  0.62545823  0.49994508  1
  V  V7  1  0.50051678  0.87520305  0.87487553  1
  V  V8  1  0.24956349  0.25063829  0.50092945  1
  V  V9  1  -0.00049712  0.12541765  0.12567748  1
  V  V10  1  0.87565502  0.87528281  0.50206414  1
  V  V11  1  0.62609007  0.87364819  0.74977780  1
  V  V12  1  0.74927550  0.12582494  0.87433442  1
  V  V13  1  0.75177879  0.50036573  0.75025842  1
  V  V14  1  -0.00124047  0.25084152  0.75040980  1
  V  V15  1  0.49884709  0.24839657  0.74841705  1
  V  V16  1  0.62543871  0.62504546  -0.00123395  1
  V  V17  1  -0.00010705  0.37579049  0.37579637  1
  V  V18  1  -0.00125508  0.00076556  0.50114318  1
  V  V19  1  0.25060787  0.00028332  0.75034019  1
  V  V20  1  0.25044851  0.12464657  0.87512115  1
  V  V21  1  0.12494498  0.12600561  0.00081334  1
  V  V22  1  0.50089538  0.75044653  0.24907539  1
  V  V23  1  0.62450145  0.00046913  0.12562495  1
  V  V24  1  0.12404132  0.25027838  0.37603964  1
  V  V25  1  0.87515248  0.75141363  0.12555939  1
  V  V26  1  0.74981823  0.37604322  0.62294061  1
  V  V27  1  0.00030575  0.50037439  0.49925928  1
  V  V28  1  0.37519462  0.62488772  0.24935656  1
  V  V29  1  0.62476815  0.24970479  0.37485953  1
  V  V30  1  0.37441094  0.25056621  0.12432661  1
  V  V31  1  0.62392136  0.87481985  0.24947235  1
  V  V32  1  0.12490948  0.49912877  0.12431560  1
  V  V33  1  -0.00085184  0.24926897  0.25061877  1
  V  V34  1  0.37371683  0.12531587  0.25086165  1
  V  V35  1  0.12446316  0.87506600  0.75167382  1
  V  V36  1  0.75034678  0.00048106  0.75065082  1
  V  V37  1  0.62283249  0.00030776  0.62190073  1
  V  V38  1  0.74952325  0.50097201  0.25019908  1
  V  V39  1  0.25010173  0.87528585  0.12510366  1
  V  V40  1  0.87423636  0.00016228  0.37602856  1
  V  V41  1  0.62617746  0.62533626  0.49860484  1
  V  V42  1  0.49974339  0.12440977  0.12503747  1
  V  V43  1  0.87581844  0.87484192  0.00108196  1
  V  V44  1  0.62550332  0.49924292  0.62433047  1
  V  V45  1  0.37543022  0.87564824  -0.00129009  1
  V  V46  1  0.87504173  0.37634718  0.49890245  1
  V  V47  1  0.62523989  0.24851179  0.87514977  1
  V  V48  1  0.37441679  0.24846137  0.62526792  1
  V  V49  1  0.25097153  0.62506577  0.37419046  1
  V  V50  1  0.37580008  0.75005848  0.12382767  1
  V  V51  1  0.87469869  0.24964422  0.12630691  1
  V  V52  1  0.49879405  0.37599817  0.37422881  1
  V  V53  1  0.37470231  0.37488892  0.49923659  1
  V  V54  1  0.12522221  0.37508010  0.25020323  1
  V  V55  1  0.49952979  0.25072575  0.24960054  1
  V  V56  1  0.00044896  0.75018103  0.25042374  1
  V  V57  1  0.75114187  0.87384074  0.62620665  1
  V  V58  1  -0.00098197  0.00042837  0.00204285  1
  V  V59  1  0.25003618  0.74974573  -0.00058153  1
  V  V60  1  0.12469430  0.00051623  0.62566713  1
  V  V61  1  0.00033597  0.62701577  0.62587396  1
  V  V62  1  0.49985571  0.62454873  0.62470035  1
  V  V63  1  0.25069511  0.50031409  0.24996499  1
  V  V64  1  0.49948801  0.49962500  0.49958764  1
  V  V65  1  -0.00010506  0.37492702  0.87464168  1
  V  V66  1  0.50024385  -0.00034394  0.00008970  1
  V  V67  1  0.87467649  0.50015606  0.87557984  1
  V  V68  1  0.87735484  0.74936406  0.62631064  1
  V  V69  1  0.50080326  0.74822535  0.74869890  1
  V  V70  1  0.24952654  0.49970818  0.74971928  1
  V  V71  1  0.00126778  0.87449573  0.87630006  1
  V  V72  1  -0.00138018  0.12607949  0.62695427  1
  V  V73  1  0.25004845  0.00027649  0.25078102  1
  V  V74  1  0.25008481  0.87456760  0.62504965  1
  V  V75  1  0.12552991  0.75047930  0.37434474  1
  V  V76  1  0.12613911  0.87407449  0.25001196  1
  V  V77  1  0.74997500  0.74818512  0.49974749  1
  V  V78  1  0.12347855  0.37564591  0.75027465  1
  V  V79  1  0.00000278  0.49986710  0.00082827  1
  V  V80  1  0.62678045  0.74897672  0.87461622  1
  V  V81  1  0.87381573  0.37442730  0.00127785  1
  V  V82  1  0.75100919  0.75017087  -0.00033058  1
  V  V83  1  0.62456333  0.37529879  0.24819241  1
  V  V84  1  0.49899149  0.37378576  0.87525793  1
  V  V85  1  0.37495627  0.37471393  -0.00057789  1
  V  V86  1  0.50054735  0.49969293  -0.00183171  1
  V  V87  1  0.87468660  0.62562739  0.25051436  1
  V  V88  1  0.74781515  0.24992169  0.49888107  1
  V  V89  1  0.25035654  0.37413415  0.12380997  1
  V  V90  1  0.24974137  0.12504692  0.37476572  1
  V  V91  1  0.49835197  0.87629223  0.37650714  1
  V  V92  1  0.12587788  0.62389007  0.00075263  1
  V  V93  1  0.12393357  0.12560426  0.50086170  1
  V  V94  1  0.50074668  0.62513850  0.12309359  1
  V  V95  1  0.25078895  0.75092598  0.50067952  1
  Zn  Zn96  1  0.00153492  0.87550922  0.37544842  1
  Zn  Zn97  1  0.37518163  0.87800886  0.50028531  1
  Zn  Zn98  1  0.62486458  0.37480220  0.74939463  1
  Zn  Zn99  1  0.62266982  0.12373829  0.49825217  1
  Zn  Zn100  1  0.37505510  0.50065767  0.37521440  1
  Zn  Zn101  1  0.62550261  0.74860679  0.37413098  1
  Zn  Zn102  1  0.12481934  0.25108126  0.87458426  1
  Zn  Zn103  1  0.12456817  -0.00041315  0.12708610  1
  Zn  Zn104  1  0.87335922  0.25067480  0.62447375  1
  Zn  Zn105  1  0.87516735  0.12401494  0.25052906  1
  Zn  Zn106  1  0.00113923  0.62436413  0.12479365  1
  Zn  Zn107  1  0.87325587  0.00117640  0.87703852  1
  Zn  Zn108  1  0.49919364  0.12234949  0.62206864  1
  Zn  Zn109  1  0.24891964  0.37541256  0.62612736  1
  Zn  Zn110  1  0.87558916  0.50175487  0.37487013  1
  Zn  Zn111  1  0.62596505  0.12400199  0.00082759  1
  Zn  Zn112  1  0.74808874  0.62738209  0.37400650  1
  Zn  Zn113  1  0.37650447  0.62182384  0.74912553  1
  Zn  Zn114  1  0.49753393  0.00266284  0.49923542  1
  Zn  Zn115  1  0.62457592  0.49962536  0.12291936  1
  Zn  Zn116  1  0.24975285  0.25031902  -0.00136954  1
  Zn  Zn117  1  0.75274501  0.62457369  0.87567379  1
  Zn  Zn118  1  0.37695503  0.00016422  0.87283764  1
  Zn  Zn119  1  0.87832651  0.62695347  0.75270551  1
  Zn  Zn120  1  0.37549691  0.00160335  0.37820480  1
  Zn  Zn121  1  0.74797426  0.12462718  0.37621884  1
  Zn  Zn122  1  0.00074426  0.74945260  0.75168862  1
  Zn  Zn123  1  0.74918253  0.24844879  0.00134803  1
  Zn  Zn124  1  0.37595423  0.49782786  0.87176159  1
  Zn  Zn125  1  0.37435441  0.12326110  0.74996705  1
  Zn  Zn126  1  0.12574117  0.75006971  0.87503021  1
  Zn  Zn127  1  0.75005645  0.87652390  0.12327238  1
  Zn  Zn128  1  0.18707030  0.18825887  0.18719411  1
  Zn  Zn129  1  0.18597268  0.18852265  0.68927933  1
  Zn  Zn130  1  0.18802434  0.68693588  0.18631992  1
  Zn  Zn131  1  0.18591215  0.68913778  0.68925161  1
  Zn  Zn132  1  0.68776015  0.18570183  0.18926923  1
  Zn  Zn133  1  0.68678950  0.18648537  0.68665279  1
  Zn  Zn134  1  0.68706304  0.68907096  0.18421334  1
  Zn  Zn135  1  0.68911160  0.68495627  0.68628583  1
  Zn  Zn136  1  0.31224987  0.31229189  0.31297292  1
  Zn  Zn137  1  0.31071675  0.31201870  0.81273298  1
  Zn  Zn138  1  0.31401936  0.81246465  0.31245375  1
  Zn  Zn139  1  0.31410787  0.81163948  0.81110872  1
  Zn  Zn140  1  0.81350774  0.31401664  0.31302192  1
  Zn  Zn141  1  0.81288533  0.31348835  0.81187476  1
  Zn  Zn142  1  0.81164845  0.81342910  0.31437464  1
  Zn  Zn143  1  0.81499103  0.81182127  0.81341126  1
  Zn  Zn144  1  0.18836756  0.43786861  0.43767206  1
  Zn  Zn145  1  0.18749286  0.43793157  0.93657328  1
  Zn  Zn146  1  0.18790092  0.93797950  0.43729647  1
  Zn  Zn147  1  0.18690606  0.94017898  0.93834037  1
  Zn  Zn148  1  0.68676114  0.43790615  0.43474994  1
  Zn  Zn149  1  0.68682259  0.43573627  0.93708721  1
  Zn  Zn150  1  0.68719792  0.93283333  0.43730776  1
  Zn  Zn151  1  0.68732273  0.93758089  0.93757005  1
  Zn  Zn152  1  0.31294906  0.06091589  0.06311351  1
  Zn  Zn153  1  0.31303189  0.06152130  0.56078179  1
  Zn  Zn154  1  0.31429268  0.56033700  0.06101040  1
  Zn  Zn155  1  0.31295765  0.56252612  0.56317218  1
  Zn  Zn156  1  0.81213138  0.06411462  0.06146711  1
  Zn  Zn157  1  0.81026741  0.06443985  0.56400418  1
  Zn  Zn158  1  0.81174835  0.56329351  0.06365221  1
  Zn  Zn159  1  0.81441060  0.56374973  0.56269789  1
  Zn  Zn160  1  0.43718383  0.43926785  0.18525571  1
  Zn  Zn161  1  0.43610947  0.43585709  0.68758242  1
  Zn  Zn162  1  0.43611344  0.93861254  0.18875383  1
  Zn  Zn163  1  0.43618008  0.93564459  0.68843160  1
  Zn  Zn164  1  0.93714190  0.43727661  0.18744090  1
  Zn  Zn165  1  0.93660373  0.43819919  0.68579961  1
  Zn  Zn166  1  0.93929282  0.93611658  0.18776219  1
  Zn  Zn167  1  0.93691453  0.93873480  0.69033472  1
  Zn  Zn168  1  0.06290542  0.06184350  0.31274917  1
  Zn  Zn169  1  0.06204583  0.06159088  0.81435031  1
  Zn  Zn170  1  0.06298106  0.56302347  0.31255536  1
  Zn  Zn171  1  0.06261500  0.56286652  0.81283217  1
  Zn  Zn172  1  0.56298830  0.06295351  0.31326353  1
  Zn  Zn173  1  0.56271180  0.06262073  0.81033817  1
  Zn  Zn174  1  0.56282268  0.56281028  0.31266733  1
  Zn  Zn175  1  0.56473369  0.56200582  0.81249040  1
  Zn  Zn176  1  0.43919114  0.18618831  0.43887467  1
  Zn  Zn177  1  0.43677406  0.18628785  0.93876843  1
  Zn  Zn178  1  0.43717741  0.68918076  0.43732403  1
  Zn  Zn179  1  0.43783309  0.68763707  0.93585666  1
  Zn  Zn180  1  0.93524276  0.18724542  0.43785315  1
  Zn  Zn181  1  0.93624849  0.18871189  0.93737861  1
  Zn  Zn182  1  0.93746636  0.68839458  0.43672975  1
  Zn  Zn183  1  0.93752433  0.68659262  0.93840510  1
  Zn  Zn184  1  0.06178720  0.31140131  0.06246651  1
  Zn  Zn185  1  0.06132323  0.31314196  0.56468435  1
  Zn  Zn186  1  0.06339358  0.81002943  0.06391369  1
  Zn  Zn187  1  0.06273493  0.81364923  0.56245971  1
  Zn  Zn188  1  0.56272649  0.31220774  0.06172816  1
  Zn  Zn189  1  0.56224891  0.31436234  0.56269589  1
  Zn  Zn190  1  0.56427211  0.81345843  0.06214352  1
  Zn  Zn191  1  0.56298679  0.81182592  0.56111671  1
  O  O192  1  0.11911476  0.12528360  0.11606106  1
  O  O193  1  0.11908865  0.11996936  0.62010625  1
  O  O194  1  0.12552614  0.61680344  0.11870209  1
  O  O195  1  0.12054815  0.62066571  0.61881571  1
  O  O196  1  0.61721680  0.11866980  0.12524779  1
  O  O197  1  0.62430389  0.11121180  0.62487637  1
  O  O198  1  0.61768881  0.62461146  0.11646760  1
  O  O199  1  0.61937955  0.61844783  0.61831227  1
  O  O200  1  0.38105832  0.37579782  0.38131249  1
  O  O201  1  0.38139349  0.37365624  0.88165921  1
  O  O202  1  0.38600162  0.87692498  0.37465579  1
  O  O203  1  0.38250894  0.87530139  0.88113214  1
  O  O204  1  0.88308971  0.37784051  0.38066855  1
  O  O205  1  0.88010681  0.38046621  0.88139061  1
  O  O206  1  0.87670585  0.88575631  0.38261786  1
  O  O207  1  0.88529474  0.87660044  0.88220972  1
  O  O208  1  0.25020394  0.00814144  0.36885392  1
  O  O209  1  0.25056256  0.00903388  0.86933638  1
  O  O210  1  0.25089684  0.50698028  0.36795489  1
  O  O211  1  0.25096611  0.50930714  0.86867392  1
  O  O212  1  0.75718528  -0.00120154  0.36820509  1
  O  O213  1  0.74903701  0.00716121  0.86773885  1
  O  O214  1  0.75184391  0.50139383  0.36086474  1
  O  O215  1  0.75530209  0.49855152  0.86580617  1
  O  O216  1  0.24492505  0.49367913  0.13008059  1
  O  O217  1  0.24285049  0.49941011  0.63167173  1
  O  O218  1  0.24830657  0.99288243  0.13211238  1
  O  O219  1  0.24313703  0.99556156  0.63022843  1
  O  O220  1  0.74908570  0.49347643  0.13569921  1
  O  O221  1  0.74588672  0.49567014  0.63136062  1
  O  O222  1  0.74498785  0.99959931  0.13489201  1
  O  O223  1  0.74322306  0.99340651  0.63075090  1
  O  O224  1  0.00602274  0.36968798  0.25537771  1
  O  O225  1  0.00368615  0.37148149  0.75513541  1
  O  O226  1  0.00764409  0.86790096  0.25224926  1
  O  O227  1  0.00566189  0.87700421  0.76093333  1
  O  O228  1  0.50421873  0.37038722  0.25323460  1
  O  O229  1  0.50079030  0.36344186  0.75529237  1
  O  O230  1  0.50378056  0.86998571  0.25584215  1
  O  O231  1  0.50696065  0.86783464  0.75507178  1
  O  O232  1  0.49393233  0.13143971  0.24495271  1
  O  O233  1  0.49657106  0.13758145  0.74780915  1
  O  O234  1  0.49518291  0.63007245  0.24352126  1
  O  O235  1  0.50073938  0.63032495  0.74259606  1
  O  O236  1  0.99977453  0.13164463  0.24437225  1
  O  O237  1  0.99505224  0.12977352  0.74646330  1
  O  O238  1  0.99084954  0.62991874  0.24858625  1
  O  O239  1  0.99984793  0.62772767  0.74205014  1
  O  O240  1  0.37404841  0.25652649  0.00751582  1
  O  O241  1  0.36992417  0.25467451  0.50723251  1
  O  O242  1  0.37036290  0.75565055  0.00491849  1
  O  O243  1  0.36770740  0.75183809  0.50722071  1
  O  O244  1  0.87374645  0.25756068  0.00776260  1
  O  O245  1  0.86396181  0.25670487  0.49985527  1
  O  O246  1  0.87097491  0.75455124  0.00607315  1
  O  O247  1  0.87077994  0.75589441  0.50582176  1
  O  O248  1  0.12894549  0.24505322  0.49565010  1
  O  O249  1  0.12542900  0.23762442  0.99806468  1
  O  O250  1  0.13090349  0.74463137  0.49463033  1
  O  O251  1  0.13318266  0.74234744  0.99974599  1
  O  O252  1  0.63454039  0.25382679  0.49366695  1
  O  O253  1  0.62475357  0.24734641  0.98657668  1
  O  O254  1  0.63280499  0.74248078  0.50078359  1
  O  O255  1  0.63057670  0.74570813  0.99398365  1
  O  O256  1  0.49451368  0.24503059  0.13068188  1
  O  O257  1  0.49256088  0.25077930  0.63290289  1
  O  O258  1  0.49436511  0.74521280  0.12885036  1
  O  O259  1  0.49580547  0.74455985  0.62971606  1
  O  O260  1  0.99442049  0.24562448  0.13166776  1
  O  O261  1  0.99739616  0.24322806  0.63156961  1
  O  O262  1  0.99330664  0.74691291  0.13246322  1
  O  O263  1  0.99480755  0.74473865  0.62527094  1
  O  O264  1  0.00510598  0.25520901  0.37118068  1
  O  O265  1  0.00047743  0.25768777  0.86828531  1
  O  O266  1  0.00765346  0.75190692  0.36895426  1
  O  O267  1  0.00283945  0.76324474  0.87676547  1
  O  O268  1  0.50453863  0.25684574  0.36840551  1
  O  O269  1  0.50575735  0.25249118  0.86739944  1
  O  O270  1  0.50080954  0.75877651  0.36701667  1
  O  O271  1  0.50681611  0.75494730  0.86888939  1
  O  O272  1  0.24271327  0.13120063  0.49502476  1
  O  O273  1  0.24155794  0.12391657  0.99337585  1
  O  O274  1  0.24440004  0.63040333  0.49467593  1
  O  O275  1  0.24655101  0.62842880  0.99234635  1
  O  O276  1  0.74723933  0.13821549  0.49933752  1
  O  O277  1  0.74641032  0.12831950  0.99095101  1
  O  O278  1  0.74432740  0.62995626  0.49899470  1
  O  O279  1  0.74375780  0.63162361  0.99922158  1
  O  O280  1  0.25552335  0.37354461  0.00577074  1
  O  O281  1  0.25554724  0.36794472  0.50161648  1
  O  O282  1  0.25500141  0.87026463  0.00450139  1
  O  O283  1  0.24895493  0.86813865  0.50746103  1
  O  O284  1  0.75606153  0.37325810  0.00744190  1
  O  O285  1  0.75448042  0.36936418  0.50284715  1
  O  O286  1  0.75750316  0.86883934  0.00030580  1
  O  O287  1  0.75635036  0.86873693  0.50745290  1
  O  O288  1  0.13059302  0.49443797  0.24459738  1
  O  O289  1  0.12952727  0.49489547  0.74444508  1
  O  O290  1  0.13157547  0.99297556  0.24936093  1
  O  O291  1  0.13002766  0.99504590  0.74423409  1
  O  O292  1  0.63369698  0.49486453  0.24698138  1
  O  O293  1  0.63499189  0.49767456  0.74370277  1
  O  O294  1  0.63262332  0.99513669  0.24586205  1
  O  O295  1  0.63042745  0.99310644  0.74223932  1
  O  O296  1  0.36765085  0.00836183  0.25174966  1
  O  O297  1  0.36674517  0.00311831  0.75128581  1
  O  O298  1  0.36839607  0.50701048  0.25029393  1
  O  O299  1  0.36614450  0.50143278  0.75097816  1
  O  O300  1  0.86761657  -0.00186145  0.25897413  1
  O  O301  1  0.86753285  0.00729143  0.75250014  1
  O  O302  1  0.86722466  0.50827126  0.24962396  1
  O  O303  1  0.86653146  0.49990113  0.75568907  1
  O  O304  1  0.11993693  0.36941816  0.37002358  1
  O  O305  1  0.11746304  0.37462310  0.86879980  1
  O  O306  1  0.12487800  0.86780132  0.36842551  1
  O  O307  1  0.11640774  0.87608621  0.87168991  1
  O  O308  1  0.61817673  0.36989774  0.36748500  1
  O  O309  1  0.61853972  0.36376908  0.87274147  1
  O  O310  1  0.61539978  0.87232173  0.36746406  1
  O  O311  1  0.62015059  0.86847194  0.86910401  1
  O  O312  1  0.37968695  0.13079642  0.13082004  1
  O  O313  1  0.37528142  0.13835822  0.62617768  1
  O  O314  1  0.38049735  0.63085581  0.12890645  1
  O  O315  1  0.38244739  0.63137420  0.62590892  1
  O  O316  1  0.88203643  0.13181956  0.12674513  1
  O  O317  1  0.88107131  0.12671697  0.63192967  1
  O  O318  1  0.87620178  0.63131614  0.13620832  1
  O  O319  1  0.88343735  0.63187408  0.62543098  1
  O  O320  1  0.25643168  0.25679995  0.12401805  1
  O  O321  1  0.25788286  0.25099412  0.61999531  1
  O  O322  1  0.25681404  0.75472251  0.11903294  1
  O  O323  1  0.25422032  0.75476535  0.62033928  1
  O  O324  1  0.75623361  0.25556750  0.12621123  1
  O  O325  1  0.74848674  0.25699171  0.61509780  1
  O  O326  1  0.75721336  0.75385202  0.11790627  1
  O  O327  1  0.75663683  0.75490141  0.62018495  1
  O  O328  1  0.24282720  0.24507118  0.38025765  1
  O  O329  1  0.24601746  0.23792187  0.87687037  1
  O  O330  1  0.24525725  0.74424548  0.37975408  1
  O  O331  1  0.24969920  0.74080552  0.88068986  1
  O  O332  1  0.74402823  0.25177760  0.38326186  1
  O  O333  1  0.73946150  0.24560387  0.87259143  1
  O  O334  1  0.74720382  0.74923893  0.38405863  1
  O  O335  1  0.74438122  0.74829437  0.88085524  1
  O  O336  1  0.00681907  0.12101828  0.00435168  1
  O  O337  1  0.00457059  0.12084868  0.50633980  1
  O  O338  1  0.00735297  0.61742737  0.00156030  1
  O  O339  1  0.00690146  0.62039769  0.50428586  1
  O  O340  1  0.50102275  0.11786389  0.00732875  1
  O  O341  1  0.50591137  0.12156399  0.50420377  1
  O  O342  1  0.50509165  0.62030733  0.00357699  1
  O  O343  1  0.50518424  0.61953185  0.50540424  1
  O  O344  1  0.49469647  0.38022225  0.49382930  1
  O  O345  1  0.49487781  0.37975322  0.99484933  1
  O  O346  1  0.49946507  0.87457675  0.48774201  1
  O  O347  1  0.49506824  0.87943931  0.99425465  1
  O  O348  1  0.99548512  0.38052611  0.49505219  1
  O  O349  1  0.99426728  0.38049563  0.99511217  1
  O  O350  1  0.99374495  0.88348353  0.49956486  1
  O  O351  1  0.99699308  0.87993878  0.99466617  1
  O  O352  1  0.49841276  0.49342769  0.38120310  1
  O  O353  1  0.49944974  0.49212895  0.87957060  1
  O  O354  1  0.49933768  0.98843870  0.37429373  1
  O  O355  1  0.50034928  0.99315508  0.88017321  1
  O  O356  1  1.00084146  0.49354966  0.38149502  1
  O  O357  1  0.99481325  0.49410692  0.88114299  1
  O  O358  1  0.99075349  0.99927871  0.38186156  1
  O  O359  1  0.99855513  0.99002528  0.88270215  1
  O  O360  1  0.00237533  0.00708391  0.12000751  1
  O  O361  1  0.00518575  0.00614218  0.62073762  1
  O  O362  1  0.00715222  0.49995543  0.11879667  1
  O  O363  1  0.00598693  0.50620124  0.61844440  1
  O  O364  1  0.50476650  0.00516986  0.12104375  1
  O  O365  1  0.51205634  -0.00216273  0.62575296  1
  O  O366  1  0.50182543  0.50739044  0.11729585  1
  O  O367  1  0.50539948  0.50372261  0.61973334  1
  O  O368  1  0.24433209  0.38005850  0.24488880  1
  O  O369  1  0.24202810  0.38205731  0.74981896  1
  O  O370  1  0.24593783  0.87934500  0.24458461  1
  O  O371  1  0.24435234  0.88035750  0.74538262  1
  O  O372  1  0.74558507  0.38292667  0.24549659  1
  O  O373  1  0.74961187  0.38523682  0.74294116  1
  O  O374  1  0.74450331  0.88562866  0.24927379  1
  O  O375  1  0.74542290  0.87987414  0.74541230  1
  O  O376  1  0.25356755  0.12111832  0.25530695  1
  O  O377  1  0.24789739  0.11940803  0.75983185  1
  O  O378  1  0.25553226  0.61991835  0.25420948  1
  O  O379  1  0.24924254  0.61914063  0.75916992  1
  O  O380  1  0.75219529  0.11138086  0.25314924  1
  O  O381  1  0.75490698  0.12041966  0.75462869  1
  O  O382  1  0.75704674  0.61764307  0.24828707  1
  O  O383  1  0.75300595  0.61121311  0.75085439  1
  O  O384  1  0.36714494  0.12725955  0.36781325  1
  O  O385  1  0.36261163  0.12278794  0.87457369  1
  O  O386  1  0.36861610  0.62458904  0.36752838  1
  O  O387  1  0.36327085  0.62256747  0.87310260  1
  O  O388  1  0.87181451  0.11155692  0.37433876  1
  O  O389  1  0.86752441  0.12445288  0.86861640  1
  O  O390  1  0.87235821  0.62441323  0.36184266  1
  O  O391  1  0.87348219  0.61570860  0.87379170  1
  O  O392  1  0.13022339  0.37930092  0.13070191  1
  O  O393  1  0.12542825  0.38285711  0.63185032  1
  O  O394  1  0.13293176  0.87502114  0.13180779  1
  O  O395  1  0.13002378  0.88170806  0.63080704  1
  O  O396  1  0.63124323  0.37534072  0.13127710  1
  O  O397  1  0.63161649  0.38248915  0.62606295  1
  O  O398  1  0.62606192  0.88273174  0.13207677  1
  O  O399  1  0.63158074  0.88032010  0.63069864  1
  O  O400  1  0.11954858  0.25598752  0.25630041  1
  O  O401  1  0.11662253  0.25737392  0.75134113  1
  O  O402  1  0.12107630  0.75357801  0.25482891  1
  O  O403  1  0.12221815  0.76016862  0.75419967  1
  O  O404  1  0.61901867  0.25597240  0.25464676  1
  O  O405  1  0.61580049  0.25111490  0.75687364  1
  O  O406  1  0.61835012  0.75666199  0.24896392  1
  O  O407  1  0.62138285  0.75434404  0.75377238  1
  O  O408  1  0.38004603  0.24561637  0.24401978  1
  O  O409  1  0.38167648  0.25028562  0.74140655  1
  O  O410  1  0.38018389  0.74409551  0.24245750  1
  O  O411  1  0.38294003  0.74702399  0.74290911  1
  O  O412  1  0.88169566  0.24830505  0.24540689  1
  O  O413  1  0.88064387  0.24429693  0.74735793  1
  O  O414  1  0.87883487  0.74398916  0.24640951  1
  O  O415  1  0.87866090  0.74799196  0.74206942  1
  O  O416  1  0.38147265  0.49334522  0.49934123  1
  O  O417  1  0.38250571  0.49218957  0.99725208  1
  O  O418  1  0.37853426  0.99564605  0.49645296  1
  O  O419  1  0.38236185  0.99250263  0.99910656  1
  O  O420  1  0.88204519  0.49499750  0.49695201  1
  O  O421  1  0.87951079  0.49408199  0.99653975  1
  O  O422  1  0.87785494  0.99572302  0.49482462  1
  O  O423  1  0.88145277  0.99347806  0.99931424  1
  O  O424  1  0.11882653  0.01132399  0.00317030  1
  O  O425  1  0.11915072  0.00633599  0.50556902  1
  O  O426  1  0.11967105  0.50374815  0.00560836  1
  O  O427  1  0.12049610  0.50600893  0.50528514  1
  O  O428  1  0.61798282  0.00046012  0.00724435  1
  O  O429  1  0.62670753  -0.00214046  0.51240243  1
  O  O430  1  0.61886185  0.50601677  0.00050337  1
  O  O431  1  0.61962371  0.50429884  0.50486222  1
  O  O432  1  0.36978341  0.36982065  0.11964189  1
  O  O433  1  0.37359170  0.36325379  0.61857139  1
  O  O434  1  0.37017151  0.86893719  0.11914218  1
  O  O435  1  0.36715378  0.86691602  0.62464583  1
  O  O436  1  0.86997477  0.36913550  0.12090975  1
  O  O437  1  0.86838395  0.37372722  0.61621698  1
  O  O438  1  0.87460487  0.86861541  0.11855330  1
  O  O439  1  0.87042642  0.87064677  0.62096585  1
  O  O440  1  0.12897928  0.13131495  0.38150103  1
  O  O441  1  0.13227829  0.12462839  0.88458105  1
  O  O442  1  0.13143038  0.63079689  0.37983488  1
  O  O443  1  0.13604565  0.62544369  0.88166131  1
  O  O444  1  0.62781409  0.13441696  0.37655516  1
  O  O445  1  0.62996938  0.13455639  0.87336586  1
  O  O446  1  0.62678070  0.62749377  0.38296610  1
  O  O447  1  0.62744299  0.63201242  0.88131400  1
