# generated using pymatgen
data_V3Zn3O8
_symmetry_space_group_name_H-M   'P 1'
_cell_length_a   17.08919664
_cell_length_b   17.08935103
_cell_length_c   17.08827287
_cell_angle_alpha   90.01088541
_cell_angle_beta   90.00503054
_cell_angle_gamma   89.99601733
_symmetry_Int_Tables_number   1
_chemical_formula_structural   V3Zn3O8
_chemical_formula_sum   'V96 Zn96 O256'
_cell_volume   4990.51514128
_cell_formula_units_Z   32
loop_
 _symmetry_equiv_pos_site_id
 _symmetry_equiv_pos_as_xyz
  1  'x, y, z'
loop_
 _atom_site_type_symbol
 _atom_site_label
 _atom_site_symmetry_multiplicity
 _atom_site_fract_x
 _atom_site_fract_y
 _atom_site_fract_z
 _atom_site_occupancy
  V  V0  1  0.49984909  0.62552296  0.12488332  1
  V  V1  1  0.62536603  0.37555403  0.24886730  1
  V  V2  1  0.12451353  0.49957803  0.62645207  1
  V  V3  1  0.25045041  0.12564680  0.87587686  1
  V  V4  1  0.87437897  0.87351664  0.00078371  1
  V  V5  1  0.62565719  -0.00063550  0.62616098  1
  V  V6  1  0.12507994  0.24924476  0.37476514  1
  V  V7  1  -0.00160016  0.74856793  0.25011457  1
  V  V8  1  0.12466747  0.00002198  0.62533532  1
  V  V9  1  0.87425950  0.37404960  0.50038498  1
  V  V10  1  0.49893448  0.75061655  0.74980104  1
  V  V11  1  0.24808433  0.75014670  0.50104455  1
  V  V12  1  0.25019706  0.00063321  0.75077662  1
  V  V13  1  0.75094591  0.75084776  -0.00043867  1
  V  V14  1  0.25056150  0.75129399  0.00186965  1
  V  V15  1  0.24973756  0.62556693  0.87565196  1
  V  V16  1  0.12480045  0.62497574  0.00083547  1
  V  V17  1  0.00084157  0.37422142  0.37500295  1
  V  V18  1  0.37407965  0.75073685  0.62661972  1
  V  V19  1  0.87489358  0.24985984  0.62452743  1
  V  V20  1  0.00043087  0.24917868  0.75035857  1
  V  V21  1  0.62424986  0.75080929  0.87335563  1
  V  V22  1  0.37522124  0.74973899  0.12499333  1
  V  V23  1  0.12658537  0.37437370  0.24967579  1
  V  V24  1  0.25064983  0.24964379  0.49984397  1
  V  V25  1  0.87578871  0.62409942  0.25006501  1
  V  V26  1  0.87449355  0.62519551  0.74907727  1
  V  V27  1  0.50043497  0.00025928  -0.00038910  1
  V  V28  1  0.50057562  0.50059256  -0.00115023  1
  V  V29  1  0.24948541  0.87571849  0.62509487  1
  V  V30  1  0.37427692  0.87588684  0.49948271  1
  V  V31  1  0.37446626  0.62618204  0.74973091  1
  V  V32  1  0.75185694  0.50083439  0.24952117  1
  V  V33  1  0.74969943  0.62501321  0.87383154  1
  V  V34  1  0.62498249  0.49746800  0.62476240  1
  V  V35  1  0.62498415  0.25025852  0.87418690  1
  V  V36  1  0.62728145  -0.00053818  0.12496797  1
  V  V37  1  0.87336587  0.87420786  0.50201992  1
  V  V38  1  0.75029585  0.12571022  0.37495089  1
  V  V39  1  0.75094483  0.37538955  0.12446030  1
  V  V40  1  0.62507979  0.62608743  0.49765429  1
  V  V41  1  0.87372161  -0.00062836  0.37597786  1
  V  V42  1  0.37451544  0.12287879  0.25188584  1
  V  V43  1  0.37582523  0.00036659  0.87631716  1
  V  V44  1  -0.00091930  0.87441587  0.37613732  1
  V  V45  1  -0.00145609  0.62501698  0.62576300  1
  V  V46  1  0.12627291  0.50024206  0.12543445  1
  V  V47  1  0.50185955  0.12577932  0.12517014  1
  V  V48  1  0.00186517  0.00104164  0.00410334  1
  V  V49  1  0.37534827  0.50052237  0.87443721  1
  V  V50  1  0.49928738  0.37566743  0.37427254  1
  V  V51  1  0.37634166  0.25122231  0.12381658  1
  V  V52  1  0.75001788  -0.00156034  0.25026018  1
  V  V53  1  0.87404939  0.74951491  0.62556553  1
  V  V54  1  0.12478551  0.25065725  0.87481055  1
  V  V55  1  0.00099818  0.87470420  0.87620863  1
  V  V56  1  0.12491919  0.75084973  0.87624113  1
  V  V57  1  0.87802048  0.24775724  0.12625101  1
  V  V58  1  0.62577752  0.12497765  -0.00000081  1
  V  V59  1  0.37528688  0.87574776  0.00125711  1
  V  V60  1  0.00021506  0.50029517  -0.00105551  1
  V  V61  1  0.62458801  0.87530100  0.74955191  1
  V  V62  1  0.50090051  0.37501358  0.87361537  1
  V  V63  1  0.49708787  0.50016050  0.49880217  1
  V  V64  1  0.12509354  0.87501702  0.75192445  1
  V  V65  1  0.37528643  0.37501035  -0.00020376  1
  V  V66  1  0.50200427  0.25118977  0.24936827  1
  V  V67  1  0.87501528  0.49940155  0.37442767  1
  V  V68  1  0.75131417  0.12421575  0.87392542  1
  V  V69  1  0.62545120  0.62558660  -0.00162891  1
  V  V70  1  0.50012095  0.12539592  0.62425771  1
  V  V71  1  -0.00066088  -0.00106393  0.50120769  1
  V  V72  1  0.75072077  0.25029787  -0.00093516  1
  V  V73  1  0.74887697  0.49891826  0.74816889  1
  V  V74  1  -0.00029241  0.12468254  0.62607379  1
  V  V75  1  0.87460631  0.00108131  0.87502474  1
  V  V76  1  0.62429901  0.12556414  0.49884835  1
  V  V77  1  0.87562160  0.37590781  -0.00131388  1
  V  V78  1  0.12473391  0.12462958  0.49911389  1
  V  V79  1  0.62593025  0.50040653  0.12340654  1
  V  V80  1  0.25064182  0.62367774  0.37464284  1
  V  V81  1  -0.00085140  0.49992696  0.50051675  1
  V  V82  1  0.12513917  0.12513972  0.00183452  1
  V  V83  1  0.87486135  0.49980493  0.87467150  1
  V  V84  1  0.74895558  0.74969979  0.50032418  1
  V  V85  1  0.12525804  0.37487758  0.75003794  1
  V  V86  1  0.49846854  0.87514678  0.37558880  1
  V  V87  1  0.37447774  0.25061152  0.62405063  1
  V  V88  1  0.24927597  0.49983338  0.74965124  1
  V  V89  1  0.62489531  0.87452520  0.24992279  1
  V  V90  1  0.37494257  0.12534283  0.74996290  1
  V  V91  1  0.50007988  0.74901631  0.24905475  1
  V  V92  1  0.12604746  0.87642300  0.24954383  1
  V  V93  1  0.12431712  0.62515676  0.50105589  1
  V  V94  1  0.25121454  0.25093601  0.00010702  1
  V  V95  1  0.50008050  0.25061490  0.75003643  1
  Zn  Zn96  1  0.50015957  0.87594590  0.87513163  1
  Zn  Zn97  1  0.25072414  -0.00135000  0.25019000  1
  Zn  Zn98  1  -0.00094233  0.62569109  0.12473592  1
  Zn  Zn99  1  0.37226096  0.00068595  0.37629700  1
  Zn  Zn100  1  0.62614209  0.37345998  0.74848556  1
  Zn  Zn101  1  0.37304535  0.37588567  0.49958660  1
  Zn  Zn102  1  0.24937890  0.12191907  0.37307074  1
  Zn  Zn103  1  -0.00048858  0.37451559  0.87432073  1
  Zn  Zn104  1  0.25261003  0.50081019  0.25030992  1
  Zn  Zn105  1  0.62715606  0.25109083  0.37468577  1
  Zn  Zn106  1  0.37350964  0.49984367  0.37147385  1
  Zn  Zn107  1  0.00079916  0.24604642  0.25068433  1
  Zn  Zn108  1  0.87406538  0.12409841  0.74969280  1
  Zn  Zn109  1  0.75019793  0.87516276  0.62670268  1
  Zn  Zn110  1  0.87343694  0.74865624  0.12442664  1
  Zn  Zn111  1  0.75254633  -0.00060795  0.75021492  1
  Zn  Zn112  1  -0.00093566  0.75019420  0.75123914  1
  Zn  Zn113  1  0.62626277  0.74946617  0.37361217  1
  Zn  Zn114  1  0.25239153  0.37610727  0.12602026  1
  Zn  Zn115  1  0.75022203  0.62579299  0.37351680  1
  Zn  Zn116  1  0.12428048  0.75000575  0.37656028  1
  Zn  Zn117  1  0.00284008  0.12509275  0.12898263  1
  Zn  Zn118  1  0.74974484  0.37193050  0.62398768  1
  Zn  Zn119  1  0.12923761  0.00216515  0.12717483  1
  Zn  Zn120  1  0.87733213  0.12329205  0.24944972  1
  Zn  Zn121  1  0.75147398  0.87296818  0.12618772  1
  Zn  Zn122  1  0.37425220  0.62348412  0.25001677  1
  Zn  Zn123  1  0.25002441  0.87660999  0.12708920  1
  Zn  Zn124  1  0.49728420  0.00029752  0.49877422  1
  Zn  Zn125  1  0.49766611  0.62527410  0.62401210  1
  Zn  Zn126  1  0.25135691  0.37623979  0.62408783  1
  Zn  Zn127  1  0.75008798  0.25176499  0.50061464  1
  Zn  Zn128  1  0.18941338  0.18828790  0.18522172  1
  Zn  Zn129  1  0.18735874  0.18778729  0.68688156  1
  Zn  Zn130  1  0.18663963  0.68931824  0.18858654  1
  Zn  Zn131  1  0.18634194  0.68784561  0.68878012  1
  Zn  Zn132  1  0.68952716  0.18765209  0.18793394  1
  Zn  Zn133  1  0.68956563  0.18664380  0.68845747  1
  Zn  Zn134  1  0.68804088  0.68835845  0.18635893  1
  Zn  Zn135  1  0.68663461  0.68673904  0.68554780  1
  Zn  Zn136  1  0.31265591  0.31037594  0.31249953  1
  Zn  Zn137  1  0.31208399  0.31362033  0.81194542  1
  Zn  Zn138  1  0.31257358  0.80861901  0.31327300  1
  Zn  Zn139  1  0.31247955  0.81385067  0.81483222  1
  Zn  Zn140  1  0.81296534  0.31218066  0.31222917  1
  Zn  Zn141  1  0.81230775  0.31341007  0.80947936  1
  Zn  Zn142  1  0.81128118  0.81103603  0.31471761  1
  Zn  Zn143  1  0.81150636  0.81460356  0.81194714  1
  Zn  Zn144  1  0.18682820  0.43760910  0.43821785  1
  Zn  Zn145  1  0.18774780  0.43655181  0.93711433  1
  Zn  Zn146  1  0.18809935  0.93896936  0.43315226  1
  Zn  Zn147  1  0.18867240  0.93775334  0.93937244  1
  Zn  Zn148  1  0.68851613  0.43750222  0.43650671  1
  Zn  Zn149  1  0.68842222  0.43673640  0.93596267  1
  Zn  Zn150  1  0.68633232  0.93675194  0.43805655  1
  Zn  Zn151  1  0.68850503  0.93649329  0.93637090  1
  Zn  Zn152  1  0.31144774  0.06118382  0.06665028  1
  Zn  Zn153  1  0.31266457  0.06232535  0.56137826  1
  Zn  Zn154  1  0.31236786  0.56332014  0.06264004  1
  Zn  Zn155  1  0.31148256  0.56403410  0.56308702  1
  Zn  Zn156  1  0.81301100  0.06175715  0.06165974  1
  Zn  Zn157  1  0.81163624  0.06359121  0.56255562  1
  Zn  Zn158  1  0.81412029  0.56499010  0.06304380  1
  Zn  Zn159  1  0.81091156  0.56215448  0.56172599  1
  Zn  Zn160  1  0.43646243  0.44017093  0.18783855  1
  Zn  Zn161  1  0.43685640  0.43597464  0.68608750  1
  Zn  Zn162  1  0.43909560  0.93719865  0.18625573  1
  Zn  Zn163  1  0.43889355  0.93775968  0.68748340  1
  Zn  Zn164  1  0.94016522  0.43613197  0.18702749  1
  Zn  Zn165  1  0.93752296  0.43545211  0.68811902  1
  Zn  Zn166  1  0.93554900  0.93477981  0.18787547  1
  Zn  Zn167  1  0.93737636  0.93659440  0.68956782  1
  Zn  Zn168  1  0.06002582  0.06261600  0.31254227  1
  Zn  Zn169  1  0.06193767  0.06311439  0.81449177  1
  Zn  Zn170  1  0.06389924  0.56220197  0.31352593  1
  Zn  Zn171  1  0.06113350  0.56302551  0.81289821  1
  Zn  Zn172  1  0.56173835  0.06041170  0.31178279  1
  Zn  Zn173  1  0.56290251  0.06339889  0.81205509  1
  Zn  Zn174  1  0.56303332  0.56204744  0.31124159  1
  Zn  Zn175  1  0.56139557  0.56423902  0.81028802  1
  Zn  Zn176  1  0.43861942  0.18959855  0.43630675  1
  Zn  Zn177  1  0.43829161  0.18716793  0.93732810  1
  Zn  Zn178  1  0.43550060  0.68935547  0.43712801  1
  Zn  Zn179  1  0.43756345  0.68901116  0.93720084  1
  Zn  Zn180  1  0.93835458  0.18763267  0.43825162  1
  Zn  Zn181  1  0.93815379  0.18665834  0.93786527  1
  Zn  Zn182  1  0.93580533  0.68692541  0.43683104  1
  Zn  Zn183  1  0.93794437  0.68702504  0.93691760  1
  Zn  Zn184  1  0.06228544  0.31402200  0.06144002  1
  Zn  Zn185  1  0.06238817  0.31283612  0.56343265  1
  Zn  Zn186  1  0.06207377  0.81294943  0.06571019  1
  Zn  Zn187  1  0.06122356  0.81181790  0.56440253  1
  Zn  Zn188  1  0.56277392  0.31311964  0.06132320  1
  Zn  Zn189  1  0.56114123  0.31187744  0.56124092  1
  Zn  Zn190  1  0.56301038  0.81358428  0.06243791  1
  Zn  Zn191  1  0.56060196  0.81245407  0.56323827  1
  O  O192  1  0.12297528  0.12350842  0.11698541  1
  O  O193  1  0.11982829  0.11886709  0.61949662  1
  O  O194  1  0.12377177  0.61580929  0.11992187  1
  O  O195  1  0.11884087  0.61934388  0.62125663  1
  O  O196  1  0.62131373  0.12040637  0.11938990  1
  O  O197  1  0.62051568  0.11843016  0.61778609  1
  O  O198  1  0.61998751  0.61909656  0.11760592  1
  O  O199  1  0.62210180  0.61460252  0.61460928  1
  O  O200  1  0.38830336  0.37612432  0.37597058  1
  O  O201  1  0.38120520  0.38109262  0.87962539  1
  O  O202  1  0.38376770  0.87336226  0.38031831  1
  O  O203  1  0.37634387  0.88318005  0.88222805  1
  O  O204  1  0.88119953  0.37968857  0.37947168  1
  O  O205  1  0.87499902  0.38212792  0.88129425  1
  O  O206  1  0.87962502  0.88033770  0.38259764  1
  O  O207  1  0.88126198  0.88048442  0.88086834  1
  O  O208  1  0.25472161  0.00454100  0.36827190  1
  O  O209  1  0.25577263  0.00660388  0.87026567  1
  O  O210  1  0.25094853  0.51092945  0.37693597  1
  O  O211  1  0.25580377  0.50623396  0.87020667  1
  O  O212  1  0.75369375  0.00748104  0.37118118  1
  O  O213  1  0.75683222  0.00719751  0.87622666  1
  O  O214  1  0.75704041  0.50058303  0.36683201  1
  O  O215  1  0.75449977  0.50602335  0.86913677  1
  O  O216  1  0.23737382  0.49825993  0.12484237  1
  O  O217  1  0.24290958  0.49984926  0.63167740  1
  O  O218  1  0.24715612  0.99480182  0.13201652  1
  O  O219  1  0.24416070  0.99540960  0.63112543  1
  O  O220  1  0.74523081  0.49451345  0.12878327  1
  O  O221  1  0.73958415  0.49943866  0.62915018  1
  O  O222  1  0.74410812  0.99933291  0.13169757  1
  O  O223  1  0.73645726  1.00019846  0.62591538  1
  O  O224  1  0.01170507  0.37356235  0.25598593  1
  O  O225  1  0.00739748  0.36774098  0.75210478  1
  O  O226  1  0.00446628  0.86697072  0.25619648  1
  O  O227  1  0.00796557  0.87408591  0.75809523  1
  O  O228  1  0.50573733  0.37202099  0.25608139  1
  O  O229  1  0.50161401  0.36856854  0.75648819  1
  O  O230  1  0.50456331  0.86935306  0.25707647  1
  O  O231  1  0.50609510  0.86857312  0.75215232  1
  O  O232  1  0.49554790  0.13130973  0.24436046  1
  O  O233  1  0.49394495  0.13108963  0.74459094  1
  O  O234  1  0.50099485  0.63096643  0.24240948  1
  O  O235  1  0.49167876  0.63178951  0.74768365  1
  O  O236  1  0.99483073  0.12830847  0.24656802  1
  O  O237  1  1.00021420  0.13107856  0.74327915  1
  O  O238  1  0.99572155  0.63372290  0.25163586  1
  O  O239  1  0.99253976  0.62618623  0.74366203  1
  O  O240  1  0.37167679  0.25509910  0.00401941  1
  O  O241  1  0.36627843  0.24940099  0.50497473  1
  O  O242  1  0.37035334  0.75552904  0.00452525  1
  O  O243  1  0.36799917  0.75599458  0.50746858  1
  O  O244  1  0.86980198  0.25579004  0.00657429  1
  O  O245  1  0.87563622  0.25602178  0.50754615  1
  O  O246  1  0.86905281  0.75549394  -0.00118522  1
  O  O247  1  0.86938473  0.75434755  0.50563956  1
  O  O248  1  0.13216662  0.24515495  0.49601010  1
  O  O249  1  0.13098945  0.24592105  0.99475635  1
  O  O250  1  0.13023425  0.74330883  0.50105949  1
  O  O251  1  0.13009908  0.74512587  0.99595456  1
  O  O252  1  0.62651436  0.23672497  0.49897388  1
  O  O253  1  0.63076530  0.24482657  0.99489165  1
  O  O254  1  0.62851502  0.73945236  0.50222339  1
  O  O255  1  0.62966478  0.74450063  0.99354643  1
  O  O256  1  0.49634459  0.24537286  0.12916704  1
  O  O257  1  0.49494267  0.24438472  0.62978448  1
  O  O258  1  0.49563504  0.74421303  0.12873609  1
  O  O259  1  0.49142266  0.74855789  0.63168285  1
  O  O260  1  0.98823123  0.25036625  0.12396710  1
  O  O261  1  0.99521804  0.24374731  0.62984979  1
  O  O262  1  0.99765524  0.74801904  0.13864716  1
  O  O263  1  0.99253847  0.74267517  0.62749521  1
  O  O264  1  0.00722422  0.25705981  0.37486838  1
  O  O265  1  0.00742432  0.25030239  0.86923914  1
  O  O266  1  -0.00031175  0.75568184  0.36655958  1
  O  O267  1  0.00767376  0.75664746  0.87469772  1
  O  O268  1  0.50400809  0.26041812  0.36891258  1
  O  O269  1  0.50496689  0.25463735  0.86982734  1
  O  O270  1  0.50122166  0.75943761  0.36928269  1
  O  O271  1  0.50663219  0.75124426  0.86807526  1
  O  O272  1  0.24366902  0.13454198  0.49966510  1
  O  O273  1  0.24636257  0.13086801  0.99476946  1
  O  O274  1  0.24377849  0.63030495  0.49479098  1
  O  O275  1  0.24455386  0.63072559  0.99408376  1
  O  O276  1  0.74086261  0.12386390  0.49039095  1
  O  O277  1  0.74426835  0.13117473  0.99458674  1
  O  O278  1  0.73987206  0.62939494  0.49857785  1
  O  O279  1  0.74444330  0.62942855  0.99311457  1
  O  O280  1  0.25824958  0.36864786  -0.00026573  1
  O  O281  1  0.25105043  0.36246860  0.50102682  1
  O  O282  1  0.25696729  0.86810639  0.00153202  1
  O  O283  1  0.25332848  0.87020639  0.50585774  1
  O  O284  1  0.75544577  0.37006265  0.00524966  1
  O  O285  1  0.75779073  0.37241430  0.50131066  1
  O  O286  1  0.75668330  0.86807974  -0.00042001  1
  O  O287  1  0.75553392  0.86854852  0.50226580  1
  O  O288  1  0.12524119  0.49182571  0.24181049  1
  O  O289  1  0.12987198  0.49592281  0.74599811  1
  O  O290  1  0.12168685  0.98709885  0.24983595  1
  O  O291  1  0.13097972  0.99528204  0.74585425  1
  O  O292  1  0.63086879  0.49502550  0.24246857  1
  O  O293  1  0.62831064  0.50136008  0.73900889  1
  O  O294  1  0.63004574  0.99457939  0.24421244  1
  O  O295  1  0.62376138  0.99537326  0.74058767  1
  O  O296  1  0.37855843  0.01339152  0.24903293  1
  O  O297  1  0.36969628  0.00595810  0.75498077  1
  O  O298  1  0.37043860  0.50529898  0.25260292  1
  O  O299  1  0.36996450  0.50570724  0.75504549  1
  O  O300  1  0.86825678  -0.00044271  0.25828611  1
  O  O301  1  0.87432901  0.00235027  0.75924897  1
  O  O302  1  0.87172273  0.50330346  0.25433810  1
  O  O303  1  0.86922810  0.50535217  0.75434649  1
  O  O304  1  0.12050539  0.37058416  0.36783235  1
  O  O305  1  0.12389786  0.36815475  0.86860669  1
  O  O306  1  0.11662157  0.87254956  0.36758157  1
  O  O307  1  0.12123117  0.87028446  0.87122474  1
  O  O308  1  0.61556905  0.37515392  0.36819961  1
  O  O309  1  0.61833435  0.36811891  0.87428183  1
  O  O310  1  0.61450317  0.87389337  0.36993724  1
  O  O311  1  0.62280998  0.86860892  0.86789214  1
  O  O312  1  0.38288408  0.13162576  0.13178133  1
  O  O313  1  0.38019919  0.12978892  0.63076597  1
  O  O314  1  0.38287619  0.63179279  0.12366211  1
  O  O315  1  0.37433035  0.63286191  0.63225977  1
  O  O316  1  0.87471755  0.13719977  0.12479053  1
  O  O317  1  0.88241343  0.13129117  0.62474763  1
  O  O318  1  0.87931387  0.62673372  0.13410832  1
  O  O319  1  0.87948583  0.62912890  0.62949578  1
  O  O320  1  0.25880466  0.25312614  0.11692042  1
  O  O321  1  0.25496588  0.24991056  0.61533538  1
  O  O322  1  0.25669502  0.75053094  0.11826956  1
  O  O323  1  0.25399700  0.75662381  0.62139904  1
  O  O324  1  0.75753690  0.25569580  0.11896394  1
  O  O325  1  0.75937888  0.25032914  0.62237448  1
  O  O326  1  0.75181109  0.75179513  0.11509816  1
  O  O327  1  0.75636207  0.75040310  0.61776532  1
  O  O328  1  0.24447677  0.24730156  0.38478216  1
  O  O329  1  0.24556422  0.24431621  0.88004101  1
  O  O330  1  0.24735710  0.74050293  0.38358885  1
  O  O331  1  0.24498510  0.74467404  0.88160744  1
  O  O332  1  0.74820584  0.23814638  0.37626464  1
  O  O333  1  0.74504217  0.24541088  0.88025664  1
  O  O334  1  0.74599839  0.74595564  0.38459108  1
  O  O335  1  0.74374835  0.74351645  0.87916578  1
  O  O336  1  0.00627678  0.11522804  0.00054413  1
  O  O337  1  0.00578291  0.11817368  0.50593313  1
  O  O338  1  0.00745988  0.61842661  0.00118989  1
  O  O339  1  0.00395077  0.61907770  0.50552828  1
  O  O340  1  0.50625160  0.12081517  0.00569742  1
  O  O341  1  0.50902244  0.12397877  0.50426358  1
  O  O342  1  0.50609364  0.61967650  0.00383620  1
  O  O343  1  0.50717265  0.61676587  0.49977550  1
  O  O344  1  0.50134336  0.38348515  0.49030384  1
  O  O345  1  0.49523251  0.38106814  0.99357216  1
  O  O346  1  0.49385734  0.87429665  0.49077080  1
  O  O347  1  0.49395475  0.88275995  0.99826445  1
  O  O348  1  0.99545382  0.38114106  0.49456456  1
  O  O349  1  0.99346605  0.38241031  0.99697949  1
  O  O350  1  0.99413967  0.87986802  0.49630701  1
  O  O351  1  0.99623171  0.88226328  0.99523066  1
  O  O352  1  0.50069942  0.49231180  0.38282344  1
  O  O353  1  0.49491195  0.49593875  0.87949738  1
  O  O354  1  0.49725405  0.98635110  0.37544624  1
  O  O355  1  0.49343270  1.00132619  0.88192311  1
  O  O356  1  0.99536531  0.49385504  0.38121091  1
  O  O357  1  0.99245369  0.49905843  0.88089182  1
  O  O358  1  0.99307401  0.99440177  0.38293041  1
  O  O359  1  0.99605841  0.99510378  0.88528932  1
  O  O360  1  -0.00016224  -0.00017630  0.11198323  1
  O  O361  1  0.00579642  0.00418282  0.62037425  1
  O  O362  1  0.01179201  0.50022501  0.11883346  1
  O  O363  1  0.00431637  0.50570384  0.62007223  1
  O  O364  1  0.50743366  0.00690754  0.11920929  1
  O  O365  1  0.50971237  0.00692122  0.62373433  1
  O  O366  1  0.50673995  0.50495597  0.11767539  1
  O  O367  1  0.50744836  0.50059339  0.61548226  1
  O  O368  1  0.23799468  0.37674993  0.24974730  1
  O  O369  1  0.24371374  0.38250246  0.74885826  1
  O  O370  1  0.23687478  0.87100014  0.25162553  1
  O  O371  1  0.24513555  0.88154564  0.74532870  1
  O  O372  1  0.74518106  0.38087607  0.24390445  1
  O  O373  1  0.74573861  0.38350621  0.74579965  1
  O  O374  1  0.74293596  0.88097342  0.25099221  1
  O  O375  1  0.74032007  0.87863943  0.74676075  1
  O  O376  1  0.26411548  0.12763573  0.25017129  1
  O  O377  1  0.25514475  0.11998976  0.75555665  1
  O  O378  1  0.24814956  0.62525222  0.26311766  1
  O  O379  1  0.25443720  0.61986649  0.75668255  1
  O  O380  1  0.75009775  0.11837187  0.26087413  1
  O  O381  1  0.75242610  0.12128142  0.75924601  1
  O  O382  1  0.75624364  0.61795698  0.25056619  1
  O  O383  1  0.75450197  0.61900062  0.75474918  1
  O  O384  1  0.37755252  0.12534361  0.36277162  1
  O  O385  1  0.36986163  0.12051865  0.86951178  1
  O  O386  1  0.36281841  0.62421711  0.37538255  1
  O  O387  1  0.36909010  0.61994522  0.87034028  1
  O  O388  1  0.86471874  0.11861242  0.37740066  1
  O  O389  1  0.86864900  0.11893678  0.87553012  1
  O  O390  1  0.87406334  0.61600050  0.36849904  1
  O  O391  1  0.86868593  0.61932902  0.86923003  1
  O  O392  1  0.12614229  0.38260120  0.13258344  1
  O  O393  1  0.12633385  0.38224118  0.63194011  1
  O  O394  1  0.12548115  0.87639796  0.13761301  1
  O  O395  1  0.13004007  0.88079779  0.63117540  1
  O  O396  1  0.63095568  0.38099389  0.12824967  1
  O  O397  1  0.62519479  0.38698226  0.62397991  1
  O  O398  1  0.62622260  0.88251359  0.13160653  1
  O  O399  1  0.62365589  0.88503455  0.62943267  1
  O  O400  1  0.12528268  0.25944938  0.25451922  1
  O  O401  1  0.12100637  0.25452257  0.75515275  1
  O  O402  1  0.11388482  0.75727261  0.25283492  1
  O  O403  1  0.12463061  0.75716194  0.75811846  1
  O  O404  1  0.61968041  0.25760240  0.24972921  1
  O  O405  1  0.61752589  0.25003681  0.75589644  1
  O  O406  1  0.61826032  0.75594844  0.25065214  1
  O  O407  1  0.61926688  0.75441962  0.75326920  1
  O  O408  1  0.38244189  0.24378363  0.24385338  1
  O  O409  1  0.37973896  0.24398391  0.74520976  1
  O  O410  1  0.38254320  0.74705616  0.24260601  1
  O  O411  1  0.37794814  0.74578516  0.74625066  1
  O  O412  1  0.87584856  0.25014863  0.23767267  1
  O  O413  1  0.88242401  0.24855715  0.74229386  1
  O  O414  1  0.88355989  0.74419580  0.25145678  1
  O  O415  1  0.87521887  0.74281570  0.74431224  1
  O  O416  1  0.38747169  0.49956071  0.49973869  1
  O  O417  1  0.38087389  0.49566236  0.99386368  1
  O  O418  1  0.37764580  0.99193502  0.49885308  1
  O  O419  1  0.38073948  0.99662868  0.99584853  1
  O  O420  1  0.88052830  0.49486100  0.49489813  1
  O  O421  1  0.87932980  0.49574118  0.99466838  1
  O  O422  1  0.87981686  0.99404658  0.49637121  1
  O  O423  1  0.88353064  0.99472794  0.99487462  1
  O  O424  1  0.11617094  0.00538118  -0.00048288  1
  O  O425  1  0.11935940  0.00398444  0.50596526  1
  O  O426  1  0.12119180  0.50416925  0.00668521  1
  O  O427  1  0.11833867  0.50478536  0.50683390  1
  O  O428  1  0.62058737  0.00603832  0.00451473  1
  O  O429  1  0.62246406  0.00917364  0.50820550  1
  O  O430  1  0.62045481  0.50551093  0.00360964  1
  O  O431  1  0.61761381  0.50647744  0.50557515  1
  O  O432  1  0.37587931  0.36935067  0.11752784  1
  O  O433  1  0.37245449  0.36629167  0.62123901  1
  O  O434  1  0.37551492  0.86733851  0.11873877  1
  O  O435  1  0.36811324  0.87081572  0.62094876  1
  O  O436  1  0.86997848  0.36822886  0.11923094  1
  O  O437  1  0.87541432  0.36741782  0.61807464  1
  O  O438  1  0.87216178  0.87113602  0.11584429  1
  O  O439  1  0.87398295  0.86863875  0.61926507  1
  O  O440  1  0.12488897  0.13163844  0.38191582  1
  O  O441  1  0.13202490  0.13077530  0.88088178  1
  O  O442  1  0.13263225  0.62585254  0.38349480  1
  O  O443  1  0.13083165  0.63005696  0.88064668  1
  O  O444  1  0.63233681  0.12297848  0.38276717  1
  O  O445  1  0.62985795  0.13091773  0.88120527  1
  O  O446  1  0.62586041  0.62478236  0.38726943  1
  O  O447  1  0.63037780  0.63003100  0.87915924  1
