# generated using pymatgen
data_V3Zn3O8
_symmetry_space_group_name_H-M   'P 1'
_cell_length_a   17.08980915
_cell_length_b   17.09045579
_cell_length_c   17.08965593
_cell_angle_alpha   89.99231716
_cell_angle_beta   89.99590428
_cell_angle_gamma   90.00379386
_symmetry_Int_Tables_number   1
_chemical_formula_structural   V3Zn3O8
_chemical_formula_sum   'V96 Zn96 O256'
_cell_volume   4991.42064442
_cell_formula_units_Z   32
loop_
 _symmetry_equiv_pos_site_id
 _symmetry_equiv_pos_as_xyz
  1  'x, y, z'
loop_
 _atom_site_type_symbol
 _atom_site_label
 _atom_site_symmetry_multiplicity
 _atom_site_fract_x
 _atom_site_fract_y
 _atom_site_fract_z
 _atom_site_occupancy
  V  V0  1  0.37438954  0.24992816  0.12604264  1
  V  V1  1  0.62365041  0.87499588  0.24808974  1
  V  V2  1  0.62629271  0.24887688  0.87419575  1
  V  V3  1  0.37562578  0.75067251  0.62551347  1
  V  V4  1  0.12239057  0.50236422  0.62436082  1
  V  V5  1  0.37632279  0.87593229  0.00031617  1
  V  V6  1  0.75052761  0.24886198  -0.00095332  1
  V  V7  1  0.87425560  0.49961562  0.87536346  1
  V  V8  1  0.87537509  0.62582987  0.74664136  1
  V  V9  1  0.37430002  0.00040555  0.37632593  1
  V  V10  1  0.37509161  0.62660879  0.75127665  1
  V  V11  1  0.37317654  0.62614563  0.24858340  1
  V  V12  1  0.37384112  0.12454396  0.25200588  1
  V  V13  1  0.37708905  0.00028955  0.87598855  1
  V  V14  1  0.25122678  0.87562337  0.62611298  1
  V  V15  1  -0.00023003  0.12466418  0.12624878  1
  V  V16  1  0.12562909  0.74954013  0.87563247  1
  V  V17  1  -0.00088035  0.49989627  0.00019868  1
  V  V18  1  -0.00134742  -0.00023111  0.49951236  1
  V  V19  1  0.49962997  0.37550498  0.87561961  1
  V  V20  1  0.62580783  0.24851166  0.37559607  1
  V  V21  1  0.37667168  0.12588023  0.75049331  1
  V  V22  1  0.87602101  -0.00040265  0.87369174  1
  V  V23  1  0.37486851  0.50016208  0.37562808  1
  V  V24  1  0.12296654  0.37497307  0.25175760  1
  V  V25  1  0.62646830  0.87525955  0.74832815  1
  V  V26  1  0.50007546  0.62521490  0.62474979  1
  V  V27  1  0.62521510  0.75052155  0.87362747  1
  V  V28  1  0.37639645  0.49957513  0.87579749  1
  V  V29  1  0.24986216  0.62578247  0.87647650  1
  V  V30  1  0.12661496  0.25116124  0.87663152  1
  V  V31  1  0.49971926  0.24955677  0.25024792  1
  V  V32  1  0.62403621  0.37390053  0.24946324  1
  V  V33  1  0.75082395  0.12481217  0.87503719  1
  V  V34  1  0.75138926  0.74961379  0.49981122  1
  V  V35  1  0.25168818  0.12557899  0.87674529  1
  V  V36  1  0.37664481  0.25094147  0.62644089  1
  V  V37  1  0.75003773  0.87436259  0.12467998  1
  V  V38  1  0.25028951  0.25069298  0.50105120  1
  V  V39  1  0.25085056  0.25055931  0.00219747  1
  V  V40  1  0.12400489  0.62468805  0.50085825  1
  V  V41  1  0.00237315  0.25025146  0.75168866  1
  V  V42  1  0.62623918  0.12427744  0.49856124  1
  V  V43  1  0.00090134  0.87481606  0.87416057  1
  V  V44  1  0.00065647  -0.00010149  0.00004006  1
  V  V45  1  0.62273426  0.74930858  0.37301628  1
  V  V46  1  0.75112792  -0.00055705  0.74805057  1
  V  V47  1  0.24990887  0.87498478  0.12527296  1
  V  V48  1  0.25047344  0.12638260  0.37666165  1
  V  V49  1  0.75089111  -0.00058615  0.24917595  1
  V  V50  1  0.12428356  0.62480583  -0.00022691  1
  V  V51  1  -0.00043854  0.62488821  0.12371630  1
  V  V52  1  0.74993043  0.12386151  0.37380490  1
  V  V53  1  0.87454755  0.37505360  -0.00008965  1
  V  V54  1  0.24830636  0.49954167  0.24958641  1
  V  V55  1  0.50106843  0.75214554  0.75090020  1
  V  V56  1  0.37558264  0.37624141  0.50017716  1
  V  V57  1  0.74848090  0.37371471  0.12367166  1
  V  V58  1  0.74774986  0.62323063  0.37182136  1
  V  V59  1  0.50201173  0.12252410  0.12329734  1
  V  V60  1  -0.00106791  0.25039880  0.25234822  1
  V  V61  1  0.25110952  0.37658735  0.62615816  1
  V  V62  1  0.74918359  0.49878286  0.74921899  1
  V  V63  1  0.49774250  0.62508618  0.12355480  1
  V  V64  1  0.87552795  0.87401794  -0.00094640  1
  V  V65  1  0.12347068  0.87506822  0.25078499  1
  V  V66  1  0.87232893  0.62362187  0.24861181  1
  V  V67  1  -0.00081296  0.74935631  0.74893429  1
  V  V68  1  0.25176966  0.00051447  0.75120742  1
  V  V69  1  0.62440208  0.49908539  0.62276985  1
  V  V70  1  0.24970205  0.62553785  0.37447964  1
  V  V71  1  0.24947616  0.75076401  0.50035359  1
  V  V72  1  0.12572757  0.12524263  0.00162896  1
  V  V73  1  0.62618377  0.37436143  0.74905711  1
  V  V74  1  0.62246402  0.49966959  0.12297314  1
  V  V75  1  0.12317161  0.75034141  0.37525995  1
  V  V76  1  0.50094201  -0.00038839  0.49904732  1
  V  V77  1  0.12727349  0.12659277  0.50169159  1
  V  V78  1  0.49929682  0.37521940  0.37513174  1
  V  V79  1  0.00222512  0.12693017  0.62760682  1
  V  V80  1  0.87430942  0.74936891  0.12440771  1
  V  V81  1  -0.00107895  0.75006841  0.25060760  1
  V  V82  1  0.12571392  0.87509608  0.75102974  1
  V  V83  1  0.50078526  0.24923591  0.74981009  1
  V  V84  1  0.25046263  0.50143643  0.75118113  1
  V  V85  1  0.12664879  0.00090170  0.62668290  1
  V  V86  1  0.12635088  0.37574522  0.75262711  1
  V  V87  1  0.62665101  -0.00012488  0.62321606  1
  V  V88  1  0.87782902  0.12598775  0.74990095  1
  V  V89  1  0.25069407  0.37411822  0.12637646  1
  V  V90  1  0.87498570  0.12350639  0.25029137  1
  V  V91  1  0.74846688  0.62551702  0.87477122  1
  V  V92  1  0.74911992  0.74907494  -0.00131164  1
  V  V93  1  0.12481122  -0.00029473  0.12657366  1
  V  V94  1  0.74843195  0.49956018  0.24898089  1
  V  V95  1  0.37539539  0.87620941  0.49941149  1
  Zn  Zn96  1  0.75290376  0.87503567  0.62153724  1
  Zn  Zn97  1  0.49704252  0.87425827  0.37211303  1
  Zn  Zn98  1  0.25031295  0.74878569  0.00045929  1
  Zn  Zn99  1  -0.00185816  0.62703495  0.62188163  1
  Zn  Zn100  1  0.49947409  0.50179852  0.49925213  1
  Zn  Zn101  1  -0.00510746  0.50031490  0.49529293  1
  Zn  Zn102  1  0.50140877  0.12535054  0.62417446  1
  Zn  Zn103  1  0.87582603  0.25360593  0.62351208  1
  Zn  Zn104  1  0.62269614  0.62374589  -0.00170328  1
  Zn  Zn105  1  0.37632032  0.37560403  0.00141685  1
  Zn  Zn106  1  0.87385587  0.24935131  0.12423456  1
  Zn  Zn107  1  0.62205058  0.62427898  0.49783484  1
  Zn  Zn108  1  0.24838183  0.00097002  0.25296395  1
  Zn  Zn109  1  0.00066230  0.37494090  0.87700859  1
  Zn  Zn110  1  0.87604227  0.37517929  0.50032631  1
  Zn  Zn111  1  0.50199382  0.87691292  0.87656340  1
  Zn  Zn112  1  0.87534790  0.75181591  0.62272561  1
  Zn  Zn113  1  0.12435819  0.50024344  0.12442714  1
  Zn  Zn114  1  0.49580755  0.75134721  0.24895791  1
  Zn  Zn115  1  0.62579613  -0.00053035  0.12112508  1
  Zn  Zn116  1  0.75375809  0.37091503  0.62236071  1
  Zn  Zn117  1  0.49934377  0.49836664  -0.00102412  1
  Zn  Zn118  1  0.87303923  0.49644293  0.37715482  1
  Zn  Zn119  1  0.50417346  0.00035018  -0.00203706  1
  Zn  Zn120  1  0.62649248  0.12149366  -0.00093564  1
  Zn  Zn121  1  0.12448167  0.25189473  0.37836065  1
  Zn  Zn122  1  0.87650914  0.87273299  0.49907904  1
  Zn  Zn123  1  0.87532819  -0.00306937  0.37549635  1
  Zn  Zn124  1  -0.00150234  0.87483239  0.37622672  1
  Zn  Zn125  1  0.37451213  0.75079365  0.12543795  1
  Zn  Zn126  1  -0.00445913  0.37906665  0.37735818  1
  Zn  Zn127  1  0.75577191  0.25075408  0.50154131  1
  Zn  Zn128  1  0.18650562  0.18851964  0.18995250  1
  Zn  Zn129  1  0.18929767  0.18895313  0.68890506  1
  Zn  Zn130  1  0.18577350  0.68884422  0.18672149  1
  Zn  Zn131  1  0.18752654  0.68779093  0.68838508  1
  Zn  Zn132  1  0.68750964  0.18759640  0.18721381  1
  Zn  Zn133  1  0.68937834  0.18605519  0.68505910  1
  Zn  Zn134  1  0.68492127  0.68708749  0.18551392  1
  Zn  Zn135  1  0.68708019  0.68616904  0.68559173  1
  Zn  Zn136  1  0.31220269  0.31190597  0.31348556  1
  Zn  Zn137  1  0.31345014  0.31357306  0.81327529  1
  Zn  Zn138  1  0.31077966  0.81264826  0.31190692  1
  Zn  Zn139  1  0.31319123  0.81276016  0.81467234  1
  Zn  Zn140  1  0.81266964  0.31219059  0.31432395  1
  Zn  Zn141  1  0.81374682  0.31267643  0.81110236  1
  Zn  Zn142  1  0.81386871  0.81362555  0.31536217  1
  Zn  Zn143  1  0.81133577  0.81271280  0.81140437  1
  Zn  Zn144  1  0.18657193  0.43798198  0.43803704  1
  Zn  Zn145  1  0.18856095  0.43824839  0.93972315  1
  Zn  Zn146  1  0.18610244  0.93848618  0.43795099  1
  Zn  Zn147  1  0.18889393  0.93809616  0.93854242  1
  Zn  Zn148  1  0.68992513  0.43440543  0.43909525  1
  Zn  Zn149  1  0.68624129  0.43728123  0.93792619  1
  Zn  Zn150  1  0.68835598  0.93628190  0.43523196  1
  Zn  Zn151  1  0.68735419  0.93782094  0.93650020  1
  Zn  Zn152  1  0.31404394  0.06120933  0.06405753  1
  Zn  Zn153  1  0.31448693  0.06380248  0.56351442  1
  Zn  Zn154  1  0.31225456  0.55945858  0.06150152  1
  Zn  Zn155  1  0.31183126  0.56343797  0.56218573  1
  Zn  Zn156  1  0.81342788  0.06188296  0.06317025  1
  Zn  Zn157  1  0.81373079  0.06701742  0.56358850  1
  Zn  Zn158  1  0.81047859  0.56169672  0.06182498  1
  Zn  Zn159  1  0.80888692  0.56106418  0.55893877  1
  Zn  Zn160  1  0.43650948  0.43886352  0.18859937  1
  Zn  Zn161  1  0.43956864  0.43773522  0.68952049  1
  Zn  Zn162  1  0.43630930  0.94005086  0.18853352  1
  Zn  Zn163  1  0.44062515  0.93844495  0.68669197  1
  Zn  Zn164  1  0.93510492  0.43797897  0.18648320  1
  Zn  Zn165  1  0.93809861  0.43472879  0.68801046  1
  Zn  Zn166  1  0.93690263  0.93689222  0.18802683  1
  Zn  Zn167  1  0.93610363  0.93566014  0.68301652  1
  Zn  Zn168  1  0.06409701  0.06400046  0.31526108  1
  Zn  Zn169  1  0.06449558  0.06338351  0.81411879  1
  Zn  Zn170  1  0.05999657  0.56212425  0.31242089  1
  Zn  Zn171  1  0.06079126  0.56234473  0.81388634  1
  Zn  Zn172  1  0.56206424  0.06058941  0.31205724  1
  Zn  Zn173  1  0.56344707  0.06177138  0.81195904  1
  Zn  Zn174  1  0.56034035  0.56178732  0.30879383  1
  Zn  Zn175  1  0.56218920  0.56267741  0.81078684  1
  Zn  Zn176  1  0.43858677  0.18743838  0.43930276  1
  Zn  Zn177  1  0.43831266  0.18988936  0.93889466  1
  Zn  Zn178  1  0.43775768  0.68730482  0.43795687  1
  Zn  Zn179  1  0.43791535  0.68979759  0.93895711  1
  Zn  Zn180  1  0.93564770  0.18702446  0.43772887  1
  Zn  Zn181  1  0.93777882  0.18836945  0.93720191  1
  Zn  Zn182  1  0.93635803  0.68158007  0.43550957  1
  Zn  Zn183  1  0.93702079  0.68661564  0.93546928  1
  Zn  Zn184  1  0.06171823  0.31284694  0.06501192  1
  Zn  Zn185  1  0.06001599  0.31537853  0.56265529  1
  Zn  Zn186  1  0.06253251  0.81125607  0.06272219  1
  Zn  Zn187  1  0.06214385  0.81281602  0.56454646  1
  Zn  Zn188  1  0.56261208  0.31027607  0.05992878  1
  Zn  Zn189  1  0.56362253  0.31228481  0.56065274  1
  Zn  Zn190  1  0.56178675  0.80960667  0.06192155  1
  Zn  Zn191  1  0.56362771  0.81433238  0.56136776  1
  O  O192  1  0.12024565  0.11933912  0.12060519  1
  O  O193  1  0.12314073  0.11925095  0.62227182  1
  O  O194  1  0.11734305  0.62486436  0.11811686  1
  O  O195  1  0.12786654  0.61656470  0.62072965  1
  O  O196  1  0.61323895  0.12395497  0.12500012  1
  O  O197  1  0.62331111  0.11700335  0.61730877  1
  O  O198  1  0.61415398  0.61879025  0.12436300  1
  O  O199  1  0.61751936  0.61476588  0.62569924  1
  O  O200  1  0.37930677  0.38043351  0.37997307  1
  O  O201  1  0.38182385  0.38182642  0.87442522  1
  O  O202  1  0.37367909  0.88113872  0.38193291  1
  O  O203  1  0.37447349  0.88147509  0.88472433  1
  O  O204  1  0.87737714  0.37868084  0.37573390  1
  O  O205  1  0.87603534  0.38273400  0.88167969  1
  O  O206  1  0.88072436  0.87916100  0.38041116  1
  O  O207  1  0.88165093  0.87969846  0.87946466  1
  O  O208  1  0.25632781  0.00828396  0.37628125  1
  O  O209  1  0.25563099  0.00631636  0.87023837  1
  O  O210  1  0.25485980  0.50601079  0.36958426  1
  O  O211  1  0.25527696  0.50630281  0.86950942  1
  O  O212  1  0.75045025  0.00627367  0.36639957  1
  O  O213  1  0.75762054  0.00462662  0.86868528  1
  O  O214  1  0.74375952  0.50785025  0.36479739  1
  O  O215  1  0.75433594  0.50597702  0.86911937  1
  O  O216  1  0.24794160  0.49250635  0.13256479  1
  O  O217  1  0.24319077  0.49634027  0.63181627  1
  O  O218  1  0.24330306  0.99046880  0.12662148  1
  O  O219  1  0.24655101  0.99514583  0.63171313  1
  O  O220  1  0.74196868  0.49396760  0.12886885  1
  O  O221  1  0.73699140  0.50189834  0.63219181  1
  O  O222  1  0.74920211  0.99162688  0.13083969  1
  O  O223  1  0.74439096  1.00024026  0.63090663  1
  O  O224  1  0.00767400  0.36642886  0.24634058  1
  O  O225  1  0.00984015  0.36905794  0.75469698  1
  O  O226  1  0.00630550  0.86729581  0.24961286  1
  O  O227  1  0.00628429  0.87053540  0.75547635  1
  O  O228  1  0.50446920  0.36893957  0.25506938  1
  O  O229  1  0.50601885  0.36825966  0.75610139  1
  O  O230  1  0.51065154  0.87315891  0.24955211  1
  O  O231  1  0.50743824  0.86855590  0.75090401  1
  O  O232  1  0.49427848  0.13019528  0.24322230  1
  O  O233  1  0.49345850  0.13198483  0.74893624  1
  O  O234  1  0.49151417  0.62503432  0.23917976  1
  O  O235  1  0.49356941  0.63252776  0.74453135  1
  O  O236  1  0.99669839  0.13146698  0.24545269  1
  O  O237  1  0.99812045  0.12963580  0.74729016  1
  O  O238  1  0.99341116  0.63122363  0.24252454  1
  O  O239  1  0.98975529  0.63049315  0.75062910  1
  O  O240  1  0.36731544  0.25150046  0.00781812  1
  O  O241  1  0.37024907  0.25648381  0.50676293  1
  O  O242  1  0.37076178  0.76294554  0.00221590  1
  O  O243  1  0.36899024  0.75567833  0.50583745  1
  O  O244  1  0.86877349  0.25663663  0.00057202  1
  O  O245  1  0.87484139  0.25147962  0.50490986  1
  O  O246  1  0.87010998  0.75520370  0.00381286  1
  O  O247  1  0.86270643  0.74597621  0.49926791  1
  O  O248  1  0.13306610  0.24436863  0.50132624  1
  O  O249  1  0.13060989  0.24390336  0.99696747  1
  O  O250  1  0.13102042  0.74532996  0.49620786  1
  O  O251  1  0.12502430  0.74352585  0.99230521  1
  O  O252  1  0.62337773  0.24116356  0.49126647  1
  O  O253  1  0.63300503  0.24706261  0.99148903  1
  O  O254  1  0.63090820  0.75006252  0.48784298  1
  O  O255  1  0.63206067  0.74836776  0.99225113  1
  O  O256  1  0.49480858  0.24228962  0.13112336  1
  O  O257  1  0.49378012  0.24953244  0.63194230  1
  O  O258  1  0.49749992  0.73777127  0.12742107  1
  O  O259  1  0.49477856  0.74565991  0.63042993  1
  O  O260  1  0.99944714  0.24279676  0.13563474  1
  O  O261  1  1.00512276  0.24250918  0.63593901  1
  O  O262  1  0.99325735  0.74479676  0.12947980  1
  O  O263  1  0.99830973  0.74666294  0.63398940  1
  O  O264  1  0.00330773  0.24880746  0.36045075  1
  O  O265  1  0.01015688  0.25046127  0.87042235  1
  O  O266  1  0.00657059  0.74893475  0.36799421  1
  O  O267  1  0.00535998  0.75579998  0.86911927  1
  O  O268  1  0.50434253  0.25518750  0.36883135  1
  O  O269  1  0.50580813  0.25480426  0.86895594  1
  O  O270  1  0.51027281  0.75168659  0.37178800  1
  O  O271  1  0.50669371  0.75228521  0.86827086  1
  O  O272  1  0.24676512  0.13157994  0.49715613  1
  O  O273  1  0.24521298  0.12998867  0.99663845  1
  O  O274  1  0.24567509  0.63217377  0.49400324  1
  O  O275  1  0.24309951  0.62595101  0.99382207  1
  O  O276  1  0.74272778  0.12400213  0.49080940  1
  O  O277  1  0.75160817  0.13068448  0.99273565  1
  O  O278  1  0.74322198  0.63361608  0.49051618  1
  O  O279  1  0.74899785  0.63182731  0.99247192  1
  O  O280  1  0.25053731  0.36766749  0.00849966  1
  O  O281  1  0.25572216  0.37052243  0.50623560  1
  O  O282  1  0.25744845  0.87556490  0.00908572  1
  O  O283  1  0.25483785  0.87022979  0.50718814  1
  O  O284  1  0.75469216  0.36897193  0.00418381  1
  O  O285  1  0.75201217  0.36887753  0.50431057  1
  O  O286  1  0.75706215  0.86889951  0.00410395  1
  O  O287  1  0.75073418  0.86186085  0.49776845  1
  O  O288  1  0.13018226  0.49114762  0.24778017  1
  O  O289  1  0.13176775  0.49689880  0.74444408  1
  O  O290  1  0.12548223  0.99394792  0.24377236  1
  O  O291  1  0.13223902  0.99480475  0.74698362  1
  O  O292  1  0.62852725  0.49276512  0.24224201  1
  O  O293  1  0.62932707  0.49472737  0.74252458  1
  O  O294  1  0.63062750  0.98858933  0.24791208  1
  O  O295  1  0.63153246  0.99525172  0.74380168  1
  O  O296  1  0.37201274  0.00706737  0.25833125  1
  O  O297  1  0.37009703  0.00519675  0.75512901  1
  O  O298  1  0.36747017  0.50556500  0.25669616  1
  O  O299  1  0.36954045  0.50713351  0.75491798  1
  O  O300  1  0.86907357  0.00591549  0.25028118  1
  O  O301  1  0.87222049  0.00481263  0.75552614  1
  O  O302  1  0.86421152  0.50767638  0.24653662  1
  O  O303  1  0.87032497  0.50800594  0.75551497  1
  O  O304  1  0.12523321  0.37330932  0.36135307  1
  O  O305  1  0.12644701  0.36860901  0.87021818  1
  O  O306  1  0.12413646  0.86803877  0.36892159  1
  O  O307  1  0.12053736  0.87091935  0.87030668  1
  O  O308  1  0.61838539  0.36899924  0.36814071  1
  O  O309  1  0.61992363  0.36908909  0.86827003  1
  O  O310  1  0.62493568  0.86591011  0.36344991  1
  O  O311  1  0.62458357  0.86832303  0.86682258  1
  O  O312  1  0.38170648  0.13005475  0.13165894  1
  O  O313  1  0.37651147  0.13280088  0.63279887  1
  O  O314  1  0.38108423  0.62514976  0.12988204  1
  O  O315  1  0.37867441  0.63140149  0.63143507  1
  O  O316  1  0.88278993  0.12582660  0.13155738  1
  O  O317  1  0.88579697  0.12503609  0.63489229  1
  O  O318  1  0.87902826  0.63116329  0.12839198  1
  O  O319  1  0.87428776  0.62490677  0.63867523  1
  O  O320  1  0.25510015  0.25384140  0.12148412  1
  O  O321  1  0.25668305  0.25748576  0.62149892  1
  O  O322  1  0.24938081  0.76382536  0.12275540  1
  O  O323  1  0.25583165  0.75612910  0.62088099  1
  O  O324  1  0.75016098  0.25617740  0.11778823  1
  O  O325  1  0.75497598  0.25090504  0.62273013  1
  O  O326  1  0.75523396  0.75467648  0.11877489  1
  O  O327  1  0.74839798  0.74870142  0.61095829  1
  O  O328  1  0.24998151  0.24416924  0.38390306  1
  O  O329  1  0.24620888  0.24427883  0.88145040  1
  O  O330  1  0.24357874  0.74470338  0.38119785  1
  O  O331  1  0.24296995  0.74342487  0.87563571  1
  O  O332  1  0.74099046  0.24007878  0.37202874  1
  O  O333  1  0.74567708  0.24412741  0.87894409  1
  O  O334  1  0.74061906  0.74382286  0.37901608  1
  O  O335  1  0.74487077  0.74495537  0.87938156  1
  O  O336  1  0.00598873  0.11938312  0.00544978  1
  O  O337  1  0.00859555  0.11843344  0.50725586  1
  O  O338  1  0.00371979  0.62010811  0.00419534  1
  O  O339  1  0.00953060  0.62264467  0.50348304  1
  O  O340  1  0.50071693  0.12570129  0.01226449  1
  O  O341  1  0.50729516  0.11713477  0.50048643  1
  O  O342  1  0.49977491  0.62261137  0.01114054  1
  O  O343  1  0.50172800  0.62249772  0.50865596  1
  O  O344  1  0.49247041  0.37670312  0.49249514  1
  O  O345  1  0.49743101  0.37551629  0.99091736  1
  O  O346  1  0.49249472  0.88122338  0.49730949  1
  O  O347  1  0.48775656  0.87687647  1.00102037  1
  O  O348  1  1.00087238  0.38165741  0.49528295  1
  O  O349  1  0.99371512  0.38126547  1.00015130  1
  O  O350  1  1.00271178  0.88809899  0.50068673  1
  O  O351  1  0.99531579  0.87992250  0.99412314  1
  O  O352  1  0.49257342  0.49324612  0.37459301  1
  O  O353  1  0.49383789  0.49398066  0.87336264  1
  O  O354  1  0.49246215  0.99747327  0.38092468  1
  O  O355  1  0.49184375  0.99792521  0.87659235  1
  O  O356  1  0.99377667  0.49888755  0.37516373  1
  O  O357  1  0.99214253  0.49918719  0.88247651  1
  O  O358  1  1.00175492  1.00034369  0.38856018  1
  O  O359  1  0.99652890  0.99434972  0.88044393  1
  O  O360  1  0.00525546  0.00441573  0.11874715  1
  O  O361  1  0.00855696  0.00625772  0.61996414  1
  O  O362  1  0.00021475  0.50773408  0.11795332  1
  O  O363  1  0.01626917  0.50318161  0.62911480  1
  O  O364  1  0.50023709  0.01274864  0.12438502  1
  O  O365  1  0.50769877  0.00186850  0.61707590  1
  O  O366  1  0.50395744  0.50844661  0.12469938  1
  O  O367  1  0.50867423  0.50652511  0.62657856  1
  O  O368  1  0.24219812  0.37835067  0.24617402  1
  O  O369  1  0.24613854  0.38161995  0.74539577  1
  O  O370  1  0.24287864  0.87702410  0.24062855  1
  O  O371  1  0.24562628  0.88077640  0.74585407  1
  O  O372  1  0.74218019  0.37904985  0.24298138  1
  O  O373  1  0.74241855  0.38270564  0.75029738  1
  O  O374  1  0.74300353  0.87865175  0.24410455  1
  O  O375  1  0.74438108  0.88210477  0.74827371  1
  O  O376  1  0.25608985  0.12474695  0.25737220  1
  O  O377  1  0.25640781  0.12019031  0.75715544  1
  O  O378  1  0.25281096  0.61985235  0.25487255  1
  O  O379  1  0.25614243  0.62133805  0.75661554  1
  O  O380  1  0.75490232  0.11883443  0.25307552  1
  O  O381  1  0.75753648  0.11835148  0.75647863  1
  O  O382  1  0.75271274  0.61956958  0.25153765  1
  O  O383  1  0.75748146  0.62039125  0.75522696  1
  O  O384  1  0.36991746  0.12052787  0.37146927  1
  O  O385  1  0.36986687  0.12116315  0.87068541  1
  O  O386  1  0.36879790  0.62038574  0.36982087  1
  O  O387  1  0.37011100  0.62096436  0.86981218  1
  O  O388  1  0.86806000  0.12114892  0.36674010  1
  O  O389  1  0.87166685  0.11784278  0.86996333  1
  O  O390  1  0.86357877  0.62469967  0.36394425  1
  O  O391  1  0.86865779  0.62009212  0.86603370  1
  O  O392  1  0.13154237  0.37519406  0.13656234  1
  O  O393  1  0.13291405  0.38439983  0.63239924  1
  O  O394  1  0.13113509  0.88002267  0.12903643  1
  O  O395  1  0.13244893  0.88062916  0.63254563  1
  O  O396  1  0.62817649  0.37882104  0.13006918  1
  O  O397  1  0.62234133  0.38519688  0.63166911  1
  O  O398  1  0.63116082  0.87237623  0.13405061  1
  O  O399  1  0.62877534  0.88204441  0.63049803  1
  O  O400  1  0.11667342  0.25811728  0.25130880  1
  O  O401  1  0.12349783  0.25566499  0.75758980  1
  O  O402  1  0.11868847  0.75505716  0.25545963  1
  O  O403  1  0.12020003  0.75579726  0.75594706  1
  O  O404  1  0.61848484  0.25504982  0.25543690  1
  O  O405  1  0.62018697  0.25424550  0.75509885  1
  O  O406  1  0.62556716  0.75905164  0.25737767  1
  O  O407  1  0.62086051  0.75512874  0.75378201  1
  O  O408  1  0.38053549  0.24411892  0.24592379  1
  O  O409  1  0.38020466  0.24529179  0.74568582  1
  O  O410  1  0.37524641  0.74204780  0.24760549  1
  O  O411  1  0.38010071  0.74627714  0.74492609  1
  O  O412  1  0.88402218  0.24296442  0.24694839  1
  O  O413  1  0.88551082  0.24201600  0.75349269  1
  O  O414  1  0.87847164  0.74445364  0.24296299  1
  O  O415  1  0.87962559  0.74003715  0.75090673  1
  O  O416  1  0.37486874  0.49380251  0.49385288  1
  O  O417  1  0.37692324  0.49566960  0.99070153  1
  O  O418  1  0.38023543  0.99530669  0.49626298  1
  O  O419  1  0.37550011  0.99127168  0.99456028  1
  O  O420  1  0.87651445  0.49900436  0.49606842  1
  O  O421  1  0.87882165  0.49518017  0.99449572  1
  O  O422  1  0.88975859  1.00304356  0.50112269  1
  O  O423  1  0.88148043  0.99343917  0.99371288  1
  O  O424  1  0.11971091  0.00557545  0.00542880  1
  O  O425  1  0.11995022  0.00648410  0.50818970  1
  O  O426  1  0.11782770  0.50698955  0.00135013  1
  O  O427  1  0.12947680  0.50658715  0.51156050  1
  O  O428  1  0.62202547  0.00297636  0.00348494  1
  O  O429  1  0.62057916  0.00380228  0.50289519  1
  O  O430  1  0.62150192  0.50280622  0.00761397  1
  O  O431  1  0.62173820  0.50132640  0.51148338  1
  O  O432  1  0.36844190  0.36714997  0.12720340  1
  O  O433  1  0.37028727  0.37140732  0.62121940  1
  O  O434  1  0.36583201  0.87699329  0.11841717  1
  O  O435  1  0.36995513  0.87013897  0.62025096  1
  O  O436  1  0.86588197  0.37335213  0.11767829  1
  O  O437  1  0.87235473  0.37213820  0.62444639  1
  O  O438  1  0.87026465  0.86849205  0.11839832  1
  O  O439  1  0.87040035  0.86971270  0.61820850  1
  O  O440  1  0.13339103  0.12775781  0.38372989  1
  O  O441  1  0.13269516  0.12987633  0.88214789  1
  O  O442  1  0.13152371  0.63074417  0.37975487  1
  O  O443  1  0.13000769  0.63019908  0.87958500  1
  O  O444  1  0.62968497  0.12882116  0.37804952  1
  O  O445  1  0.63329695  0.13145383  0.87426064  1
  O  O446  1  0.62837112  0.63486082  0.37073898  1
  O  O447  1  0.63106931  0.63200835  0.87402616  1
