# generated using pymatgen
data_V3Zn3O8
_symmetry_space_group_name_H-M   'P 1'
_cell_length_a   17.09012791
_cell_length_b   17.09174973
_cell_length_c   17.08920695
_cell_angle_alpha   89.98288033
_cell_angle_beta   89.97970647
_cell_angle_gamma   89.97784127
_symmetry_Int_Tables_number   1
_chemical_formula_structural   V3Zn3O8
_chemical_formula_sum   'V96 Zn96 O256'
_cell_volume   4991.75967489
_cell_formula_units_Z   32
loop_
 _symmetry_equiv_pos_site_id
 _symmetry_equiv_pos_as_xyz
  1  'x, y, z'
loop_
 _atom_site_type_symbol
 _atom_site_label
 _atom_site_symmetry_multiplicity
 _atom_site_fract_x
 _atom_site_fract_y
 _atom_site_fract_z
 _atom_site_occupancy
  V  V0  1  0.75064669  -0.00008078  0.24913660  1
  V  V1  1  0.62240018  0.75062588  0.37218562  1
  V  V2  1  0.37467158  0.75051194  0.62491375  1
  V  V3  1  0.00052181  0.74980776  0.24986323  1
  V  V4  1  0.25076384  0.37457171  0.12520345  1
  V  V5  1  0.12418238  0.74926921  0.37504740  1
  V  V6  1  0.62454797  0.50058798  0.12459924  1
  V  V7  1  0.37463750  0.87513273  0.49984145  1
  V  V8  1  0.87480520  0.00037025  0.87430700  1
  V  V9  1  0.62402788  0.50051152  0.62527938  1
  V  V10  1  0.12470185  0.62487322  0.00052955  1
  V  V11  1  0.75046489  0.00009662  0.75015762  1
  V  V12  1  0.75119597  0.87518935  0.12442584  1
  V  V13  1  0.37553534  0.25077518  0.12594055  1
  V  V14  1  -0.00096227  0.87447501  0.37504142  1
  V  V15  1  0.12432884  0.24979935  0.87610226  1
  V  V16  1  0.00128810  -0.00033087  0.50057394  1
  V  V17  1  0.62557079  0.74983382  0.87502638  1
  V  V18  1  0.37650184  0.00056051  0.87626295  1
  V  V19  1  0.49947553  0.49989566  0.50061016  1
  V  V20  1  0.62485698  0.87520291  0.24945024  1
  V  V21  1  0.49916122  0.37585426  0.87487047  1
  V  V22  1  0.00043960  0.62501001  0.12514232  1
  V  V23  1  0.75074432  0.25002171  0.50107663  1
  V  V24  1  0.74973313  0.75013902  0.50029339  1
  V  V25  1  0.75036837  0.74954688  -0.00119481  1
  V  V26  1  0.74971730  0.25052210  -0.00071199  1
  V  V27  1  0.24993183  0.37362452  0.62538723  1
  V  V28  1  0.24933065  0.24884661  0.50049873  1
  V  V29  1  0.12419741  0.62534105  0.49964050  1
  V  V30  1  0.87463592  0.62389966  0.74990828  1
  V  V31  1  0.37633230  0.12603075  0.75058834  1
  V  V32  1  0.62453537  0.87541164  0.74943703  1
  V  V33  1  0.00124004  0.12390708  0.12546450  1
  V  V34  1  0.37512242  0.49951275  0.37589480  1
  V  V35  1  0.25216223  0.75242714  0.00175695  1
  V  V36  1  0.87513086  0.25011072  0.12508416  1
  V  V37  1  0.50022778  0.87585100  0.87511348  1
  V  V38  1  0.37471960  0.37511342  0.00078381  1
  V  V39  1  0.87466642  0.62408876  0.24983260  1
  V  V40  1  0.00049053  0.12309865  0.62435724  1
  V  V41  1  0.87537347  -0.00121528  0.37464350  1
  V  V42  1  0.75001351  0.50031516  0.25057105  1
  V  V43  1  0.87414026  0.25032336  0.62412877  1
  V  V44  1  0.12490965  0.50004119  0.62469331  1
  V  V45  1  0.49924131  0.62517094  0.62503736  1
  V  V46  1  0.00223103  0.00112296  0.00005100  1
  V  V47  1  0.25046294  0.12626302  0.87671011  1
  V  V48  1  -0.00047546  0.75056443  0.74946124  1
  V  V49  1  0.24838020  -0.00163905  0.74916341  1
  V  V50  1  -0.00057159  0.49895200  -0.00075422  1
  V  V51  1  -0.00086223  0.62488456  0.62495096  1
  V  V52  1  0.25027694  0.50012294  0.75077112  1
  V  V53  1  0.87560417  0.74991253  0.12414336  1
  V  V54  1  0.75044089  0.37497589  0.12560986  1
  V  V55  1  0.24977102  0.49998229  0.25076459  1
  V  V56  1  0.62533021  0.37496073  0.25060356  1
  V  V57  1  0.62635273  0.25055408  0.87587493  1
  V  V58  1  0.62592916  0.00119771  0.12373879  1
  V  V59  1  0.25001037  -0.00055806  0.24929343  1
  V  V60  1  0.49961598  0.25014930  0.25011233  1
  V  V61  1  0.49894706  0.75004882  0.74954572  1
  V  V62  1  0.75034815  0.62490581  0.87475810  1
  V  V63  1  -0.00160365  0.49953793  0.49997597  1
  V  V64  1  0.62457783  0.12446716  0.49974764  1
  V  V65  1  -0.00128731  0.37500468  0.37658427  1
  V  V66  1  0.24987131  0.62365877  0.87384440  1
  V  V67  1  0.74970879  0.62461119  0.37397802  1
  V  V68  1  0.62538782  0.37621209  0.74921766  1
  V  V69  1  0.62472164  0.24956289  0.37504188  1
  V  V70  1  0.37693503  0.62791228  0.24754894  1
  V  V71  1  0.50030557  0.50231806  0.00047349  1
  V  V72  1  0.24974821  0.12551255  0.37602632  1
  V  V73  1  0.74944572  0.50067643  0.74974515  1
  V  V74  1  0.74959367  0.12422900  0.37474580  1
  V  V75  1  0.50007224  0.25057648  0.75005277  1
  V  V76  1  0.87558013  0.12477803  0.25026256  1
  V  V77  1  0.50199800  0.00188249  0.00048999  1
  V  V78  1  0.37555301  -0.00025155  0.37518485  1
  V  V79  1  0.74916836  0.87399920  0.62393910  1
  V  V80  1  0.00057199  0.24980190  0.25054250  1
  V  V81  1  0.12461489  0.37424660  0.25019556  1
  V  V82  1  0.12402166  0.75142191  0.87354419  1
  V  V83  1  0.12515223  0.49969704  0.12511042  1
  V  V84  1  0.25023597  0.75060225  0.50114046  1
  V  V85  1  0.49937494  0.37573047  0.37602512  1
  V  V86  1  0.62467641  0.00016050  0.62505517  1
  V  V87  1  0.24943470  0.62430834  0.37547526  1
  V  V88  1  0.50019045  0.12605139  0.62596694  1
  V  V89  1  0.87418814  0.12442353  0.75015863  1
  V  V90  1  0.49918746  -0.00042636  0.49952734  1
  V  V91  1  0.87639777  0.87536710  -0.00086711  1
  V  V92  1  0.37586172  0.12515176  0.24965660  1
  V  V93  1  0.87664416  0.37595265  -0.00042032  1
  V  V94  1  0.12665002  0.87579131  0.24876541  1
  V  V95  1  -0.00002407  0.24978792  0.75023170  1
  Zn  Zn96  1  0.74913140  0.12538192  0.87608011  1
  Zn  Zn97  1  0.37470678  0.62576474  0.75050991  1
  Zn  Zn98  1  0.49909242  0.87516497  0.37242320  1
  Zn  Zn99  1  0.12573852  0.12400270  0.50104715  1
  Zn  Zn100  1  0.87627120  0.49833136  0.87414414  1
  Zn  Zn101  1  0.37486201  0.50065525  0.87492529  1
  Zn  Zn102  1  0.37864094  0.75295333  0.12373331  1
  Zn  Zn103  1  0.75091584  0.37632791  0.62372228  1
  Zn  Zn104  1  0.62770967  0.12674886  0.00034280  1
  Zn  Zn105  1  0.62507707  0.62634009  0.00121279  1
  Zn  Zn106  1  0.12404248  0.87636313  0.74715127  1
  Zn  Zn107  1  0.87508685  0.87412701  0.50081474  1
  Zn  Zn108  1  0.12832614  -0.00002051  0.12401010  1
  Zn  Zn109  1  0.50179431  0.62840898  0.12405402  1
  Zn  Zn110  1  0.25001321  0.24903702  0.00108200  1
  Zn  Zn111  1  0.12286099  0.37451595  0.75148311  1
  Zn  Zn112  1  0.24826509  0.87522572  0.62562153  1
  Zn  Zn113  1  0.62430279  0.62418720  0.49919210  1
  Zn  Zn114  1  0.37497509  0.37445122  0.50006147  1
  Zn  Zn115  1  0.49918333  0.75268408  0.24487359  1
  Zn  Zn116  1  0.37543007  0.25047220  0.62565249  1
  Zn  Zn117  1  0.37503447  0.87596475  0.00319577  1
  Zn  Zn118  1  0.50232228  0.12660185  0.12470307  1
  Zn  Zn119  1  0.87270574  0.49962194  0.37693850  1
  Zn  Zn120  1  0.87240978  0.37655709  0.50109104  1
  Zn  Zn121  1  0.87457240  0.75050702  0.62428500  1
  Zn  Zn122  1  0.12548697  -0.00133591  0.62570994  1
  Zn  Zn123  1  0.12856215  0.12515758  0.00334708  1
  Zn  Zn124  1  0.00021296  0.87675155  0.87317955  1
  Zn  Zn125  1  0.25199226  0.87700313  0.12482817  1
  Zn  Zn126  1  -0.00041145  0.37639977  0.87319974  1
  Zn  Zn127  1  0.12427438  0.24746118  0.37583338  1
  Zn  Zn128  1  0.18743746  0.18668693  0.18768790  1
  Zn  Zn129  1  0.18521308  0.18449365  0.68820562  1
  Zn  Zn130  1  0.18847859  0.68768542  0.18722871  1
  Zn  Zn131  1  0.18722598  0.68631924  0.68632137  1
  Zn  Zn132  1  0.68713237  0.18682871  0.18633112  1
  Zn  Zn133  1  0.68806907  0.18809671  0.68834351  1
  Zn  Zn134  1  0.68716934  0.68665862  0.18597875  1
  Zn  Zn135  1  0.68549340  0.68593950  0.68715784  1
  Zn  Zn136  1  0.31261621  0.31206985  0.31344695  1
  Zn  Zn137  1  0.31274575  0.31299390  0.81365719  1
  Zn  Zn138  1  0.31191845  0.81327961  0.31413261  1
  Zn  Zn139  1  0.31457638  0.81435853  0.81438107  1
  Zn  Zn140  1  0.81312683  0.31216717  0.31366676  1
  Zn  Zn141  1  0.81285946  0.31406505  0.81277035  1
  Zn  Zn142  1  0.81230923  0.81209536  0.31233909  1
  Zn  Zn143  1  0.81348787  0.81354084  0.81256365  1
  Zn  Zn144  1  0.18599963  0.43608506  0.43833414  1
  Zn  Zn145  1  0.18653883  0.43510396  0.93807467  1
  Zn  Zn146  1  0.18764227  0.93644417  0.43572440  1
  Zn  Zn147  1  0.18750540  0.93678220  0.93456781  1
  Zn  Zn148  1  0.68655684  0.43728297  0.43921396  1
  Zn  Zn149  1  0.68778251  0.43763994  0.93658673  1
  Zn  Zn150  1  0.68678776  0.93621852  0.43698012  1
  Zn  Zn151  1  0.68783952  0.93706301  0.93689149  1
  Zn  Zn152  1  0.31437191  0.06369296  0.06394663  1
  Zn  Zn153  1  0.31419250  0.06353974  0.56421584  1
  Zn  Zn154  1  0.31253909  0.56336948  0.06248117  1
  Zn  Zn155  1  0.31372190  0.56322201  0.56304435  1
  Zn  Zn156  1  0.81381651  0.06409639  0.06101719  1
  Zn  Zn157  1  0.81375904  0.06253381  0.56270323  1
  Zn  Zn158  1  0.81242115  0.56213142  0.06180864  1
  Zn  Zn159  1  0.81253264  0.56348092  0.56290017  1
  Zn  Zn160  1  0.43755747  0.43874921  0.18777052  1
  Zn  Zn161  1  0.43589118  0.43746256  0.68711386  1
  Zn  Zn162  1  0.43696228  0.93526073  0.18539617  1
  Zn  Zn163  1  0.43561691  0.93733669  0.68691780  1
  Zn  Zn164  1  0.93715004  0.43777710  0.18768614  1
  Zn  Zn165  1  0.93601716  0.43514197  0.68751632  1
  Zn  Zn166  1  0.93889205  0.93724987  0.18661315  1
  Zn  Zn167  1  0.93497691  0.93490390  0.68547371  1
  Zn  Zn168  1  0.06516559  0.06234162  0.31414497  1
  Zn  Zn169  1  0.06313257  0.06544728  0.81400988  1
  Zn  Zn170  1  0.06155940  0.56110125  0.31303423  1
  Zn  Zn171  1  0.06289800  0.56263395  0.81276389  1
  Zn  Zn172  1  0.56154311  0.06194164  0.31153372  1
  Zn  Zn173  1  0.56461866  0.06491734  0.81392911  1
  Zn  Zn174  1  0.56206121  0.56318641  0.31268557  1
  Zn  Zn175  1  0.56316612  0.56418089  0.81299091  1
  Zn  Zn176  1  0.43555005  0.18788370  0.43828827  1
  Zn  Zn177  1  0.43799861  0.18822827  0.93804677  1
  Zn  Zn178  1  0.43733870  0.68619401  0.43782811  1
  Zn  Zn179  1  0.43542635  0.68602887  0.93411799  1
  Zn  Zn180  1  0.93686589  0.18682737  0.43828769  1
  Zn  Zn181  1  0.93690712  0.18671746  0.93696289  1
  Zn  Zn182  1  0.93551026  0.68606925  0.43694615  1
  Zn  Zn183  1  0.93667443  0.68523016  0.93622406  1
  Zn  Zn184  1  0.06279894  0.31179482  0.06165970  1
  Zn  Zn185  1  0.06316253  0.31150106  0.56327495  1
  Zn  Zn186  1  0.06455536  0.81504340  0.06318558  1
  Zn  Zn187  1  0.06502663  0.81552329  0.56448107  1
  Zn  Zn188  1  0.56234721  0.31421744  0.06241052  1
  Zn  Zn189  1  0.56336984  0.31351607  0.56297323  1
  Zn  Zn190  1  0.56239018  0.81300683  0.06275465  1
  Zn  Zn191  1  0.56140995  0.81282135  0.56111277  1
  O  O192  1  0.11650761  0.12198984  0.12323448  1
  O  O193  1  0.11573163  0.11927562  0.62203424  1
  O  O194  1  0.11965062  0.61931861  0.12050414  1
  O  O195  1  0.11899279  0.61947569  0.61831446  1
  O  O196  1  0.62278575  0.11714043  0.12236876  1
  O  O197  1  0.61975726  0.11922006  0.61959833  1
  O  O198  1  0.62350400  0.61591800  0.12185572  1
  O  O199  1  0.61648846  0.61838078  0.62327799  1
  O  O200  1  0.38159494  0.38238190  0.37512854  1
  O  O201  1  0.38138043  0.37774177  0.88180586  1
  O  O202  1  0.37708676  0.88177359  0.38179562  1
  O  O203  1  0.38351524  0.88287206  0.87840248  1
  O  O204  1  0.88740106  0.37677165  0.37618099  1
  O  O205  1  0.87832246  0.37750318  0.88415307  1
  O  O206  1  0.88130281  0.88101090  0.37515270  1
  O  O207  1  0.87752356  0.88162124  0.88168535  1
  O  O208  1  0.25658003  0.00593094  0.37036977  1
  O  O209  1  0.25621465  0.00588470  0.86869962  1
  O  O210  1  0.25378784  0.50483090  0.37034305  1
  O  O211  1  0.24702839  0.50423438  0.86565689  1
  O  O212  1  0.75460077  0.00493744  0.36921898  1
  O  O213  1  0.75647425  0.00017329  0.86767215  1
  O  O214  1  0.74911831  0.50626052  0.36833983  1
  O  O215  1  0.75024588  0.50730425  0.86776931  1
  O  O216  1  0.24401333  0.49498577  0.13107331  1
  O  O217  1  0.24502480  0.49358022  0.63078631  1
  O  O218  1  0.24858500  0.99951484  0.13382427  1
  O  O219  1  0.25074094  1.00093807  0.63821221  1
  O  O220  1  0.74478665  0.49396370  0.13059801  1
  O  O221  1  0.74210449  0.50075361  0.63158267  1
  O  O222  1  0.74724905  0.99453399  0.12971902  1
  O  O223  1  0.74388961  0.99465323  0.62944323  1
  O  O224  1  0.00434803  0.37047707  0.25719367  1
  O  O225  1  0.00314069  0.36596714  0.75155211  1
  O  O226  1  0.00519107  0.86872353  0.25506746  1
  O  O227  1  0.00028441  0.86234166  0.75151007  1
  O  O228  1  0.50593242  0.37053935  0.25632095  1
  O  O229  1  0.50463573  0.37087384  0.75497229  1
  O  O230  1  0.50939192  0.87334247  0.25267083  1
  O  O231  1  0.50558207  0.87054067  0.75490944  1
  O  O232  1  0.49363812  0.13256314  0.24980715  1
  O  O233  1  0.49625525  0.13051947  0.74535272  1
  O  O234  1  0.48747141  0.62527415  0.24950667  1
  O  O235  1  0.49823690  0.63229764  0.74400586  1
  O  O236  1  0.99432001  0.12947309  0.24657264  1
  O  O237  1  0.99321998  0.12923525  0.74417213  1
  O  O238  1  0.99567656  0.63021881  0.24459532  1
  O  O239  1  0.99577883  0.63200007  0.74474912  1
  O  O240  1  0.37546359  0.25776342  0.00732469  1
  O  O241  1  0.36248706  0.25232010  0.50340810  1
  O  O242  1  0.36213857  0.74982944  -0.00251005  1
  O  O243  1  0.36968971  0.75480591  0.50413306  1
  O  O244  1  0.87074859  0.25564227  0.00669050  1
  O  O245  1  0.86787243  0.24893454  0.50633316  1
  O  O246  1  0.87117935  0.75502546  0.00507163  1
  O  O247  1  0.86105196  0.75098942  0.49945169  1
  O  O248  1  0.13818398  0.24812557  0.49885801  1
  O  O249  1  0.12683254  0.24741427  0.98974435  1
  O  O250  1  0.12926762  0.74430734  0.49427457  1
  O  O251  1  0.13016413  0.74493225  0.99157133  1
  O  O252  1  0.62943885  0.24325106  0.49410417  1
  O  O253  1  0.63141159  0.25222686  0.99409323  1
  O  O254  1  0.63392649  0.75037383  0.49013762  1
  O  O255  1  0.63294525  0.75052696  0.99259709  1
  O  O256  1  0.49416747  0.25127050  0.13276384  1
  O  O257  1  0.49961221  0.24404960  0.63162268  1
  O  O258  1  0.49723809  0.74529728  0.12667181  1
  O  O259  1  0.49514883  0.74543387  0.62970336  1
  O  O260  1  0.99416543  0.24477758  0.13107298  1
  O  O261  1  0.99499576  0.24312622  0.62948156  1
  O  O262  1  0.99551325  0.74454320  0.12984817  1
  O  O263  1  1.00111161  0.74352932  0.63420172  1
  O  O264  1  0.00049404  0.25844762  0.36977100  1
  O  O265  1  0.00895708  0.24848360  0.86920822  1
  O  O266  1  0.00463370  0.75373996  0.36948826  1
  O  O267  1  0.00867285  0.74761759  0.86682026  1
  O  O268  1  0.50528342  0.25516471  0.37051943  1
  O  O269  1  0.50574173  0.25664471  0.86969344  1
  O  O270  1  0.51324416  0.75024177  0.37406756  1
  O  O271  1  0.50543927  0.75561364  0.87008168  1
  O  O272  1  0.25076607  0.13311986  0.49578532  1
  O  O273  1  0.24970492  0.12714690  0.99159684  1
  O  O274  1  0.24374853  0.62977450  0.49470429  1
  O  O275  1  0.24342680  0.63139639  0.99416678  1
  O  O276  1  0.74366122  0.12861942  0.49387604  1
  O  O277  1  0.74959724  0.13476002  0.99787039  1
  O  O278  1  0.74713527  0.63444255  0.49375765  1
  O  O279  1  0.74996107  0.63227945  0.99348116  1
  O  O280  1  0.25692942  0.37476771  0.00809208  1
  O  O281  1  0.25009024  0.36778438  0.50847858  1
  O  O282  1  0.24973786  0.86339841  -0.00159191  1
  O  O283  1  0.25657441  0.86797010  0.49980646  1
  O  O284  1  0.75599677  0.37087368  0.00697218  1
  O  O285  1  0.75109166  0.36568809  0.50145609  1
  O  O286  1  0.75681170  0.86974780  0.00518881  1
  O  O287  1  0.74978456  0.86623522  0.50478685  1
  O  O288  1  0.13003009  0.49500019  0.24446991  1
  O  O289  1  0.13465899  0.49955270  0.74347020  1
  O  O290  1  0.13173285  0.99268609  0.25083279  1
  O  O291  1  0.13703615  0.99975223  0.75318967  1
  O  O292  1  0.63009890  0.49396090  0.24530994  1
  O  O293  1  0.62918458  0.49541608  0.74487156  1
  O  O294  1  0.63189096  0.99555676  0.24478906  1
  O  O295  1  0.62976971  0.99478654  0.74444417  1
  O  O296  1  0.37065234  0.00544784  0.25592603  1
  O  O297  1  0.36907592  0.00592983  0.75664033  1
  O  O298  1  0.36896528  0.50775378  0.25562998  1
  O  O299  1  0.36074941  0.50106580  0.75070182  1
  O  O300  1  0.87013684  0.00509385  0.25455601  1
  O  O301  1  0.87002788  0.00407731  0.75444670  1
  O  O302  1  0.86786197  0.50670862  0.25043589  1
  O  O303  1  0.86833666  0.50679933  0.75026962  1
  O  O304  1  0.11446785  0.37388487  0.36882248  1
  O  O305  1  0.12330803  0.36234011  0.87346529  1
  O  O306  1  0.11830555  0.86774685  0.36917845  1
  O  O307  1  0.12201092  0.86139717  0.87131946  1
  O  O308  1  0.61945324  0.36877218  0.36941542  1
  O  O309  1  0.61859657  0.37027154  0.86856946  1
  O  O310  1  0.62540808  0.86615046  0.36809045  1
  O  O311  1  0.62024952  0.86977682  0.86807540  1
  O  O312  1  0.37879177  0.13285441  0.13268389  1
  O  O313  1  0.38343701  0.12681414  0.63299022  1
  O  O314  1  0.37434013  0.62623468  0.13752831  1
  O  O315  1  0.38135799  0.63253173  0.62693750  1
  O  O316  1  0.88064758  0.13064767  0.13186150  1
  O  O317  1  0.88071053  0.12995065  0.63090804  1
  O  O318  1  0.88080165  0.63098189  0.13005929  1
  O  O319  1  0.88173309  0.62901789  0.63164149  1
  O  O320  1  0.25718645  0.25718257  0.12517755  1
  O  O321  1  0.24934926  0.25746964  0.61939931  1
  O  O322  1  0.24897083  0.74899141  0.11092586  1
  O  O323  1  0.25616719  0.74948727  0.61827972  1
  O  O324  1  0.75582054  0.25622055  0.12108424  1
  O  O325  1  0.75577916  0.24945704  0.61819506  1
  O  O326  1  0.75630195  0.75558509  0.11927718  1
  O  O327  1  0.74657973  0.75462070  0.61481904  1
  O  O328  1  0.24979295  0.24528062  0.38444774  1
  O  O329  1  0.24127395  0.24453303  0.87502131  1
  O  O330  1  0.24337439  0.74333774  0.38139410  1
  O  O331  1  0.24152298  0.74480094  0.88012075  1
  O  O332  1  0.74432279  0.24334020  0.37932134  1
  O  O333  1  0.74355402  0.25110431  0.88168127  1
  O  O334  1  0.74193269  0.74609579  0.38088054  1
  O  O335  1  0.74524036  0.74572922  0.87925564  1
  O  O336  1  -0.00164116  0.11478184  0.00654104  1
  O  O337  1  -0.00024601  0.11489203  0.50464547  1
  O  O338  1  0.00528009  0.62047348  0.00658653  1
  O  O339  1  0.00512481  0.62061880  0.50447819  1
  O  O340  1  0.50320069  0.11279097  0.00028495  1
  O  O341  1  0.50532853  0.12013855  0.50535325  1
  O  O342  1  0.50054930  0.61257680  -0.00065245  1
  O  O343  1  0.50163361  0.61811482  0.50646870  1
  O  O344  1  0.49789419  0.38070528  0.49369629  1
  O  O345  1  0.49496539  0.38408242  0.99513031  1
  O  O346  1  0.49348384  0.88245863  0.49787694  1
  O  O347  1  0.50159208  0.88678067  0.99296680  1
  O  O348  1  1.00103874  0.37992037  0.49095282  1
  O  O349  1  0.99376707  0.38187406  1.00117906  1
  O  O350  1  0.99793257  0.88223307  0.49364979  1
  O  O351  1  0.99445001  0.88431282  0.99929078  1
  O  O352  1  0.49553238  0.49474929  0.38043930  1
  O  O353  1  0.49999769  0.49437175  0.88391096  1
  O  O354  1  0.49362609  1.00012340  0.38238928  1
  O  O355  1  0.49729809  0.99589992  0.88132847  1
  O  O356  1  0.99916785  0.49070859  0.38037345  1
  O  O357  1  0.99965501  0.49887426  0.88388252  1
  O  O358  1  0.99456397  0.99485500  0.38155763  1
  O  O359  1  0.99416130  0.99985429  0.88385503  1
  O  O360  1  -0.00046056  0.00539122  0.11532942  1
  O  O361  1  -0.00254672  0.00412398  0.61519962  1
  O  O362  1  0.00619649  0.50587536  0.12070805  1
  O  O363  1  0.00558828  0.50516638  0.62024563  1
  O  O364  1  0.50691436  0.00013313  0.11512679  1
  O  O365  1  0.50567397  0.00592615  0.61996783  1
  O  O366  1  0.50579796  0.49960510  0.11539099  1
  O  O367  1  0.50362053  0.50491781  0.62074709  1
  O  O368  1  0.24482778  0.38092133  0.24573831  1
  O  O369  1  0.24765281  0.38245349  0.74182292  1
  O  O370  1  0.24311570  0.88143989  0.25202676  1
  O  O371  1  0.25079203  0.88785272  0.75129274  1
  O  O372  1  0.74492525  0.37954286  0.24563735  1
  O  O373  1  0.74271991  0.38252663  0.74845398  1
  O  O374  1  0.74624003  0.88098293  0.24372591  1
  O  O375  1  0.74378799  0.87978975  0.74402909  1
  O  O376  1  0.25668738  0.12029632  0.25627956  1
  O  O377  1  0.25630747  0.11742478  0.75644709  1
  O  O378  1  0.25588345  0.61947650  0.25604484  1
  O  O379  1  0.24907864  0.61505807  0.75448950  1
  O  O380  1  0.75583139  0.11960146  0.25516378  1
  O  O381  1  0.75649807  0.11712340  0.75026282  1
  O  O382  1  0.75556795  0.61985938  0.25395155  1
  O  O383  1  0.75479380  0.62107215  0.75490843  1
  O  O384  1  0.36953503  0.11964446  0.36957178  1
  O  O385  1  0.37081118  0.12032637  0.86941563  1
  O  O386  1  0.36863966  0.61952131  0.36774471  1
  O  O387  1  0.36510629  0.62045762  0.87041590  1
  O  O388  1  0.86909349  0.11897265  0.36884708  1
  O  O389  1  0.87288385  0.11830176  0.86732963  1
  O  O390  1  0.86794982  0.62381271  0.36670051  1
  O  O391  1  0.86803290  0.62263644  0.86784313  1
  O  O392  1  0.13017395  0.38036865  0.13077711  1
  O  O393  1  0.13569458  0.38098310  0.62621312  1
  O  O394  1  0.12881270  0.87768916  0.13415515  1
  O  O395  1  0.13073214  0.88058973  0.63027385  1
  O  O396  1  0.63125002  0.38016381  0.13194923  1
  O  O397  1  0.62586987  0.38244405  0.63233740  1
  O  O398  1  0.63318104  0.88113988  0.12981175  1
  O  O399  1  0.62869207  0.88116551  0.63024632  1
  O  O400  1  0.11799935  0.25711711  0.25144663  1
  O  O401  1  0.11886839  0.24881724  0.75975071  1
  O  O402  1  0.11969747  0.75376937  0.25585710  1
  O  O403  1  0.11651058  0.74667745  0.75845137  1
  O  O404  1  0.62055677  0.25533232  0.25585073  1
  O  O405  1  0.61947475  0.25617888  0.75510450  1
  O  O406  1  0.62754197  0.75596100  0.25858061  1
  O  O407  1  0.61908859  0.75655439  0.75491060  1
  O  O408  1  0.38061954  0.24551481  0.24595519  1
  O  O409  1  0.38243817  0.24392592  0.74987472  1
  O  O410  1  0.37444220  0.73823613  0.25182639  1
  O  O411  1  0.38171175  0.75027319  0.74386405  1
  O  O412  1  0.88012872  0.24434854  0.24477194  1
  O  O413  1  0.87980521  0.24398942  0.74461472  1
  O  O414  1  0.88060169  0.74466873  0.24378626  1
  O  O415  1  0.88516122  0.74356218  0.75053869  1
  O  O416  1  0.38076240  0.49889335  0.49311928  1
  O  O417  1  0.38408575  0.49419526  1.00015487  1
  O  O418  1  0.37983820  0.99564555  0.49504167  1
  O  O419  1  0.38585753  1.00040193  0.99411426  1
  O  O420  1  0.88277057  0.49843118  0.49754881  1
  O  O421  1  0.88189788  0.49362613  1.00072180  1
  O  O422  1  0.88445859  0.99897691  0.49306627  1
  O  O423  1  0.88286222  0.99507303  0.99517173  1
  O  O424  1  0.11302365  0.00065399  -0.00096009  1
  O  O425  1  0.11128299  -0.00024894  0.49879201  1
  O  O426  1  0.12060223  0.50545738  0.00643150  1
  O  O427  1  0.11942692  0.50647173  0.50501682  1
  O  O428  1  0.61800707  0.00042020  0.00462959  1
  O  O429  1  0.62012412  0.00534263  0.50503448  1
  O  O430  1  0.61539962  0.49893940  0.00569835  1
  O  O431  1  0.61742636  0.50157348  0.50664662  1
  O  O432  1  0.36949968  0.37058084  0.12183856  1
  O  O433  1  0.36135611  0.37333428  0.62327042  1
  O  O434  1  0.36937371  0.87023477  0.12048404  1
  O  O435  1  0.37273018  0.86837529  0.61764246  1
  O  O436  1  0.86966344  0.36894115  0.12113212  1
  O  O437  1  0.87203416  0.36531903  0.62172833  1
  O  O438  1  0.87046830  0.86890775  0.11988746  1
  O  O439  1  0.86494799  0.86944229  0.62147801  1
  O  O440  1  0.13421359  0.12776764  0.37878486  1
  O  O441  1  0.13167069  0.13495619  0.87744684  1
  O  O442  1  0.12939125  0.62977522  0.37976711  1
  O  O443  1  0.12966689  0.63405547  0.88066010  1
  O  O444  1  0.63035336  0.12978480  0.37979595  1
  O  O445  1  0.62845329  0.13511935  0.87761805  1
  O  O446  1  0.63148866  0.63481628  0.37440163  1
  O  O447  1  0.63210867  0.63308427  0.87670024  1
