# generated using pymatgen
data_V3Zn3O8
_symmetry_space_group_name_H-M   'P 1'
_cell_length_a   17.09113318
_cell_length_b   17.09222903
_cell_length_c   17.09229963
_cell_angle_alpha   90.00816610
_cell_angle_beta   90.01081293
_cell_angle_gamma   89.99497940
_symmetry_Int_Tables_number   1
_chemical_formula_structural   V3Zn3O8
_chemical_formula_sum   'V96 Zn96 O256'
_cell_volume   4993.09748795
_cell_formula_units_Z   32
loop_
 _symmetry_equiv_pos_site_id
 _symmetry_equiv_pos_as_xyz
  1  'x, y, z'
loop_
 _atom_site_type_symbol
 _atom_site_label
 _atom_site_symmetry_multiplicity
 _atom_site_fract_x
 _atom_site_fract_y
 _atom_site_fract_z
 _atom_site_occupancy
  V  V0  1  0.62476557  0.49923652  0.62442587  1
  V  V1  1  -0.00055595  0.49933837  0.50063470  1
  V  V2  1  -0.00108994  0.74968096  0.75067017  1
  V  V3  1  0.74955022  0.87674448  0.12472194  1
  V  V4  1  0.25029273  0.25024573  0.00091692  1
  V  V5  1  0.87469966  0.37491359  0.00121325  1
  V  V6  1  -0.00016454  0.12422622  0.62514846  1
  V  V7  1  0.87456731  0.37486300  0.50076363  1
  V  V8  1  0.00044463  0.00087165  0.00074355  1
  V  V9  1  0.37471407  0.12708233  0.25152466  1
  V  V10  1  0.62565613  0.87624384  0.74774591  1
  V  V11  1  0.12420384  0.49930663  0.62561684  1
  V  V12  1  0.00089191  0.50042473  0.00078787  1
  V  V13  1  0.24837159  0.74847158  0.49986457  1
  V  V14  1  0.24972928  0.87538144  0.12543574  1
  V  V15  1  0.75054996  0.75002151  0.49971659  1
  V  V16  1  0.24992505  0.37427944  0.62492764  1
  V  V17  1  0.62382241  0.37391913  0.74930955  1
  V  V18  1  0.49864842  0.49897321  0.49834792  1
  V  V19  1  0.12434578  0.87425955  0.75089830  1
  V  V20  1  0.37480844  0.62478733  0.74874305  1
  V  V21  1  0.62511358  0.87540134  0.24870590  1
  V  V22  1  0.87532068  0.00094672  0.87514962  1
  V  V23  1  0.12580643  0.37394921  0.75077605  1
  V  V24  1  0.12382543  0.24932767  0.37647554  1
  V  V25  1  0.24911818  0.87487716  0.62625814  1
  V  V26  1  0.12463320  0.12256978  0.50105127  1
  V  V27  1  0.37455383  -0.00027878  0.87579618  1
  V  V28  1  0.00044478  0.87393148  0.37500556  1
  V  V29  1  0.74919587  0.12638049  0.37601414  1
  V  V30  1  0.24973170  0.74974272  -0.00074618  1
  V  V31  1  0.75062184  0.50003698  0.74998144  1
  V  V32  1  0.62564343  0.00060367  0.12536456  1
  V  V33  1  0.37482204  -0.00084234  0.37501917  1
  V  V34  1  0.62366178  0.37532803  0.25012337  1
  V  V35  1  0.87476350  0.25091836  0.12492976  1
  V  V36  1  0.12549139  0.62531167  0.49992320  1
  V  V37  1  0.37448813  0.87410341  0.50029431  1
  V  V38  1  0.87531190  0.62573770  0.24906067  1
  V  V39  1  0.87644637  -0.00055018  0.37572878  1
  V  V40  1  0.37766025  0.37654302  0.00026228  1
  V  V41  1  0.37436911  0.62395133  0.25036805  1
  V  V42  1  0.12496563  0.25049540  0.87514361  1
  V  V43  1  0.00062936  0.25032176  0.75125171  1
  V  V44  1  0.37542265  0.37526904  0.49813199  1
  V  V45  1  0.62498847  0.24928620  0.87511339  1
  V  V46  1  -0.00114785  0.37513602  0.37647936  1
  V  V47  1  0.37588161  0.75070849  0.12486957  1
  V  V48  1  0.24999636  0.62507536  0.87601167  1
  V  V49  1  0.25076348  0.37425436  0.12573720  1
  V  V50  1  0.87504995  0.12567307  0.74997001  1
  V  V51  1  0.75042968  0.62544434  0.37328595  1
  V  V52  1  0.37437600  0.87636327  -0.00050792  1
  V  V53  1  0.87563714  0.87372500  0.49932802  1
  V  V54  1  0.37482186  0.12493850  0.74967085  1
  V  V55  1  0.49932556  0.62512213  0.62485308  1
  V  V56  1  -0.00109805  0.62463324  0.62644908  1
  V  V57  1  0.74986082  0.12570066  0.87509116  1
  V  V58  1  0.62586214  0.74874022  0.87500521  1
  V  V59  1  0.87455777  0.74940136  0.62459608  1
  V  V60  1  0.75114595  0.25045139  0.00079866  1
  V  V61  1  0.62469513  0.62455391  0.49909310  1
  V  V62  1  0.87514713  0.12474243  0.25134008  1
  V  V63  1  0.50017567  0.87454987  0.37482380  1
  V  V64  1  0.12585470  0.50076639  0.12626472  1
  V  V65  1  0.49998129  0.12690441  0.12700866  1
  V  V66  1  0.12541744  0.87433058  0.25046195  1
  V  V67  1  0.49955906  0.74974108  0.24785531  1
  V  V68  1  0.49929527  0.87662363  0.87493221  1
  V  V69  1  0.87574381  0.75105842  0.12460111  1
  V  V70  1  0.50036732  -0.00026028  0.50041633  1
  V  V71  1  0.12489684  0.12538894  0.00125249  1
  V  V72  1  0.62481324  0.75019450  0.37404733  1
  V  V73  1  0.50015895  0.12332460  0.62438361  1
  V  V74  1  0.87536520  0.87599018  0.00013851  1
  V  V75  1  0.24993479  -0.00110584  0.25024542  1
  V  V76  1  0.00022387  0.75014332  0.24969116  1
  V  V77  1  -0.00034688  0.25021538  0.25064662  1
  V  V78  1  0.62479508  0.12455656  0.49927585  1
  V  V79  1  0.49927757  0.37428403  0.87532236  1
  V  V80  1  0.25032719  0.49968485  0.75053532  1
  V  V81  1  0.87392106  0.25023359  0.62546209  1
  V  V82  1  0.74911068  0.50021715  0.24658626  1
  V  V83  1  0.37502828  0.74922792  0.62519977  1
  V  V84  1  0.24952114  0.24974342  0.50099234  1
  V  V85  1  0.74979652  0.37418027  0.62415534  1
  V  V86  1  0.87496512  0.50070221  0.87388306  1
  V  V87  1  0.62460396  0.12535011  0.00132338  1
  V  V88  1  0.74964224  0.75076703  -0.00180699  1
  V  V89  1  0.12547203  0.37468839  0.25090775  1
  V  V90  1  0.24875347  -0.00092389  0.75020115  1
  V  V91  1  0.00061048  0.12530935  0.12531781  1
  V  V92  1  0.49931127  0.24798793  0.74932216  1
  V  V93  1  0.75010174  0.00025713  0.74937973  1
  V  V94  1  -0.00020955  0.87383048  0.87519533  1
  V  V95  1  0.24995920  0.12467064  0.87561111  1
  Zn  Zn96  1  0.50016904  0.75076517  0.74886466  1
  Zn  Zn97  1  0.50151062  0.62416028  0.11874152  1
  Zn  Zn98  1  0.37743674  0.49974750  0.87388353  1
  Zn  Zn99  1  0.12615511  0.62578050  0.00106616  1
  Zn  Zn100  1  0.37500689  0.24872541  0.62428608  1
  Zn  Zn101  1  0.62237413  0.25185260  0.37608338  1
  Zn  Zn102  1  0.00177780  0.37510777  0.87471826  1
  Zn  Zn103  1  0.62262193  0.50259960  0.11916890  1
  Zn  Zn104  1  0.12616569  0.74823414  0.37451273  1
  Zn  Zn105  1  0.62474437  0.62377417  0.00157286  1
  Zn  Zn106  1  0.50018215  0.25394986  0.25303237  1
  Zn  Zn107  1  0.37368459  0.50079302  0.37312743  1
  Zn  Zn108  1  0.25131300  0.49989500  0.25276599  1
  Zn  Zn109  1  0.75057805  0.87582355  0.62309179  1
  Zn  Zn110  1  0.87527133  0.50001832  0.37433698  1
  Zn  Zn111  1  0.62711293  -0.00119063  0.62317756  1
  Zn  Zn112  1  0.87324092  0.62610453  0.75030308  1
  Zn  Zn113  1  0.50055080  0.37495618  0.37382224  1
  Zn  Zn114  1  0.00162699  0.62680420  0.12555252  1
  Zn  Zn115  1  0.74892883  0.62495679  0.87468733  1
  Zn  Zn116  1  0.12479535  0.00016620  0.12574844  1
  Zn  Zn117  1  0.50495117  0.50527900  -0.00386076  1
  Zn  Zn118  1  0.24969179  0.12409351  0.37594611  1
  Zn  Zn119  1  0.24866873  0.62347240  0.37506956  1
  Zn  Zn120  1  0.75056923  0.00008097  0.24996803  1
  Zn  Zn121  1  0.37526332  0.25142328  0.12725507  1
  Zn  Zn122  1  0.00033098  -0.00254348  0.50208336  1
  Zn  Zn123  1  0.49921951  0.00125397  0.00007927  1
  Zn  Zn124  1  0.74786056  0.25086690  0.50024882  1
  Zn  Zn125  1  0.12287818  -0.00150698  0.62565683  1
  Zn  Zn126  1  0.74842697  0.37644012  0.12407590  1
  Zn  Zn127  1  0.12278931  0.74863672  0.87730947  1
  Zn  Zn128  1  0.18790138  0.18810589  0.18755724  1
  Zn  Zn129  1  0.18760217  0.18746791  0.68659681  1
  Zn  Zn130  1  0.18905284  0.68801389  0.18773649  1
  Zn  Zn131  1  0.18601680  0.68799709  0.68821240  1
  Zn  Zn132  1  0.68835487  0.18989407  0.18964475  1
  Zn  Zn133  1  0.68643378  0.18627494  0.68562411  1
  Zn  Zn134  1  0.68698947  0.68769531  0.18429054  1
  Zn  Zn135  1  0.68914396  0.68647748  0.68743866  1
  Zn  Zn136  1  0.30958582  0.31121574  0.31494215  1
  Zn  Zn137  1  0.31307100  0.31122295  0.81376255  1
  Zn  Zn138  1  0.31140611  0.80968940  0.31353079  1
  Zn  Zn139  1  0.31238408  0.81074747  0.81228858  1
  Zn  Zn140  1  0.81156833  0.31325501  0.31289630  1
  Zn  Zn141  1  0.81273344  0.31448300  0.81307108  1
  Zn  Zn142  1  0.81252421  0.81289722  0.31164575  1
  Zn  Zn143  1  0.81219643  0.81347997  0.81148224  1
  Zn  Zn144  1  0.18911163  0.43985915  0.43593626  1
  Zn  Zn145  1  0.18985442  0.43736303  0.93788292  1
  Zn  Zn146  1  0.18776391  0.93661529  0.43617054  1
  Zn  Zn147  1  0.18598094  0.93714236  0.93757088  1
  Zn  Zn148  1  0.68843601  0.43880377  0.43493094  1
  Zn  Zn149  1  0.68815612  0.43696408  0.93680717  1
  Zn  Zn150  1  0.68861223  0.93884486  0.43624012  1
  Zn  Zn151  1  0.68668708  0.93855380  0.93754951  1
  Zn  Zn152  1  0.31221321  0.06137600  0.06420189  1
  Zn  Zn153  1  0.31203033  0.06112098  0.56385993  1
  Zn  Zn154  1  0.31487729  0.56194649  0.06414219  1
  Zn  Zn155  1  0.31126201  0.56151310  0.56278893  1
  Zn  Zn156  1  0.81256705  0.06365919  0.06341581  1
  Zn  Zn157  1  0.81221266  0.06021342  0.56175472  1
  Zn  Zn158  1  0.81082363  0.56662298  0.06163494  1
  Zn  Zn159  1  0.81265881  0.56211962  0.56236948  1
  Zn  Zn160  1  0.44140118  0.44252446  0.18300496  1
  Zn  Zn161  1  0.43678399  0.43737816  0.68568901  1
  Zn  Zn162  1  0.43773641  0.93923754  0.18700647  1
  Zn  Zn163  1  0.43761809  0.93843176  0.68728904  1
  Zn  Zn164  1  0.93721255  0.43754124  0.18776709  1
  Zn  Zn165  1  0.93810224  0.43624487  0.68803252  1
  Zn  Zn166  1  0.93814559  0.93827858  0.18850703  1
  Zn  Zn167  1  0.93754762  0.93682408  0.68634402  1
  Zn  Zn168  1  0.06235668  0.06056448  0.31371728  1
  Zn  Zn169  1  0.06285646  0.06202595  0.81302801  1
  Zn  Zn170  1  0.06181479  0.56345225  0.31403029  1
  Zn  Zn171  1  0.06294355  0.56320630  0.81246244  1
  Zn  Zn172  1  0.56287358  0.06091710  0.31285134  1
  Zn  Zn173  1  0.56169166  0.06139446  0.81252854  1
  Zn  Zn174  1  0.55999764  0.56113730  0.31132797  1
  Zn  Zn175  1  0.56069486  0.56145199  0.81226595  1
  Zn  Zn176  1  0.44015172  0.19022040  0.43547869  1
  Zn  Zn177  1  0.43719497  0.18893539  0.93877463  1
  Zn  Zn178  1  0.43673438  0.68717854  0.43600123  1
  Zn  Zn179  1  0.43813303  0.68960503  0.93578515  1
  Zn  Zn180  1  0.93697487  0.18776233  0.43928210  1
  Zn  Zn181  1  0.93851504  0.18784912  0.93754780  1
  Zn  Zn182  1  0.93833637  0.68682670  0.43633000  1
  Zn  Zn183  1  0.93688606  0.68595047  0.93843216  1
  Zn  Zn184  1  0.06238838  0.31374275  0.06291991  1
  Zn  Zn185  1  0.06163088  0.31148983  0.56371875  1
  Zn  Zn186  1  0.06442538  0.81251631  0.06318845  1
  Zn  Zn187  1  0.06207228  0.81114217  0.56356361  1
  Zn  Zn188  1  0.56355004  0.31397639  0.06579393  1
  Zn  Zn189  1  0.56165094  0.30903568  0.56159331  1
  Zn  Zn190  1  0.56105077  0.81275278  0.06082451  1
  Zn  Zn191  1  0.56216540  0.81119041  0.56230062  1
  O  O192  1  0.11808614  0.12444839  0.11900021  1
  O  O193  1  0.11927034  0.12469474  0.61602842  1
  O  O194  1  0.12449307  0.61224490  0.12384015  1
  O  O195  1  0.11860339  0.61823471  0.62101676  1
  O  O196  1  0.61806085  0.12137454  0.12223585  1
  O  O197  1  0.61828559  0.12145606  0.61836127  1
  O  O198  1  0.62089808  0.62453072  0.12086522  1
  O  O199  1  0.61988554  0.61925612  0.61879691  1
  O  O200  1  0.37404693  0.37615670  0.38877395  1
  O  O201  1  0.38027452  0.37353746  0.88374630  1
  O  O202  1  0.38097030  0.87903506  0.38047950  1
  O  O203  1  0.37903856  0.88005597  0.87919092  1
  O  O204  1  0.88156251  0.37536401  0.38227705  1
  O  O205  1  0.87771264  0.38527142  0.88122285  1
  O  O206  1  0.88013039  0.87931618  0.37944622  1
  O  O207  1  0.88015717  0.88177352  0.88058485  1
  O  O208  1  0.25779354  0.00130752  0.36861596  1
  O  O209  1  0.25497859  0.00555162  0.86997792  1
  O  O210  1  0.25423743  0.50473310  0.37037539  1
  O  O211  1  0.25211346  0.50855533  0.86890368  1
  O  O212  1  0.75700707  0.01041075  0.37311943  1
  O  O213  1  0.75607582  0.00660964  0.87034352  1
  O  O214  1  0.75230229  0.50784709  0.36409033  1
  O  O215  1  0.76044753  0.49917619  0.86838696  1
  O  O216  1  0.23974426  0.49298772  0.12549731  1
  O  O217  1  0.24289282  0.49396273  0.63108500  1
  O  O218  1  0.24866433  0.99292802  0.13236382  1
  O  O219  1  0.24857740  0.99230945  0.63294369  1
  O  O220  1  0.75028580  0.49992058  0.13728452  1
  O  O221  1  0.74396175  0.49379149  0.62980357  1
  O  O222  1  0.74398979  0.99472729  0.12627610  1
  O  O223  1  0.74778459  0.99679503  0.63368656  1
  O  O224  1  0.00509802  0.36904797  0.25585288  1
  O  O225  1  0.00811192  0.36792019  0.75104507  1
  O  O226  1  0.00519233  0.86966757  0.25475373  1
  O  O227  1  0.00398558  0.86980505  0.75613978  1
  O  O228  1  0.51105024  0.37680229  0.25027519  1
  O  O229  1  0.50481134  0.36830454  0.75358520  1
  O  O230  1  0.50489262  0.87041813  0.25540254  1
  O  O231  1  0.50975824  0.87562953  0.75538380  1
  O  O232  1  0.49092339  0.12336813  0.24289496  1
  O  O233  1  0.49456942  0.12844949  0.74526659  1
  O  O234  1  0.49018853  0.63312675  0.24953575  1
  O  O235  1  0.49327537  0.62610979  0.74218736  1
  O  O236  1  0.99540625  0.13121774  0.24584730  1
  O  O237  1  0.99443368  0.13069294  0.74606994  1
  O  O238  1  0.99319499  0.63153305  0.24854259  1
  O  O239  1  0.99834074  0.63074555  0.74385428  1
  O  O240  1  0.36834856  0.25889779  0.00190608  1
  O  O241  1  0.36859364  0.25838694  0.50136447  1
  O  O242  1  0.36863862  0.75776208  0.00457805  1
  O  O243  1  0.36981717  0.75526405  0.50596146  1
  O  O244  1  0.87117052  0.25463326  0.00458900  1
  O  O245  1  0.87378252  0.25673534  0.50864887  1
  O  O246  1  0.87054507  0.75724437  0.00418555  1
  O  O247  1  0.86955867  0.75393203  0.50441044  1
  O  O248  1  0.12859570  0.24168805  0.49636571  1
  O  O249  1  0.12981368  0.24530761  0.99503985  1
  O  O250  1  0.13124003  0.74269863  0.50143727  1
  O  O251  1  0.13323950  0.74616282  0.99829990  1
  O  O252  1  0.62808223  0.24032126  0.49750378  1
  O  O253  1  0.63089772  0.24480248  0.99481656  1
  O  O254  1  0.62979547  0.74428499  0.49366271  1
  O  O255  1  0.63163473  0.75622888  0.98762802  1
  O  O256  1  0.49910049  0.23676016  0.12980286  1
  O  O257  1  0.49834665  0.24126436  0.63242673  1
  O  O258  1  0.49199135  0.75274728  0.13170135  1
  O  O259  1  0.49333443  0.74288755  0.62558269  1
  O  O260  1  0.99494684  0.24506631  0.13074877  1
  O  O261  1  0.99404229  0.24426089  0.63224674  1
  O  O262  1  0.99331031  0.74974348  0.13073588  1
  O  O263  1  0.99376829  0.74385169  0.63106524  1
  O  O264  1  0.00444892  0.25535513  0.37003112  1
  O  O265  1  0.00684613  0.25157304  0.86921839  1
  O  O266  1  0.00082698  0.75686742  0.36717643  1
  O  O267  1  -0.00066907  0.75600324  0.86982107  1
  O  O268  1  0.50432102  0.25598628  0.36989260  1
  O  O269  1  0.50627557  0.25337233  0.86876636  1
  O  O270  1  0.50579213  0.75622071  0.36950297  1
  O  O271  1  0.50927606  0.75919374  0.87070728  1
  O  O272  1  0.24063570  0.13000164  0.50051573  1
  O  O273  1  0.24525217  0.12984191  0.99538969  1
  O  O274  1  0.24275600  0.63129113  0.50275991  1
  O  O275  1  0.25230264  0.62966863  0.99077875  1
  O  O276  1  0.74469763  0.12466581  0.49108295  1
  O  O277  1  0.74499584  0.13076978  0.99425952  1
  O  O278  1  0.74389876  0.62937178  0.49381073  1
  O  O279  1  0.74839805  0.63685474  0.99482352  1
  O  O280  1  0.25759381  0.36920004  0.00484419  1
  O  O281  1  0.25609233  0.37038798  0.50565865  1
  O  O282  1  0.25487560  0.87024946  0.00472227  1
  O  O283  1  0.25540504  0.86981143  0.50629600  1
  O  O284  1  0.75737235  0.36714454  0.00098412  1
  O  O285  1  0.75568407  0.37472653  0.50662780  1
  O  O286  1  0.75663632  0.87158423  0.00456515  1
  O  O287  1  0.75642044  0.86747290  0.49910795  1
  O  O288  1  0.12289243  0.49337976  0.24008567  1
  O  O289  1  0.13027290  0.49384598  0.74477247  1
  O  O290  1  0.13187946  0.99348052  0.24908051  1
  O  O291  1  0.13156686  0.99318332  0.75023155  1
  O  O292  1  0.63503656  0.49372143  0.25002629  1
  O  O293  1  0.62987151  0.49324665  0.74403216  1
  O  O294  1  0.62645258  0.99264937  0.24332109  1
  O  O295  1  0.63109406  0.99084593  0.75075371  1
  O  O296  1  0.37028739  0.00729847  0.25540051  1
  O  O297  1  0.36846749  0.00517703  0.75630446  1
  O  O298  1  0.37417805  0.51211870  0.24892659  1
  O  O299  1  0.36739942  0.50630649  0.74942019  1
  O  O300  1  0.87422888  0.00731431  0.25701716  1
  O  O301  1  0.87059606  0.00602145  0.75623842  1
  O  O302  1  0.86659274  0.50577009  0.25076862  1
  O  O303  1  0.87070886  0.49838619  0.75902771  1
  O  O304  1  0.11872537  0.36887003  0.37106922  1
  O  O305  1  0.12570518  0.36819775  0.86885281  1
  O  O306  1  0.11849659  0.87282059  0.36842223  1
  O  O307  1  0.11704754  0.87311100  0.86927202  1
  O  O308  1  0.62549611  0.37474062  0.36383433  1
  O  O309  1  0.61997641  0.36729966  0.86814733  1
  O  O310  1  0.61965649  0.86983991  0.36947045  1
  O  O311  1  0.62070824  0.86958491  0.86659494  1
  O  O312  1  0.38319528  0.12461605  0.13406298  1
  O  O313  1  0.38140388  0.12526849  0.63194137  1
  O  O314  1  0.37539615  0.63360115  0.13350700  1
  O  O315  1  0.37969517  0.62977911  0.62920435  1
  O  O316  1  0.88103194  0.13093933  0.13062073  1
  O  O317  1  0.87940345  0.13025279  0.63106713  1
  O  O318  1  0.87673279  0.63385497  0.13112512  1
  O  O319  1  0.88155870  0.63099917  0.62585109  1
  O  O320  1  0.25045641  0.25662503  0.11808114  1
  O  O321  1  0.25088850  0.25691207  0.61882047  1
  O  O322  1  0.25626974  0.75668198  0.11894975  1
  O  O323  1  0.25556982  0.75568266  0.62030921  1
  O  O324  1  0.75803305  0.24947220  0.11769311  1
  O  O325  1  0.75658509  0.25648278  0.62539304  1
  O  O326  1  0.75608549  0.75850280  0.11839860  1
  O  O327  1  0.75605296  0.75074432  0.61709116  1
  O  O328  1  0.24100489  0.24638784  0.38321242  1
  O  O329  1  0.24403421  0.24339480  0.88073661  1
  O  O330  1  0.24746246  0.74746210  0.38555375  1
  O  O331  1  0.24901173  0.74045941  0.88030028  1
  O  O332  1  0.75040316  0.23603496  0.37712874  1
  O  O333  1  0.74502353  0.24456495  0.87983945  1
  O  O334  1  0.74391912  0.74489154  0.37945472  1
  O  O335  1  0.74173234  0.75225796  0.87969188  1
  O  O336  1  0.00508678  0.12066943  0.00534194  1
  O  O337  1  0.00970808  0.12520918  0.50615012  1
  O  O338  1  0.00236202  0.61170651  0.00237779  1
  O  O339  1  0.00488996  0.61919657  0.50675375  1
  O  O340  1  0.50518831  0.12514735  0.01029648  1
  O  O341  1  0.50423021  0.11858378  0.50408790  1
  O  O342  1  0.50376707  0.62507092  -0.00145773  1
  O  O343  1  0.50523006  0.62004556  0.50509031  1
  O  O344  1  0.49010936  0.38049196  0.50269957  1
  O  O345  1  0.49057182  0.36929381  0.99349463  1
  O  O346  1  0.49433442  0.87904467  0.49456129  1
  O  O347  1  0.49193544  0.87853130  0.99319597  1
  O  O348  1  0.99497867  0.37967449  0.49648620  1
  O  O349  1  0.99461499  0.38550700  0.99861649  1
  O  O350  1  0.99372368  0.87425636  0.49342621  1
  O  O351  1  0.99446877  0.88083051  0.99535496  1
  O  O352  1  0.49578960  0.49685169  0.38458727  1
  O  O353  1  0.49665183  0.48934120  0.87531082  1
  O  O354  1  0.49430673  0.99313633  0.38053297  1
  O  O355  1  0.49220208  0.99482326  0.87696754  1
  O  O356  1  0.99850165  0.49246776  0.38256883  1
  O  O357  1  0.99368239  0.49813007  0.88330478  1
  O  O358  1  0.99346041  0.99200491  0.37712030  1
  O  O359  1  0.99371759  0.99533911  0.88068794  1
  O  O360  1  0.00048272  0.00743888  0.11822345  1
  O  O361  1  0.00223233  0.00851660  0.62299190  1
  O  O362  1  0.00858465  0.49934707  0.11680689  1
  O  O363  1  0.00533686  0.50413534  0.62073152  1
  O  O364  1  0.50591248  0.01123058  0.12384677  1
  O  O365  1  0.50172413  0.00548846  0.61758758  1
  O  O366  1  0.50385375  0.50526468  0.11490532  1
  O  O367  1  0.50621629  0.50546439  0.61890677  1
  O  O368  1  0.24283296  0.37502048  0.24377814  1
  O  O369  1  0.24546284  0.37925050  0.74528446  1
  O  O370  1  0.24591960  0.87905816  0.24517420  1
  O  O371  1  0.24476883  0.87938660  0.74613843  1
  O  O372  1  0.74447419  0.38516581  0.24987769  1
  O  O373  1  0.74348545  0.37974332  0.74429541  1
  O  O374  1  0.74293712  0.87621985  0.24284083  1
  O  O375  1  0.74079512  0.88197897  0.74955963  1
  O  O376  1  0.25937363  0.11921398  0.25054298  1
  O  O377  1  0.25429021  0.12003223  0.75606921  1
  O  O378  1  0.26224955  0.62541496  0.25068070  1
  O  O379  1  0.25438961  0.62002257  0.75645514  1
  O  O380  1  0.75647061  0.12362566  0.25926187  1
  O  O381  1  0.75544626  0.12080217  0.75618340  1
  O  O382  1  0.75494382  0.61927707  0.25422234  1
  O  O383  1  0.75286365  0.61559209  0.75267509  1
  O  O384  1  0.37499982  0.11803551  0.36617408  1
  O  O385  1  0.36906002  0.12027146  0.87035808  1
  O  O386  1  0.37319835  0.62547681  0.36322376  1
  O  O387  1  0.36458022  0.62450754  0.86777259  1
  O  O388  1  0.86886880  0.12040780  0.37147084  1
  O  O389  1  0.86975290  0.12081066  0.86972200  1
  O  O390  1  0.86789698  0.62433756  0.36748557  1
  O  O391  1  0.87432182  0.61104643  0.87366750  1
  O  O392  1  0.12957784  0.38206665  0.13054207  1
  O  O393  1  0.13015037  0.37961183  0.63079842  1
  O  O394  1  0.13228063  0.87741739  0.13204852  1
  O  O395  1  0.13110263  0.87610431  0.63231404  1
  O  O396  1  0.62959021  0.37788119  0.13646711  1
  O  O397  1  0.62932459  0.37960778  0.62999101  1
  O  O398  1  0.62970292  0.88051706  0.12900536  1
  O  O399  1  0.62624610  0.87525108  0.63630509  1
  O  O400  1  0.11896491  0.25455617  0.25602289  1
  O  O401  1  0.12053510  0.25416946  0.75569976  1
  O  O402  1  0.11865665  0.75653751  0.25000884  1
  O  O403  1  0.11705945  0.75664134  0.75215700  1
  O  O404  1  0.62629122  0.26289986  0.25253908  1
  O  O405  1  0.61967794  0.25398581  0.75574466  1
  O  O406  1  0.61984228  0.75652073  0.25547276  1
  O  O407  1  0.62609484  0.76057802  0.75713499  1
  O  O408  1  0.37483670  0.23807879  0.24931781  1
  O  O409  1  0.38118288  0.24238348  0.74916181  1
  O  O410  1  0.38021316  0.74478512  0.24428565  1
  O  O411  1  0.37621511  0.74335641  0.74232776  1
  O  O412  1  0.88088969  0.24495132  0.24521423  1
  O  O413  1  0.88016902  0.24510072  0.74607471  1
  O  O414  1  0.87999874  0.74608283  0.24364531  1
  O  O415  1  0.88075170  0.74922965  0.74366519  1
  O  O416  1  0.38013310  0.49031209  0.50187408  1
  O  O417  1  0.37344448  0.48456693  0.99738466  1
  O  O418  1  0.37975679  0.99351244  0.49463105  1
  O  O419  1  0.37442064  0.99399024  0.99310682  1
  O  O420  1  0.88185740  0.49291410  0.49935501  1
  O  O421  1  0.88178573  0.49575441  0.99421327  1
  O  O422  1  0.87701952  0.99214775  0.49324179  1
  O  O423  1  0.88034940  0.99617709  0.99439964  1
  O  O424  1  0.11819906  0.00759904  0.00108284  1
  O  O425  1  0.12452862  0.01165771  0.50114071  1
  O  O426  1  0.11744452  0.49784982  0.00900809  1
  O  O427  1  0.11889386  0.50392597  0.50732066  1
  O  O428  1  0.62342670  0.00795407  0.00645485  1
  O  O429  1  0.61773428  0.00521686  0.50014287  1
  O  O430  1  0.62533561  0.50424241  -0.00092864  1
  O  O431  1  0.61995313  0.50536233  0.50532482  1
  O  O432  1  0.36978588  0.37261320  0.11692047  1
  O  O433  1  0.36842242  0.37298944  0.61501967  1
  O  O434  1  0.36929312  0.87127956  0.11994101  1
  O  O435  1  0.36973266  0.86971545  0.61971567  1
  O  O436  1  0.87386149  0.36777316  0.11921619  1
  O  O437  1  0.86959884  0.36972669  0.62090752  1
  O  O438  1  0.86987358  0.87127323  0.11920010  1
  O  O439  1  0.87416987  0.86701126  0.61778955  1
  O  O440  1  0.12430368  0.13064715  0.38510708  1
  O  O441  1  0.13067124  0.13058913  0.88115678  1
  O  O442  1  0.12599465  0.62750660  0.38466537  1
  O  O443  1  0.13828893  0.62540886  0.87670548  1
  O  O444  1  0.63464515  0.12349680  0.37947191  1
  O  O445  1  0.62997767  0.12996030  0.88047120  1
  O  O446  1  0.62977633  0.63112665  0.37963469  1
  O  O447  1  0.62546313  0.64074879  0.87071463  1
