# generated using pymatgen
data_V3Zn3O8
_symmetry_space_group_name_H-M   'P 1'
_cell_length_a   17.08731203
_cell_length_b   17.08502045
_cell_length_c   17.08515845
_cell_angle_alpha   90.01448713
_cell_angle_beta   90.01058980
_cell_angle_gamma   89.99273515
_symmetry_Int_Tables_number   1
_chemical_formula_structural   V3Zn3O8
_chemical_formula_sum   'V96 Zn96 O256'
_cell_volume   4987.79090847
_cell_formula_units_Z   32
loop_
 _symmetry_equiv_pos_site_id
 _symmetry_equiv_pos_as_xyz
  1  'x, y, z'
loop_
 _atom_site_type_symbol
 _atom_site_label
 _atom_site_symmetry_multiplicity
 _atom_site_fract_x
 _atom_site_fract_y
 _atom_site_fract_z
 _atom_site_occupancy
  V  V0  1  0.62521834  0.12412299  0.50092257  1
  V  V1  1  0.24906545  0.37418376  0.12514492  1
  V  V2  1  0.62536757  0.12472310  0.00092600  1
  V  V3  1  0.37617850  0.12487306  0.25013931  1
  V  V4  1  0.12369490  0.75042341  0.87503344  1
  V  V5  1  0.75006610  0.37583389  0.12554997  1
  V  V6  1  0.62476402  0.74952329  0.87394108  1
  V  V7  1  0.00119273  0.12511653  0.12498084  1
  V  V8  1  0.25017762  0.50093316  0.74979827  1
  V  V9  1  0.62536815  0.87421283  0.24946023  1
  V  V10  1  0.75112901  0.62451562  0.37277321  1
  V  V11  1  0.37590402  0.87493219  -0.00056614  1
  V  V12  1  0.75059077  0.25031474  0.50054825  1
  V  V13  1  0.62547115  0.75008440  0.37336971  1
  V  V14  1  0.75131088  0.75022218  0.49884014  1
  V  V15  1  0.37433721  0.62500605  0.25039929  1
  V  V16  1  0.25058761  0.62491753  0.37514322  1
  V  V17  1  0.75019410  0.12478907  0.37567031  1
  V  V18  1  0.37472549  0.12485809  0.75016634  1
  V  V19  1  0.25121580  0.75100224  0.50107085  1
  V  V20  1  0.62478125  -0.00002998  0.62584445  1
  V  V21  1  -0.00106911  0.50053217  -0.00084676  1
  V  V22  1  0.49875614  0.12519125  0.62632061  1
  V  V23  1  0.87475160  0.37535401  -0.00080604  1
  V  V24  1  0.00113935  0.87438865  0.37333757  1
  V  V25  1  0.87556057  0.12492459  0.25012523  1
  V  V26  1  0.75027314  0.75109371  -0.00018772  1
  V  V27  1  0.12464737  0.50081448  0.62531997  1
  V  V28  1  0.00035188  0.25025010  0.25028510  1
  V  V29  1  0.87479155  0.37542941  0.50073245  1
  V  V30  1  0.12488598  0.62511343  0.50010574  1
  V  V31  1  0.12543724  0.74979009  0.37426871  1
  V  V32  1  0.37481210  -0.00079776  0.87600344  1
  V  V33  1  0.50000688  0.24930375  0.25082210  1
  V  V34  1  0.75038353  -0.00063171  0.24929017  1
  V  V35  1  0.87531898  0.75039170  0.62370734  1
  V  V36  1  0.49930888  0.74937834  0.74935098  1
  V  V37  1  0.49807620  0.49919101  0.00105350  1
  V  V38  1  0.25164645  0.00042489  0.25022597  1
  V  V39  1  0.37486482  0.62571832  0.74877528  1
  V  V40  1  0.12454362  0.62548348  -0.00098874  1
  V  V41  1  0.87260839  0.50090783  0.87413771  1
  V  V42  1  0.87576904  -0.00033172  0.37461338  1
  V  V43  1  0.24945694  0.25038327  0.50047387  1
  V  V44  1  0.87565618  0.25061102  0.12480013  1
  V  V45  1  0.12489577  0.49920145  0.12478590  1
  V  V46  1  0.12516170  0.12559031  0.50029265  1
  V  V47  1  0.37619880  -0.00139690  0.37630871  1
  V  V48  1  0.37510690  0.25019327  0.12684627  1
  V  V49  1  -0.00052617  0.12525566  0.62579131  1
  V  V50  1  0.37429434  0.24992721  0.62480764  1
  V  V51  1  0.62475074  0.37496903  0.75059510  1
  V  V52  1  -0.00087885  0.49966597  0.49976358  1
  V  V53  1  0.12622491  0.12538229  -0.00017997  1
  V  V54  1  0.12392498  0.87494637  0.75094930  1
  V  V55  1  0.12724545  0.00000291  0.12648218  1
  V  V56  1  0.12423580  0.37496170  0.24995123  1
  V  V57  1  0.37485005  0.49936472  0.37682674  1
  V  V58  1  0.49933225  0.37318559  0.87535816  1
  V  V59  1  0.74931449  0.62530998  0.87422192  1
  V  V60  1  0.87440506  0.62437189  0.24874409  1
  V  V61  1  0.87364538  0.62635636  0.74902741  1
  V  V62  1  0.62447702  0.00125431  0.12421795  1
  V  V63  1  0.12545058  -0.00008150  0.62485595  1
  V  V64  1  0.25059248  0.87403632  0.62397256  1
  V  V65  1  0.25027619  0.37529021  0.62478223  1
  V  V66  1  0.87547920  0.12497396  0.74972920  1
  V  V67  1  -0.00009367  0.62565222  0.12447566  1
  V  V68  1  0.00171774  0.74997133  0.24898580  1
  V  V69  1  0.74849221  0.00056522  0.74991286  1
  V  V70  1  0.37460987  0.74893191  0.12450525  1
  V  V71  1  0.25011104  0.24945957  0.00047613  1
  V  V72  1  0.62395067  0.62335677  0.50107567  1
  V  V73  1  0.49885676  0.62304051  0.12460255  1
  V  V74  1  -0.00005427  0.37473046  0.87340351  1
  V  V75  1  0.25135137  0.87478033  0.12639813  1
  V  V76  1  0.37445442  0.49951112  0.87454517  1
  V  V77  1  0.00064238  0.00026065  0.49890637  1
  V  V78  1  0.74966968  0.12487010  0.87501579  1
  V  V79  1  0.50122129  0.75022103  0.24944823  1
  V  V80  1  0.74932421  0.37582939  0.62597003  1
  V  V81  1  0.24992653  0.12589150  0.87581509  1
  V  V82  1  0.24961468  -0.00006766  0.75024008  1
  V  V83  1  0.12533102  0.24966493  0.37623823  1
  V  V84  1  0.87522644  0.87429284  0.49947275  1
  V  V85  1  0.62468824  0.87534158  0.74954251  1
  V  V86  1  0.62468609  0.25006828  0.37499016  1
  V  V87  1  -0.00080219  0.37545235  0.37672834  1
  V  V88  1  -0.00101845  0.62641655  0.62505945  1
  V  V89  1  0.75002101  0.24930777  -0.00016680  1
  V  V90  1  -0.00080540  -0.00231724  -0.00118980  1
  V  V91  1  0.12354366  0.37538771  0.75081504  1
  V  V92  1  0.50003347  0.37488574  0.37691334  1
  V  V93  1  0.75071372  0.87428389  0.12326897  1
  V  V94  1  0.50018196  -0.00129896  0.50010077  1
  V  V95  1  0.62491254  0.49894349  0.12691603  1
  Zn  Zn96  1  -0.00253877  0.87588482  0.87331346  1
  Zn  Zn97  1  0.62813534  0.37446919  0.25165912  1
  Zn  Zn98  1  -0.00216346  0.75334648  0.74998823  1
  Zn  Zn99  1  0.12409723  0.25042653  0.87403818  1
  Zn  Zn100  1  0.62406685  0.24898160  0.87628216  1
  Zn  Zn101  1  0.37374043  0.37395005  0.00085030  1
  Zn  Zn102  1  0.24996679  0.74713010  0.00032783  1
  Zn  Zn103  1  0.24988801  0.12506632  0.37582938  1
  Zn  Zn104  1  0.50045915  0.12509353  0.12408927  1
  Zn  Zn105  1  0.87493575  -0.00222305  0.87528035  1
  Zn  Zn106  1  0.37510018  0.37522701  0.50168828  1
  Zn  Zn107  1  0.37611407  0.75113113  0.62332245  1
  Zn  Zn108  1  0.24849177  0.62408117  0.87589834  1
  Zn  Zn109  1  0.62214815  0.49997161  0.62434025  1
  Zn  Zn110  1  0.75056202  0.87558726  0.62426393  1
  Zn  Zn111  1  0.87360879  0.49921138  0.37439588  1
  Zn  Zn112  1  0.87725238  0.75217094  0.12203863  1
  Zn  Zn113  1  0.74825530  0.50122212  0.74977466  1
  Zn  Zn114  1  0.12646310  0.87520066  0.25016684  1
  Zn  Zn115  1  0.87745444  0.25083760  0.62588762  1
  Zn  Zn116  1  0.37792423  0.87274520  0.50188332  1
  Zn  Zn117  1  0.49931176  0.24918189  0.75041524  1
  Zn  Zn118  1  0.00152007  0.24939639  0.75086234  1
  Zn  Zn119  1  0.75050454  0.49867041  0.25017271  1
  Zn  Zn120  1  0.50051065  0.50040950  0.50183980  1
  Zn  Zn121  1  0.62376739  0.62500009  -0.00092759  1
  Zn  Zn122  1  0.50012393  0.00203902  0.00005664  1
  Zn  Zn123  1  0.87533143  0.87569045  -0.00252591  1
  Zn  Zn124  1  0.50083859  0.62201126  0.62387838  1
  Zn  Zn125  1  0.24843788  0.49930400  0.25009674  1
  Zn  Zn126  1  0.49971034  0.87620149  0.87551384  1
  Zn  Zn127  1  0.50190715  0.87432296  0.37636715  1
  Zn  Zn128  1  0.18933860  0.18635190  0.18877319  1
  Zn  Zn129  1  0.18686247  0.18904973  0.68830911  1
  Zn  Zn130  1  0.18845850  0.68688594  0.18738419  1
  Zn  Zn131  1  0.18742460  0.68901469  0.68851140  1
  Zn  Zn132  1  0.68762458  0.18829657  0.18755111  1
  Zn  Zn133  1  0.68695855  0.18946885  0.68852650  1
  Zn  Zn134  1  0.68725590  0.68646433  0.18505516  1
  Zn  Zn135  1  0.68906146  0.68932224  0.68577594  1
  Zn  Zn136  1  0.31138622  0.31254794  0.31243561  1
  Zn  Zn137  1  0.31165160  0.31192970  0.81156899  1
  Zn  Zn138  1  0.31347818  0.81328553  0.31285284  1
  Zn  Zn139  1  0.30953487  0.81167701  0.81359341  1
  Zn  Zn140  1  0.81280686  0.31300361  0.31270931  1
  Zn  Zn141  1  0.81229918  0.31046228  0.81320992  1
  Zn  Zn142  1  0.81330079  0.81084380  0.31113428  1
  Zn  Zn143  1  0.81336730  0.81523939  0.81264317  1
  Zn  Zn144  1  0.18738352  0.43685069  0.43832906  1
  Zn  Zn145  1  0.18739821  0.43722065  0.93717363  1
  Zn  Zn146  1  0.18898704  0.93646326  0.43723977  1
  Zn  Zn147  1  0.18813067  0.93656155  0.93844382  1
  Zn  Zn148  1  0.68932516  0.43913113  0.43622228  1
  Zn  Zn149  1  0.68626474  0.43819804  0.93906575  1
  Zn  Zn150  1  0.68790366  0.93667335  0.43694295  1
  Zn  Zn151  1  0.68661884  0.93778270  0.93541532  1
  Zn  Zn152  1  0.31382694  0.06303087  0.06338069  1
  Zn  Zn153  1  0.31197685  0.06266303  0.56184567  1
  Zn  Zn154  1  0.31006675  0.56099270  0.06099044  1
  Zn  Zn155  1  0.31272402  0.56389134  0.56295209  1
  Zn  Zn156  1  0.81291593  0.06228645  0.06295206  1
  Zn  Zn157  1  0.81259533  0.06139033  0.56409623  1
  Zn  Zn158  1  0.81130433  0.56399898  0.06163113  1
  Zn  Zn159  1  0.81124227  0.56149703  0.56212483  1
  Zn  Zn160  1  0.43626207  0.43552388  0.19060622  1
  Zn  Zn161  1  0.43924769  0.43906276  0.68619386  1
  Zn  Zn162  1  0.43996688  0.93778701  0.18673132  1
  Zn  Zn163  1  0.43661609  0.93653061  0.68741113  1
  Zn  Zn164  1  0.93832465  0.43825469  0.18704936  1
  Zn  Zn165  1  0.93641013  0.43962154  0.68842154  1
  Zn  Zn166  1  0.93768489  0.93557647  0.18509150  1
  Zn  Zn167  1  0.93800523  0.93768641  0.68679548  1
  Zn  Zn168  1  0.06404835  0.06275796  0.31259191  1
  Zn  Zn169  1  0.06345935  0.06265797  0.81359649  1
  Zn  Zn170  1  0.06169178  0.56175675  0.31245951  1
  Zn  Zn171  1  0.05969889  0.56394703  0.81174036  1
  Zn  Zn172  1  0.56208417  0.06250587  0.31204357  1
  Zn  Zn173  1  0.56089181  0.06157455  0.81500525  1
  Zn  Zn174  1  0.56189397  0.56301762  0.31272408  1
  Zn  Zn175  1  0.56238652  0.56106711  0.81316545  1
  Zn  Zn176  1  0.43674087  0.18612982  0.43905450  1
  Zn  Zn177  1  0.43709745  0.18756685  0.93958127  1
  Zn  Zn178  1  0.43845132  0.68906900  0.43663230  1
  Zn  Zn179  1  0.43773653  0.68644475  0.93659265  1
  Zn  Zn180  1  0.93723248  0.18871329  0.43883613  1
  Zn  Zn181  1  0.93804087  0.18694990  0.93538467  1
  Zn  Zn182  1  0.93805555  0.68719549  0.43564861  1
  Zn  Zn183  1  0.93689283  0.68829338  0.93588004  1
  Zn  Zn184  1  0.06306927  0.31238329  0.06061165  1
  Zn  Zn185  1  0.06191768  0.31170410  0.56506430  1
  Zn  Zn186  1  0.06462992  0.81293909  0.06339421  1
  Zn  Zn187  1  0.06300451  0.81270686  0.56209951  1
  Zn  Zn188  1  0.56241452  0.31212078  0.06296903  1
  Zn  Zn189  1  0.56187698  0.31100689  0.56270159  1
  Zn  Zn190  1  0.56274601  0.81271985  0.06289924  1
  Zn  Zn191  1  0.56307515  0.81246738  0.56308693  1
  O  O192  1  0.12030972  0.11991382  0.12010114  1
  O  O193  1  0.12000334  0.11872668  0.62021158  1
  O  O194  1  0.11928437  0.61926120  0.11981790  1
  O  O195  1  0.11968029  0.62004004  0.61973139  1
  O  O196  1  0.62668544  0.11901434  0.11817987  1
  O  O197  1  0.61931394  0.12047238  0.62037926  1
  O  O198  1  0.61768711  0.61517543  0.12344469  1
  O  O199  1  0.62703095  0.62411760  0.61246113  1
  O  O200  1  0.38196645  0.38287880  0.37631930  1
  O  O201  1  0.38458363  0.38099596  0.87371640  1
  O  O202  1  0.37842415  0.88777824  0.37611546  1
  O  O203  1  0.37274367  0.87958977  0.88445555  1
  O  O204  1  0.88172081  0.37596562  0.38178641  1
  O  O205  1  0.87869238  0.38066331  0.88037901  1
  O  O206  1  0.88100276  0.88024709  0.37915884  1
  O  O207  1  0.87976420  0.88049855  0.87873572  1
  O  O208  1  0.25986216  0.00124315  0.37014241  1
  O  O209  1  0.25479418  0.00592594  0.86973819  1
  O  O210  1  0.25832256  0.50519306  0.37436449  1
  O  O211  1  0.25628921  0.50040987  0.86714494  1
  O  O212  1  0.75623365  0.00546592  0.36934466  1
  O  O213  1  0.75053647  0.00780965  0.86729901  1
  O  O214  1  0.75314328  0.50832539  0.36981580  1
  O  O215  1  0.75558805  0.50696640  0.87599291  1
  O  O216  1  0.24225904  0.49263768  0.12699465  1
  O  O217  1  0.24424022  0.49554825  0.62971609  1
  O  O218  1  0.24666870  0.99519186  0.13103990  1
  O  O219  1  0.24372120  0.99520966  0.63025739  1
  O  O220  1  0.74071954  0.49513576  0.12438803  1
  O  O221  1  0.74679573  0.48623501  0.62559522  1
  O  O222  1  0.74515818  0.99494226  0.13095653  1
  O  O223  1  0.74173786  0.99941390  0.63118788  1
  O  O224  1  0.00428004  0.36903558  0.25537928  1
  O  O225  1  0.00524613  0.37559275  0.75564336  1
  O  O226  1  0.00132806  0.86840280  0.25578809  1
  O  O227  1  0.00907341  0.87476647  0.75142886  1
  O  O228  1  0.50090490  0.36852226  0.26315450  1
  O  O229  1  0.50753594  0.37476894  0.75898375  1
  O  O230  1  0.50820378  0.86747311  0.24992486  1
  O  O231  1  0.50446702  0.86493002  0.75141370  1
  O  O232  1  0.49406993  0.13255835  0.24935287  1
  O  O233  1  0.49293024  0.12605523  0.74415870  1
  O  O234  1  0.49378343  0.63050954  0.24433713  1
  O  O235  1  0.49213556  0.63230643  0.75039326  1
  O  O236  1  0.99502590  0.13050086  0.24506522  1
  O  O237  1  0.99127338  0.12280179  0.74476074  1
  O  O238  1  0.99327485  0.62996310  0.24497266  1
  O  O239  1  0.99184523  0.62717247  0.74187521  1
  O  O240  1  0.36773391  0.25123334  0.00835761  1
  O  O241  1  0.36764334  0.25031829  0.50680504  1
  O  O242  1  0.37371395  0.75755888  0.00524972  1
  O  O243  1  0.36756861  0.75114829  0.50195126  1
  O  O244  1  0.87038479  0.25511264  0.00590496  1
  O  O245  1  0.86787204  0.25659965  0.50209159  1
  O  O246  1  0.86207132  0.75113562  -0.00003761  1
  O  O247  1  0.87081413  0.75482236  0.50289070  1
  O  O248  1  0.12935370  0.24502569  0.49575708  1
  O  O249  1  0.13178211  0.24249185  0.99926684  1
  O  O250  1  0.13013355  0.74367155  0.49372895  1
  O  O251  1  0.12587531  0.74428014  0.99191749  1
  O  O252  1  0.63068259  0.24318645  0.49462328  1
  O  O253  1  0.63286997  0.24302773  1.00037139  1
  O  O254  1  0.63114688  0.74292951  0.49385306  1
  O  O255  1  0.63355561  0.74904588  0.99380423  1
  O  O256  1  0.49339589  0.25079849  0.13332590  1
  O  O257  1  0.49276267  0.24279319  0.62583851  1
  O  O258  1  0.49479456  0.74290527  0.12984529  1
  O  O259  1  0.49921609  0.74660388  0.63853037  1
  O  O260  1  0.99497884  0.24505629  0.13022436  1
  O  O261  1  0.99756481  0.24096102  0.62880184  1
  O  O262  1  1.00020385  0.74302726  0.13031598  1
  O  O263  1  0.99356634  0.74328254  0.62409554  1
  O  O264  1  0.00523815  0.25552489  0.37011122  1
  O  O265  1  0.00235314  0.25886982  0.87295504  1
  O  O266  1  0.00638832  0.75491241  0.36979801  1
  O  O267  1  0.01182145  0.75244649  0.87375535  1
  O  O268  1  0.50416811  0.25673721  0.37193664  1
  O  O269  1  0.50018911  0.26214095  0.87407708  1
  O  O270  1  0.50720400  0.75130504  0.36641834  1
  O  O271  1  0.50532603  0.75037370  0.86432945  1
  O  O272  1  0.24211522  0.13188825  0.49955259  1
  O  O273  1  0.24547787  0.12945025  0.99554911  1
  O  O274  1  0.24384665  0.63034149  0.49488102  1
  O  O275  1  0.24068480  0.62634638  0.99676945  1
  O  O276  1  0.74521234  0.12929091  0.49508823  1
  O  O277  1  0.74536962  0.12978261  0.99535128  1
  O  O278  1  0.74398719  0.63046698  0.49297294  1
  O  O279  1  0.74761255  0.63510610  0.99397223  1
  O  O280  1  0.25003420  0.36803209  0.00716856  1
  O  O281  1  0.25032762  0.36871461  0.50759103  1
  O  O282  1  0.26118063  0.87370944  0.00721371  1
  O  O283  1  0.25073338  0.86825385  0.50650303  1
  O  O284  1  0.75586254  0.36955279  0.00540019  1
  O  O285  1  0.75361387  0.37008887  0.50711199  1
  O  O286  1  0.74869091  0.86589373  0.00453137  1
  O  O287  1  0.75768166  0.86858416  0.49924545  1
  O  O288  1  0.12435854  0.49307134  0.24307850  1
  O  O289  1  0.12992274  0.49656115  0.74391369  1
  O  O290  1  0.13261998  0.99972619  0.24422137  1
  O  O291  1  0.13115276  0.99575189  0.74443518  1
  O  O292  1  0.62529314  0.49889841  0.23755666  1
  O  O293  1  0.62718517  0.48690006  0.74872691  1
  O  O294  1  0.63203468  0.99524142  0.24552546  1
  O  O295  1  0.62860652  0.99565979  0.74485886  1
  O  O296  1  0.37232533  0.00465175  0.25735995  1
  O  O297  1  0.36828965  0.00509895  0.75534865  1
  O  O298  1  0.37347936  0.50559968  0.26160822  1
  O  O299  1  0.37077440  0.50801143  0.75434795  1
  O  O300  1  0.87052551  0.00540523  0.25495907  1
  O  O301  1  0.86853829  0.01083604  0.74849429  1
  O  O302  1  0.87581664  0.51322775  0.25020839  1
  O  O303  1  0.87138419  0.50753213  0.75673242  1
  O  O304  1  0.11874099  0.36935256  0.37042545  1
  O  O305  1  0.11751459  0.37624437  0.86826532  1
  O  O306  1  0.11865375  0.86830518  0.37354197  1
  O  O307  1  0.12472899  0.86699924  0.86993484  1
  O  O308  1  0.61685151  0.36943319  0.37460454  1
  O  O309  1  0.61645016  0.37487481  0.86840904  1
  O  O310  1  0.62568076  0.86817739  0.36696058  1
  O  O311  1  0.62205012  0.86783786  0.86732056  1
  O  O312  1  0.37673218  0.13196095  0.13242295  1
  O  O313  1  0.37929005  0.12888940  0.63088562  1
  O  O314  1  0.37918021  0.62819650  0.13051727  1
  O  O315  1  0.37686066  0.62710362  0.63792148  1
  O  O316  1  0.88058167  0.13111906  0.13126893  1
  O  O317  1  0.88020501  0.12546228  0.63336432  1
  O  O318  1  0.88114176  0.62690336  0.13259325  1
  O  O319  1  0.87903954  0.63028746  0.62850118  1
  O  O320  1  0.25498064  0.25465077  0.12063264  1
  O  O321  1  0.25445640  0.25582832  0.61985727  1
  O  O322  1  0.25764427  0.75587844  0.12465058  1
  O  O323  1  0.24975756  0.75637197  0.61854853  1
  O  O324  1  0.75697828  0.25539247  0.12023901  1
  O  O325  1  0.75040343  0.26059102  0.61907549  1
  O  O326  1  0.74925179  0.75490064  0.11436534  1
  O  O327  1  0.75794974  0.75230681  0.61618723  1
  O  O328  1  0.24281952  0.24906842  0.38180531  1
  O  O329  1  0.24944254  0.24350125  0.88223501  1
  O  O330  1  0.24548663  0.74450701  0.38003438  1
  O  O331  1  0.23614140  0.74694759  0.87690444  1
  O  O332  1  0.74492782  0.24419400  0.38044369  1
  O  O333  1  0.74867744  0.24333384  0.88293224  1
  O  O334  1  0.74511452  0.74397763  0.37929846  1
  O  O335  1  0.74440997  0.74558321  0.88181775  1
  O  O336  1  0.00554560  0.11836830  0.00630735  1
  O  O337  1  0.00484789  0.11927374  0.50490166  1
  O  O338  1  0.00355689  0.61930549  0.00501376  1
  O  O339  1  0.00551439  0.61982088  0.50463154  1
  O  O340  1  0.51032325  0.12455892  0.00294159  1
  O  O341  1  0.50639456  0.11919099  0.50631818  1
  O  O342  1  0.50036660  0.61752043  0.00681292  1
  O  O343  1  0.51298782  0.62655024  0.49977476  1
  O  O344  1  0.49850379  0.37509650  0.48712635  1
  O  O345  1  0.49886527  0.38002236  0.99011903  1
  O  O346  1  0.49894237  0.88270765  0.49764060  1
  O  O347  1  0.48689687  0.87558877  0.99916185  1
  O  O348  1  0.99515335  0.37994389  0.49659339  1
  O  O349  1  0.99380628  0.38125111  0.99492282  1
  O  O350  1  0.99528326  0.88109454  0.49332708  1
  O  O351  1  1.00056976  0.88786192  1.00147340  1
  O  O352  1  0.49201294  0.49198089  0.37519007  1
  O  O353  1  0.49507982  0.49158919  0.88037088  1
  O  O354  1  0.49226281  0.99953509  0.38072716  1
  O  O355  1  0.49006523  0.99622387  0.87797446  1
  O  O356  1  0.99949464  0.49298370  0.38252501  1
  O  O357  1  0.99236124  0.49550671  0.88049335  1
  O  O358  1  0.99492974  0.99518511  0.37939828  1
  O  O359  1  1.00152442  1.00021915  0.88875867  1
  O  O360  1  0.00639663  0.00606831  0.11920808  1
  O  O361  1  0.00627912  0.00529170  0.61764315  1
  O  O362  1  0.00531885  0.50513208  0.11810010  1
  O  O363  1  0.00531349  0.50626470  0.61909537  1
  O  O364  1  0.50954033  0.00322402  0.12278530  1
  O  O365  1  0.50500556  0.00597019  0.62037927  1
  O  O366  1  0.50550225  0.50230644  0.12183510  1
  O  O367  1  0.50442011  0.50339400  0.61863982  1
  O  O368  1  0.24124699  0.37526703  0.24373012  1
  O  O369  1  0.24451570  0.38160806  0.74380873  1
  O  O370  1  0.25055076  0.88220672  0.24345251  1
  O  O371  1  0.24387930  0.88107776  0.74455320  1
  O  O372  1  0.74934402  0.37753156  0.24177679  1
  O  O373  1  0.74257128  0.37431593  0.74278399  1
  O  O374  1  0.74547140  0.87981208  0.24425022  1
  O  O375  1  0.74249905  0.88226488  0.74748818  1
  O  O376  1  0.25790944  0.11827807  0.25297469  1
  O  O377  1  0.25473877  0.11883045  0.75525146  1
  O  O378  1  0.25667927  0.62308467  0.25755909  1
  O  O379  1  0.25892831  0.61946180  0.75085496  1
  O  O380  1  0.75646416  0.11967806  0.25587847  1
  O  O381  1  0.75619319  0.12098558  0.75420621  1
  O  O382  1  0.75965815  0.62570490  0.25320646  1
  O  O383  1  0.75538606  0.62410975  0.75601889  1
  O  O384  1  0.37450505  0.11392633  0.36999969  1
  O  O385  1  0.36922553  0.11951948  0.87051479  1
  O  O386  1  0.37099709  0.61769945  0.37016511  1
  O  O387  1  0.37386577  0.61885768  0.86417841  1
  O  O388  1  0.87029673  0.11964744  0.37012031  1
  O  O389  1  0.86940716  0.12200770  0.86559223  1
  O  O390  1  0.87059551  0.62468580  0.36478187  1
  O  O391  1  0.86928726  0.62055271  0.86902228  1
  O  O392  1  0.12817271  0.37960135  0.13045213  1
  O  O393  1  0.12980976  0.38217962  0.63032667  1
  O  O394  1  0.13356915  0.88200761  0.12702761  1
  O  O395  1  0.13015734  0.88109626  0.62993996  1
  O  O396  1  0.63041728  0.38348428  0.12684652  1
  O  O397  1  0.63241541  0.37402340  0.63246872  1
  O  O398  1  0.63133824  0.88067118  0.13041406  1
  O  O399  1  0.62667102  0.88222578  0.63157173  1
  O  O400  1  0.11882299  0.25435149  0.25544013  1
  O  O401  1  0.12355288  0.25952157  0.75273928  1
  O  O402  1  0.11908286  0.75019626  0.25672038  1
  O  O403  1  0.12284076  0.75588487  0.75846423  1
  O  O404  1  0.61927012  0.25076222  0.25804888  1
  O  O405  1  0.62197449  0.26242788  0.75352693  1
  O  O406  1  0.62084609  0.75399156  0.25356441  1
  O  O407  1  0.61783970  0.75404804  0.75410890  1
  O  O408  1  0.37974786  0.24426669  0.24711641  1
  O  O409  1  0.37458852  0.24227376  0.74253911  1
  O  O410  1  0.38096474  0.74444028  0.24489642  1
  O  O411  1  0.38214110  0.74185829  0.75205232  1
  O  O412  1  0.88102694  0.24426269  0.24476058  1
  O  O413  1  0.87553234  0.23588875  0.74845897  1
  O  O414  1  0.88169175  0.73921524  0.24786475  1
  O  O415  1  0.87569964  0.74439432  0.74247342  1
  O  O416  1  0.37670694  0.50040338  0.48724516  1
  O  O417  1  0.38062519  0.49681671  0.99335682  1
  O  O418  1  0.38086551  1.00036930  0.49136394  1
  O  O419  1  0.37503293  0.99091644  0.99539873  1
  O  O420  1  0.88171437  0.49347322  0.49845241  1
  O  O421  1  0.87962467  0.49512316  0.99481663  1
  O  O422  1  0.88065323  0.99533477  0.49380108  1
  O  O423  1  0.88755606  1.00107028  1.00008838  1
  O  O424  1  0.11951651  0.00587587  0.00692079  1
  O  O425  1  0.11990378  0.00529058  0.50467024  1
  O  O426  1  0.11771474  0.50521238  0.00477367  1
  O  O427  1  0.11981512  0.50573347  0.50596277  1
  O  O428  1  0.62557947  0.00721156  0.00630247  1
  O  O429  1  0.62073580  0.00558002  0.50469463  1
  O  O430  1  0.61781215  0.50048002  0.01158717  1
  O  O431  1  0.62484107  0.51307510  0.49799419  1
  O  O432  1  0.36755331  0.36830972  0.12576177  1
  O  O433  1  0.36836273  0.36949903  0.62389596  1
  O  O434  1  0.37129060  0.86956181  0.11806362  1
  O  O435  1  0.36548006  0.87293900  0.62360190  1
  O  O436  1  0.87132660  0.37019509  0.11866226  1
  O  O437  1  0.86545685  0.37365152  0.62078533  1
  O  O438  1  0.86610038  0.87186317  0.12125161  1
  O  O439  1  0.87459427  0.86934110  0.61649478  1
  O  O440  1  0.12541932  0.13188915  0.38228483  1
  O  O441  1  0.13299387  0.12591420  0.88170031  1
  O  O442  1  0.13035240  0.62937878  0.38053609  1
  O  O443  1  0.12376414  0.63306407  0.88008380  1
  O  O444  1  0.63115767  0.12932798  0.38116401  1
  O  O445  1  0.63124750  0.12691948  0.88224433  1
  O  O446  1  0.63086517  0.63098932  0.38022169  1
  O  O447  1  0.63095040  0.63081654  0.87625320  1
