# generated using pymatgen
data_V3Zn3O8
_symmetry_space_group_name_H-M   'P 1'
_cell_length_a   17.09005739
_cell_length_b   17.08767646
_cell_length_c   17.08713228
_cell_angle_alpha   89.99446529
_cell_angle_beta   90.00638849
_cell_angle_gamma   89.97884479
_symmetry_Int_Tables_number   1
_chemical_formula_structural   V3Zn3O8
_chemical_formula_sum   'V96 Zn96 O256'
_cell_volume   4989.94410745
_cell_formula_units_Z   32
loop_
 _symmetry_equiv_pos_site_id
 _symmetry_equiv_pos_as_xyz
  1  'x, y, z'
loop_
 _atom_site_type_symbol
 _atom_site_label
 _atom_site_symmetry_multiplicity
 _atom_site_fract_x
 _atom_site_fract_y
 _atom_site_fract_z
 _atom_site_occupancy
  V  V0  1  0.49994634  0.50075214  0.49966666  1
  V  V1  1  0.24950564  0.87517403  0.62323785  1
  V  V2  1  0.49945447  0.62651025  0.62561614  1
  V  V3  1  0.62491266  0.75003604  0.37467896  1
  V  V4  1  0.24996618  0.62403499  0.37473710  1
  V  V5  1  0.87575574  0.75116520  0.62523058  1
  V  V6  1  0.12488343  0.75028971  0.87334392  1
  V  V7  1  0.87491601  -0.00010696  0.37360297  1
  V  V8  1  0.24955643  0.75080238  0.49984010  1
  V  V9  1  0.24927873  -0.00051767  0.24969724  1
  V  V10  1  0.00064982  0.50014593  0.50096882  1
  V  V11  1  0.49802597  -0.00173121  -0.00403085  1
  V  V12  1  0.87486896  0.87403683  -0.00115937  1
  V  V13  1  0.87581024  0.62471836  0.25160921  1
  V  V14  1  0.62558416  0.12599216  0.50001720  1
  V  V15  1  0.75076607  0.50018784  0.75030125  1
  V  V16  1  0.74977795  0.24955331  0.00051601  1
  V  V17  1  0.49972267  0.87543048  0.37566780  1
  V  V18  1  0.24976167  0.49895861  0.25072828  1
  V  V19  1  0.62504733  0.50106604  0.62463334  1
  V  V20  1  0.74949002  0.00073118  0.75022077  1
  V  V21  1  0.37509810  0.12487506  0.24937802  1
  V  V22  1  0.62561305  0.12561888  -0.00007934  1
  V  V23  1  0.87569936  0.50076595  0.37631628  1
  V  V24  1  -0.00011028  -0.00200363  -0.00132226  1
  V  V25  1  0.37419025  0.50003605  0.37466536  1
  V  V26  1  0.37591242  0.62527451  0.74929880  1
  V  V27  1  0.62572574  0.87566084  0.24969379  1
  V  V28  1  -0.00058640  0.25024483  0.25077432  1
  V  V29  1  -0.00005216  0.12458013  0.62436721  1
  V  V30  1  0.12559849  0.37483305  0.75096041  1
  V  V31  1  0.50012691  0.49903252  0.00029558  1
  V  V32  1  -0.00078672  0.49884395  -0.00020381  1
  V  V33  1  0.12358786  0.00082491  0.62374508  1
  V  V34  1  0.74989253  0.25042687  0.50007804  1
  V  V35  1  0.37480315  0.37529798  0.50025245  1
  V  V36  1  0.49997218  0.74971027  0.24973196  1
  V  V37  1  0.74875459  0.37437135  0.12529416  1
  V  V38  1  0.12588340  0.87537219  0.24896531  1
  V  V39  1  0.25071303  0.49983210  0.75114946  1
  V  V40  1  0.37453254  0.75019065  0.62488626  1
  V  V41  1  0.75031406  0.12534330  0.87568328  1
  V  V42  1  0.87580583  0.37629554  0.49999784  1
  V  V43  1  0.12509440  0.75008434  0.37501437  1
  V  V44  1  0.50014751  0.00012712  0.49950242  1
  V  V45  1  0.75092995  0.62565473  0.37477539  1
  V  V46  1  0.25132259  0.62426846  0.87387146  1
  V  V47  1  0.74885819  0.87599812  0.62598821  1
  V  V48  1  0.62411324  0.37491189  0.75014725  1
  V  V49  1  0.12618562  -0.00144535  0.12430380  1
  V  V50  1  0.00102417  0.74993193  0.24987713  1
  V  V51  1  0.24918116  0.12599049  0.37511723  1
  V  V52  1  0.87663908  0.74866552  0.12444453  1
  V  V53  1  0.75012959  0.75126270  0.50022324  1
  V  V54  1  0.24920291  0.24914672  0.49882845  1
  V  V55  1  0.25035398  0.00169703  0.74918091  1
  V  V56  1  0.12477323  0.62434685  0.50101512  1
  V  V57  1  0.62473648  0.62563422  0.49952739  1
  V  V58  1  0.12415370  0.37319848  0.25034300  1
  V  V59  1  0.50051962  0.37521973  0.37512790  1
  V  V60  1  0.74891904  0.74794591  -0.00124595  1
  V  V61  1  0.62482902  0.37512127  0.25106932  1
  V  V62  1  0.37508151  0.37445302  0.00025800  1
  V  V63  1  0.37496392  0.25041769  0.62538534  1
  V  V64  1  0.62594845  0.49912506  0.12621073  1
  V  V65  1  0.12440265  0.87471393  0.74909599  1
  V  V66  1  0.25106705  0.75013299  0.00040905  1
  V  V67  1  0.00112663  0.62344639  0.12557292  1
  V  V68  1  0.62562912  -0.00038864  0.62595639  1
  V  V69  1  0.50070248  0.25149975  0.75050565  1
  V  V70  1  -0.00064773  0.37591091  0.87555974  1
  V  V71  1  0.75036213  0.37589189  0.62521580  1
  V  V72  1  0.87286867  0.25052673  0.12557152  1
  V  V73  1  -0.00091340  0.00104651  0.49902833  1
  V  V74  1  0.50021021  0.12509177  0.62509327  1
  V  V75  1  0.87458102  0.12450646  0.75089668  1
  V  V76  1  0.50132120  0.62534631  0.12563428  1
  V  V77  1  0.62558102  -0.00012907  0.12594410  1
  V  V78  1  0.87467957  0.62452646  0.75105111  1
  V  V79  1  0.25043664  0.37379216  0.12452735  1
  V  V80  1  0.62463082  0.25085598  0.37607041  1
  V  V81  1  0.75016673  -0.00016703  0.25001334  1
  V  V82  1  0.49856477  0.12658748  0.12609705  1
  V  V83  1  0.62627463  0.62479059  0.00029710  1
  V  V84  1  0.12501251  0.24865380  0.87637196  1
  V  V85  1  0.12459259  0.49969802  0.12569248  1
  V  V86  1  0.00002724  0.24992583  0.75015853  1
  V  V87  1  0.87552044  0.25066441  0.62495960  1
  V  V88  1  0.25034345  0.37454401  0.62559704  1
  V  V89  1  -0.00037094  0.87625126  0.37429166  1
  V  V90  1  0.12521385  0.50048144  0.62496599  1
  V  V91  1  0.37530828  -0.00035335  0.37512830  1
  V  V92  1  0.37518222  0.75082026  0.12450445  1
  V  V93  1  0.12626922  0.12466674  -0.00111728  1
  V  V94  1  0.87388684  0.12452832  0.24939768  1
  V  V95  1  0.37396608  0.12453727  0.75035473  1
  Zn  Zn96  1  0.00182475  0.62671741  0.62617850  1
  Zn  Zn97  1  -0.00071863  0.75051274  0.75019859  1
  Zn  Zn98  1  0.49833826  0.87184333  0.87037572  1
  Zn  Zn99  1  0.62371609  0.87269705  0.75444709  1
  Zn  Zn100  1  0.12412928  0.24993220  0.37617546  1
  Zn  Zn101  1  0.49854642  0.25042910  0.25100027  1
  Zn  Zn102  1  0.74925746  0.12486067  0.37538422  1
  Zn  Zn103  1  0.37461109  0.87521383  0.49992269  1
  Zn  Zn104  1  0.37346008  -0.00053456  0.87394565  1
  Zn  Zn105  1  0.62430263  0.25203847  0.87551904  1
  Zn  Zn106  1  0.50040679  0.37541918  0.87513748  1
  Zn  Zn107  1  0.00094494  0.37491633  0.37612111  1
  Zn  Zn108  1  0.87434914  -0.00161832  0.87431769  1
  Zn  Zn109  1  0.87397270  0.49946319  0.87518393  1
  Zn  Zn110  1  0.12528307  0.62492560  -0.00012289  1
  Zn  Zn111  1  0.87447025  0.87608753  0.49903345  1
  Zn  Zn112  1  0.50311982  0.75222020  0.75141872  1
  Zn  Zn113  1  -0.00090973  0.87310426  0.87258429  1
  Zn  Zn114  1  0.74827616  0.62247839  0.87506950  1
  Zn  Zn115  1  0.37267469  0.24959828  0.12623782  1
  Zn  Zn116  1  0.37673179  0.49982509  0.87474871  1
  Zn  Zn117  1  0.62067810  0.74997408  0.87344664  1
  Zn  Zn118  1  0.74954939  0.87486153  0.12484587  1
  Zn  Zn119  1  0.87257302  0.37461340  -0.00171719  1
  Zn  Zn120  1  0.37546145  0.87603063  -0.00487618  1
  Zn  Zn121  1  0.12395582  0.12699947  0.49795855  1
  Zn  Zn122  1  0.37507260  0.62418097  0.25036880  1
  Zn  Zn123  1  0.25165266  0.12497036  0.87427990  1
  Zn  Zn124  1  -0.00099322  0.12505572  0.12427807  1
  Zn  Zn125  1  0.25139066  0.87453083  0.12455474  1
  Zn  Zn126  1  0.25135875  0.24883257  0.00001498  1
  Zn  Zn127  1  0.75108131  0.50007665  0.25034586  1
  Zn  Zn128  1  0.18685455  0.18707929  0.18531493  1
  Zn  Zn129  1  0.18668385  0.18699579  0.68634899  1
  Zn  Zn130  1  0.18761938  0.68540207  0.18808846  1
  Zn  Zn131  1  0.18970863  0.68738371  0.68778601  1
  Zn  Zn132  1  0.68613794  0.18761708  0.18938899  1
  Zn  Zn133  1  0.68746760  0.18782306  0.68782381  1
  Zn  Zn134  1  0.68921403  0.68762649  0.18656301  1
  Zn  Zn135  1  0.68776474  0.68831872  0.68878701  1
  Zn  Zn136  1  0.31331997  0.31082291  0.31166034  1
  Zn  Zn137  1  0.31224469  0.31054771  0.81613314  1
  Zn  Zn138  1  0.31306298  0.81307181  0.31201015  1
  Zn  Zn139  1  0.31615308  0.81554542  0.81142949  1
  Zn  Zn140  1  0.81165283  0.31358079  0.31347820  1
  Zn  Zn141  1  0.81240035  0.31275798  0.81413062  1
  Zn  Zn142  1  0.81279106  0.81358561  0.31161385  1
  Zn  Zn143  1  0.80820766  0.81239613  0.81279435  1
  Zn  Zn144  1  0.18629161  0.43525982  0.43649572  1
  Zn  Zn145  1  0.18744067  0.43745378  0.93802763  1
  Zn  Zn146  1  0.18626562  0.93907602  0.43748172  1
  Zn  Zn147  1  0.19023114  0.93620262  0.93472264  1
  Zn  Zn148  1  0.68887369  0.43841872  0.43715762  1
  Zn  Zn149  1  0.68730933  0.43726602  0.93585555  1
  Zn  Zn150  1  0.68830458  0.93763066  0.43787166  1
  Zn  Zn151  1  0.68499543  0.93685065  0.93526091  1
  Zn  Zn152  1  0.31258690  0.06124333  0.06292690  1
  Zn  Zn153  1  0.31253727  0.06284537  0.56191924  1
  Zn  Zn154  1  0.31323412  0.56264124  0.06297034  1
  Zn  Zn155  1  0.31171734  0.56290317  0.56279741  1
  Zn  Zn156  1  0.81233788  0.06274923  0.06393845  1
  Zn  Zn157  1  0.81298736  0.06280815  0.56174937  1
  Zn  Zn158  1  0.81310935  0.56130316  0.06432974  1
  Zn  Zn159  1  0.81265042  0.56431123  0.56316556  1
  Zn  Zn160  1  0.43770440  0.43755990  0.18736024  1
  Zn  Zn161  1  0.43784084  0.43878478  0.68781751  1
  Zn  Zn162  1  0.43759536  0.93721791  0.18664710  1
  Zn  Zn163  1  0.43730107  0.93598092  0.68789049  1
  Zn  Zn164  1  0.93557024  0.43598921  0.18787623  1
  Zn  Zn165  1  0.93911883  0.43844631  0.68704974  1
  Zn  Zn166  1  0.93799910  0.93693858  0.18542155  1
  Zn  Zn167  1  0.93738070  0.93670271  0.68840259  1
  Zn  Zn168  1  0.06282427  0.06482052  0.31225578  1
  Zn  Zn169  1  0.06236316  0.06112239  0.81307891  1
  Zn  Zn170  1  0.06239746  0.56111329  0.31396079  1
  Zn  Zn171  1  0.06188728  0.56438918  0.81216350  1
  Zn  Zn172  1  0.56336325  0.06297319  0.31319700  1
  Zn  Zn173  1  0.56426131  0.06444429  0.81258680  1
  Zn  Zn174  1  0.56281099  0.56235243  0.31141389  1
  Zn  Zn175  1  0.56217676  0.56365127  0.81522816  1
  Zn  Zn176  1  0.43707390  0.18749554  0.43719343  1
  Zn  Zn177  1  0.43727833  0.18863385  0.93531086  1
  Zn  Zn178  1  0.43599125  0.68778843  0.43824548  1
  Zn  Zn179  1  0.43867012  0.68616457  0.93595879  1
  Zn  Zn180  1  0.93578164  0.18629060  0.43607588  1
  Zn  Zn181  1  0.93661019  0.18735780  0.93760903  1
  Zn  Zn182  1  0.93879933  0.68733800  0.43913964  1
  Zn  Zn183  1  0.93820033  0.68521214  0.93678547  1
  Zn  Zn184  1  0.06126028  0.31224978  0.06400241  1
  Zn  Zn185  1  0.06330625  0.31274358  0.56230502  1
  Zn  Zn186  1  0.06374683  0.81257659  0.06179959  1
  Zn  Zn187  1  0.06077070  0.81425268  0.56141687  1
  Zn  Zn188  1  0.56252673  0.31180390  0.06273442  1
  Zn  Zn189  1  0.56246669  0.31311313  0.56341951  1
  Zn  Zn190  1  0.56309850  0.81420832  0.06166522  1
  Zn  Zn191  1  0.56203301  0.81374558  0.56434100  1
  O  O192  1  0.12204545  0.11744630  0.11489487  1
  O  O193  1  0.11665932  0.11857839  0.62365887  1
  O  O194  1  0.11816537  0.61758602  0.12455045  1
  O  O195  1  0.12571570  0.61850203  0.61891926  1
  O  O196  1  0.61688808  0.11932323  0.12129703  1
  O  O197  1  0.61949231  0.12032228  0.61905044  1
  O  O198  1  0.62053064  0.61918589  0.12081154  1
  O  O199  1  0.62038250  0.61974494  0.61786823  1
  O  O200  1  0.38019300  0.38071802  0.38111515  1
  O  O201  1  0.37564227  0.37791548  0.88747238  1
  O  O202  1  0.38206178  0.88146363  0.37590432  1
  O  O203  1  0.37937846  0.88171482  0.87804898  1
  O  O204  1  0.87559876  0.38260449  0.38289726  1
  O  O205  1  0.88431636  0.37820658  0.87677388  1
  O  O206  1  0.88270793  0.88123203  0.37471200  1
  O  O207  1  0.87659703  0.87413572  0.88810061  1
  O  O208  1  0.25536196  0.00543059  0.36937125  1
  O  O209  1  0.24998073  0.00365684  0.86395227  1
  O  O210  1  0.25479318  0.50421249  0.37059891  1
  O  O211  1  0.24943735  0.50655682  0.86838158  1
  O  O212  1  0.75651269  0.00072074  0.36808279  1
  O  O213  1  0.75222631  0.00767286  0.86913369  1
  O  O214  1  0.75721696  0.50842799  0.37482367  1
  O  O215  1  0.75423547  0.50150167  0.86635585  1
  O  O216  1  0.24423336  0.49534202  0.13103089  1
  O  O217  1  0.24476306  0.49345906  0.63040067  1
  O  O218  1  0.24404262  0.99671299  0.13166092  1
  O  O219  1  0.24314152  0.99507637  0.62836157  1
  O  O220  1  0.74356019  0.49323135  0.12701679  1
  O  O221  1  0.74427997  0.49497998  0.62894177  1
  O  O222  1  0.74302195  0.99836626  0.13162164  1
  O  O223  1  0.74555065  0.99597046  0.62963309  1
  O  O224  1  0.00444154  0.36552136  0.25047375  1
  O  O225  1  0.00651445  0.36986653  0.75457314  1
  O  O226  1  0.00587459  0.86908311  0.25424213  1
  O  O227  1  0.00768396  0.87173096  0.75327523  1
  O  O228  1  0.50631421  0.37429236  0.25743483  1
  O  O229  1  0.50615217  0.36943915  0.74829007  1
  O  O230  1  0.50594956  0.86962664  0.25584903  1
  O  O231  1  0.50484775  0.87226474  0.74968277  1
  O  O232  1  0.49458777  0.12295567  0.24066964  1
  O  O233  1  0.49488236  0.13091040  0.74295089  1
  O  O234  1  0.49908828  0.63223789  0.24374696  1
  O  O235  1  0.49308093  0.62325734  0.74123730  1
  O  O236  1  0.99362693  0.13394728  0.24727356  1
  O  O237  1  0.99462593  0.13021846  0.74490745  1
  O  O238  1  0.99569418  0.63081391  0.24597833  1
  O  O239  1  0.98897326  0.62799828  0.74640714  1
  O  O240  1  0.37390620  0.26110274  0.00297197  1
  O  O241  1  0.37019225  0.25633392  0.50602072  1
  O  O242  1  0.36682013  0.74885724  0.00892015  1
  O  O243  1  0.36659859  0.75110612  0.50587593  1
  O  O244  1  0.86861372  0.25058217  0.00785638  1
  O  O245  1  0.87021624  0.25583126  0.50571216  1
  O  O246  1  0.87015303  0.75484352  0.00475156  1
  O  O247  1  0.86921747  0.75007275  0.50940325  1
  O  O248  1  0.13317508  0.24844206  0.49821111  1
  O  O249  1  0.12164005  0.23924640  0.99585708  1
  O  O250  1  0.12938904  0.74483146  0.49411877  1
  O  O251  1  0.13392913  0.74853700  0.99207689  1
  O  O252  1  0.63041945  0.24605297  0.49657535  1
  O  O253  1  0.63182808  0.24270215  1.00029374  1
  O  O254  1  0.62998516  0.74469757  0.49408654  1
  O  O255  1  0.63603047  0.74338753  1.00537648  1
  O  O256  1  0.49969800  0.23559155  0.12651380  1
  O  O257  1  0.49391175  0.24481342  0.62919413  1
  O  O258  1  0.49328263  0.74537792  0.12914762  1
  O  O259  1  0.49227539  0.74211108  0.62284740  1
  O  O260  1  0.99266604  0.24959082  0.13568401  1
  O  O261  1  0.99476523  0.24551578  0.63101406  1
  O  O262  1  0.99679173  0.74366757  0.13007749  1
  O  O263  1  0.98773439  0.74965764  0.62587958  1
  O  O264  1  -0.00108991  0.25151160  0.36186896  1
  O  O265  1  0.00492940  0.25541918  0.86917360  1
  O  O266  1  0.00589086  0.75506554  0.36957225  1
  O  O267  1  0.01377299  0.74987931  0.87532890  1
  O  O268  1  0.50649087  0.25805262  0.37617602  1
  O  O269  1  0.50313833  0.25340699  0.86554276  1
  O  O270  1  0.50544236  0.75456791  0.37022514  1
  O  O271  1  0.50175676  0.75145042  0.87181252  1
  O  O272  1  0.24991974  0.13182418  0.49346410  1
  O  O273  1  0.23627540  0.12383024  0.99888062  1
  O  O274  1  0.24369523  0.63011363  0.49415460  1
  O  O275  1  0.24857849  0.63468795  0.99456980  1
  O  O276  1  0.74342051  0.13278646  0.49976588  1
  O  O277  1  0.74505357  0.12951451  0.99606383  1
  O  O278  1  0.74401981  0.63138842  0.49465422  1
  O  O279  1  0.74622402  0.63281287  1.00197701  1
  O  O280  1  0.25856425  0.37607264  0.00658089  1
  O  O281  1  0.25602352  0.37043853  0.50595703  1
  O  O282  1  0.25147555  0.86128378  0.00233269  1
  O  O283  1  0.24941025  0.86845735  0.50514882  1
  O  O284  1  0.74994896  0.36813272  0.00716656  1
  O  O285  1  0.75561603  0.37067127  0.50663717  1
  O  O286  1  0.75917777  0.86689870  0.00278207  1
  O  O287  1  0.75239362  0.86849395  0.50640579  1
  O  O288  1  0.12950238  0.49361631  0.24525909  1
  O  O289  1  0.13038320  0.49442806  0.74509785  1
  O  O290  1  0.12928036  0.99501098  0.24419217  1
  O  O291  1  0.12913733  0.99479604  0.74313871  1
  O  O292  1  0.62711618  0.49358421  0.24414859  1
  O  O293  1  0.63031540  0.49603819  0.74283508  1
  O  O294  1  0.63013158  0.99474088  0.24622613  1
  O  O295  1  0.63308564  1.00298633  0.74152136  1
  O  O296  1  0.36942345  0.00447529  0.25515112  1
  O  O297  1  0.36737852  0.00875013  0.74632123  1
  O  O298  1  0.36804416  0.50073478  0.25685595  1
  O  O299  1  0.36749703  0.50601033  0.75020518  1
  O  O300  1  0.87075835  0.00426047  0.25308577  1
  O  O301  1  0.86871425  0.00696252  0.75119187  1
  O  O302  1  0.87497709  0.50748086  0.25732049  1
  O  O303  1  0.86995876  0.50952476  0.74729010  1
  O  O304  1  0.12174440  0.37130424  0.36599356  1
  O  O305  1  0.11927893  0.36910756  0.86983748  1
  O  O306  1  0.11922855  0.86967455  0.36860455  1
  O  O307  1  0.12656757  0.86385466  0.86847056  1
  O  O308  1  0.61962526  0.37126412  0.37172064  1
  O  O309  1  0.62266558  0.37259982  0.86519522  1
  O  O310  1  0.61950197  0.86908524  0.36971427  1
  O  O311  1  0.61961336  0.87036052  0.87386974  1
  O  O312  1  0.38368287  0.12445879  0.13059116  1
  O  O313  1  0.38103462  0.13169931  0.62943616  1
  O  O314  1  0.38153603  0.63528166  0.12656269  1
  O  O315  1  0.37947195  0.62974147  0.62883156  1
  O  O316  1  0.87668369  0.13218896  0.13177614  1
  O  O317  1  0.88030889  0.13151873  0.63079600  1
  O  O318  1  0.88217291  0.62943324  0.13184264  1
  O  O319  1  0.87444676  0.63535512  0.63305816  1
  O  O320  1  0.25138809  0.25812676  0.12108867  1
  O  O321  1  0.25567098  0.25600505  0.62008287  1
  O  O322  1  0.25757214  0.74794331  0.11772754  1
  O  O323  1  0.25396325  0.75534479  0.61832410  1
  O  O324  1  0.75337440  0.25465728  0.12024257  1
  O  O325  1  0.75630100  0.25629830  0.61997337  1
  O  O326  1  0.75824869  0.75087211  0.11546105  1
  O  O327  1  0.75798385  0.75512953  0.61926473  1
  O  O328  1  0.25045103  0.24354351  0.38142124  1
  O  O329  1  0.23984339  0.24628179  0.87937127  1
  O  O330  1  0.24415402  0.74463262  0.37922957  1
  O  O331  1  0.24385147  0.74489651  0.88203158  1
  O  O332  1  0.74299059  0.24964199  0.38322106  1
  O  O333  1  0.74893621  0.24335432  0.88223840  1
  O  O334  1  0.74458516  0.74550772  0.37992112  1
  O  O335  1  0.75079897  0.74648839  0.89075868  1
  O  O336  1  0.00792752  0.11505914  0.00067289  1
  O  O337  1  -0.00025590  0.11960624  0.50682791  1
  O  O338  1  0.00174561  0.61526820  0.00645063  1
  O  O339  1  0.00767358  0.61869845  0.50265398  1
  O  O340  1  0.50437420  0.11881826  0.00843858  1
  O  O341  1  0.50541004  0.12026242  0.50577994  1
  O  O342  1  0.50596535  0.61897290  0.00779492  1
  O  O343  1  0.50559253  0.61947602  0.50431556  1
  O  O344  1  0.49446231  0.38159376  0.49581485  1
  O  O345  1  0.49112678  0.38052122  1.00229043  1
  O  O346  1  0.49941702  0.88230261  0.49286379  1
  O  O347  1  0.49913752  0.88936856  1.00293165  1
  O  O348  1  0.99320007  0.38144408  0.49982015  1
  O  O349  1  0.99951090  0.38414495  0.99533918  1
  O  O350  1  0.99778771  0.88240565  0.49177187  1
  O  O351  1  0.99245211  0.88114128  0.99869673  1
  O  O352  1  0.49474351  0.49554489  0.38093723  1
  O  O353  1  0.49747136  0.49706628  0.88525769  1
  O  O354  1  0.49531427  0.99495454  0.37974864  1
  O  O355  1  0.50005707  1.00476080  0.88841280  1
  O  O356  1  0.99336800  0.49891246  0.38310795  1
  O  O357  1  1.00119788  0.49531573  0.88451852  1
  O  O358  1  0.99500083  0.99536096  0.37848663  1
  O  O359  1  0.99813000  0.99616119  0.88765871  1
  O  O360  1  0.00627139  -0.00003727  0.11311222  1
  O  O361  1  0.00361508  0.00512694  0.61931384  1
  O  O362  1  0.00461100  0.50331898  0.11847738  1
  O  O363  1  0.00827983  0.50169105  0.61878903  1
  O  O364  1  0.50462612  0.00914008  0.11878237  1
  O  O365  1  0.50543990  0.00666194  0.61849846  1
  O  O366  1  0.50633164  0.50582346  0.12073305  1
  O  O367  1  0.50536772  0.50592303  0.61793046  1
  O  O368  1  0.24495683  0.38007306  0.24456617  1
  O  O369  1  0.24491643  0.37921745  0.74523303  1
  O  O370  1  0.24299516  0.88138413  0.24943914  1
  O  O371  1  0.24366763  0.88129763  0.74190349  1
  O  O372  1  0.74253802  0.37678732  0.24393991  1
  O  O373  1  0.74548914  0.37983283  0.74301334  1
  O  O374  1  0.74340650  0.88055141  0.24753234  1
  O  O375  1  0.74928691  0.88343934  0.74324361  1
  O  O376  1  0.25519712  0.11877031  0.25415073  1
  O  O377  1  0.25614374  0.11929452  0.74788452  1
  O  O378  1  0.25053493  0.61710203  0.25745654  1
  O  O379  1  0.25593536  0.61853133  0.75410620  1
  O  O380  1  0.75566028  0.11788047  0.25208130  1
  O  O381  1  0.75594638  0.12115621  0.75453180  1
  O  O382  1  0.75783105  0.62532830  0.25701005  1
  O  O383  1  0.75962204  0.61829041  0.74943133  1
  O  O384  1  0.37049282  0.11863935  0.36896087  1
  O  O385  1  0.37215254  0.12294157  0.86532674  1
  O  O386  1  0.36798015  0.61790337  0.37422447  1
  O  O387  1  0.36746613  0.62234182  0.86796516  1
  O  O388  1  0.87224122  0.11760303  0.36712775  1
  O  O389  1  0.86893415  0.12347220  0.86818021  1
  O  O390  1  0.87042194  0.62126983  0.37100673  1
  O  O391  1  0.87315480  0.62382604  0.86244559  1
  O  O392  1  0.13030510  0.38071430  0.13069668  1
  O  O393  1  0.13124009  0.38009772  0.63170402  1
  O  O394  1  0.12696801  0.87999886  0.13179231  1
  O  O395  1  0.12940928  0.88054951  0.62940568  1
  O  O396  1  0.62909739  0.37959023  0.13130468  1
  O  O397  1  0.63095134  0.38203436  0.62896268  1
  O  O398  1  0.62550270  0.88219384  0.13292920  1
  O  O399  1  0.63281092  0.88335041  0.62423473  1
  O  O400  1  0.11424081  0.25430421  0.24845492  1
  O  O401  1  0.11889822  0.25538574  0.75480828  1
  O  O402  1  0.12014641  0.75451654  0.25554806  1
  O  O403  1  0.12646929  0.75503084  0.75842652  1
  O  O404  1  0.62202842  0.25673278  0.25802516  1
  O  O405  1  0.61827052  0.25729194  0.74782623  1
  O  O406  1  0.62005810  0.75504832  0.25500403  1
  O  O407  1  0.62397272  0.75193261  0.75341725  1
  O  O408  1  0.37911116  0.24112047  0.24723651  1
  O  O409  1  0.37976931  0.24586421  0.74358322  1
  O  O410  1  0.38072855  0.74815808  0.24124092  1
  O  O411  1  0.37309013  0.74141077  0.74054122  1
  O  O412  1  0.88056141  0.24542596  0.24579214  1
  O  O413  1  0.88077623  0.24520897  0.74380309  1
  O  O414  1  0.88203459  0.74504021  0.24488910  1
  O  O415  1  0.87264408  0.74247601  0.74167023  1
  O  O416  1  0.37980680  0.49456879  0.49503740  1
  O  O417  1  0.38118258  0.49097137  1.00126743  1
  O  O418  1  0.38228221  0.99930056  0.49282924  1
  O  O419  1  0.38507002  0.99945263  0.99979224  1
  O  O420  1  0.88033453  0.49620291  0.49680187  1
  O  O421  1  0.88813628  0.49882029  0.99985570  1
  O  O422  1  0.88110113  0.99894427  0.49256522  1
  O  O423  1  0.88273641  0.99095933  1.00156329  1
  O  O424  1  0.11839270  0.00426673  0.00287643  1
  O  O425  1  0.11704442  0.00250274  0.50623396  1
  O  O426  1  0.11481334  0.50100285  0.00650584  1
  O  O427  1  0.12123274  0.50443809  0.50539095  1
  O  O428  1  0.61825584  0.00685875  0.00692120  1
  O  O429  1  0.62003776  0.00653562  0.50496955  1
  O  O430  1  0.62040403  0.50435408  0.00757933  1
  O  O431  1  0.61974148  0.50589700  0.50466587  1
  O  O432  1  0.36940904  0.37457422  0.11666945  1
  O  O433  1  0.36957814  0.37024823  0.61950681  1
  O  O434  1  0.37431317  0.86113110  0.12301351  1
  O  O435  1  0.36645283  0.86846222  0.62177388  1
  O  O436  1  0.86633161  0.36814422  0.12411631  1
  O  O437  1  0.87003995  0.36998737  0.62024105  1
  O  O438  1  0.87557210  0.86745701  0.11412961  1
  O  O439  1  0.86864625  0.86532999  0.62429972  1
  O  O440  1  0.13380122  0.12821791  0.37669786  1
  O  O441  1  0.12350016  0.13025026  0.88417897  1
  O  O442  1  0.13044472  0.63038041  0.38067484  1
  O  O443  1  0.13222857  0.63510165  0.87479118  1
  O  O444  1  0.62555489  0.13211661  0.38260320  1
  O  O445  1  0.63303715  0.12824346  0.88234337  1
  O  O446  1  0.63010239  0.63074843  0.38000346  1
  O  O447  1  0.62878333  0.62633557  0.88655965  1
