# generated using pymatgen
data_V3Zn3O8
_symmetry_space_group_name_H-M   'P 1'
_cell_length_a   17.08635601
_cell_length_b   17.08663197
_cell_length_c   17.08705295
_cell_angle_alpha   89.99910564
_cell_angle_beta   89.99571644
_cell_angle_gamma   90.01322206
_symmetry_Int_Tables_number   1
_chemical_formula_structural   V3Zn3O8
_chemical_formula_sum   'V96 Zn96 O256'
_cell_volume   4988.53551898
_cell_formula_units_Z   32
loop_
 _symmetry_equiv_pos_site_id
 _symmetry_equiv_pos_as_xyz
  1  'x, y, z'
loop_
 _atom_site_type_symbol
 _atom_site_label
 _atom_site_symmetry_multiplicity
 _atom_site_fract_x
 _atom_site_fract_y
 _atom_site_fract_z
 _atom_site_occupancy
  V  V0  1  0.75064212  0.37504992  0.12604305  1
  V  V1  1  0.75037274  0.75255449  0.49963702  1
  V  V2  1  0.24981895  0.24952155  0.50092548  1
  V  V3  1  0.50038341  0.37412382  0.37440470  1
  V  V4  1  0.12611813  0.37517779  0.24876575  1
  V  V5  1  0.49980758  0.62668338  0.62451433  1
  V  V6  1  0.25079540  0.87431998  0.12357579  1
  V  V7  1  -0.00062924  0.24960934  0.75097136  1
  V  V8  1  0.37486089  0.24995554  0.12424883  1
  V  V9  1  0.74835589  0.62745359  0.87563049  1
  V  V10  1  0.50048754  0.50091998  -0.00017253  1
  V  V11  1  0.75152950  0.49992083  0.25127917  1
  V  V12  1  0.62511995  0.49974200  0.62548869  1
  V  V13  1  0.37366292  0.87475700  0.00000733  1
  V  V14  1  0.74961083  -0.00067463  0.25011282  1
  V  V15  1  0.75243784  0.62395959  0.37399167  1
  V  V16  1  0.50063141  0.75008782  0.24925840  1
  V  V17  1  0.87478786  0.25043253  0.12593273  1
  V  V18  1  0.12503428  0.87397092  0.24968215  1
  V  V19  1  0.12393163  0.50037856  0.62272095  1
  V  V20  1  0.50091789  0.37532491  0.87409356  1
  V  V21  1  0.74965900  0.24977663  0.50105846  1
  V  V22  1  0.37461846  0.12518036  0.24991902  1
  V  V23  1  0.87327968  0.25049071  0.62622214  1
  V  V24  1  0.24935544  0.12444411  0.87445332  1
  V  V25  1  0.87576330  -0.00064055  0.37591863  1
  V  V26  1  0.75005553  0.12606582  0.87665997  1
  V  V27  1  0.37413868  0.62354084  0.24949339  1
  V  V28  1  0.87519926  0.62621054  0.74972620  1
  V  V29  1  0.37575428  0.50051651  0.87478310  1
  V  V30  1  0.24966236  -0.00060152  0.25014703  1
  V  V31  1  0.62493357  -0.00068915  0.12546366  1
  V  V32  1  0.25029608  0.24970202  0.00048695  1
  V  V33  1  0.00033999  0.74685379  0.24893561  1
  V  V34  1  0.24902395  -0.00078730  0.74892706  1
  V  V35  1  0.37466550  0.87526051  0.50009062  1
  V  V36  1  0.50022552  0.87572798  0.87474051  1
  V  V37  1  0.00011710  0.87462891  0.87480492  1
  V  V38  1  0.87439237  0.74780267  0.12503977  1
  V  V39  1  0.37466142  -0.00026728  0.37503284  1
  V  V40  1  0.12509970  0.62394382  -0.00100841  1
  V  V41  1  0.50022469  0.00068495  0.00051788  1
  V  V42  1  0.62468885  0.87635437  0.75110008  1
  V  V43  1  0.12539323  0.87449276  0.74898838  1
  V  V44  1  0.12483983  -0.00054654  0.12519173  1
  V  V45  1  0.37563310  0.62534553  0.74944367  1
  V  V46  1  0.37499475  0.00002469  0.87494499  1
  V  V47  1  0.62581707  0.24922291  0.37574739  1
  V  V48  1  0.74925021  0.24987411  0.00047569  1
  V  V49  1  0.37548155  0.37492501  0.50064570  1
  V  V50  1  0.74923816  0.50073652  0.74954732  1
  V  V51  1  0.50005314  0.24952268  0.24970037  1
  V  V52  1  0.87429234  0.50043376  0.87439106  1
  V  V53  1  0.12463910  0.49986013  0.12329029  1
  V  V54  1  0.00012640  -0.00059173  0.00053162  1
  V  V55  1  0.12519958  0.74836737  0.87476807  1
  V  V56  1  0.87517442  0.12525486  0.25093307  1
  V  V57  1  0.50048173  0.12421294  0.12450565  1
  V  V58  1  0.50046443  0.87494114  0.37447549  1
  V  V59  1  0.87468453  0.37600616  -0.00061280  1
  V  V60  1  0.12532156  0.25024237  0.37452567  1
  V  V61  1  0.37508915  0.37429852  0.00029141  1
  V  V62  1  0.62465073  0.00107063  0.62420049  1
  V  V63  1  0.62494429  0.50001934  0.12447187  1
  V  V64  1  0.49928296  0.12622689  0.62426408  1
  V  V65  1  0.24762094  0.74667447  0.49748419  1
  V  V66  1  -0.00057213  0.87441166  0.37639619  1
  V  V67  1  0.74968759  0.87534864  0.12621375  1
  V  V68  1  0.87443644  0.75135730  0.62484527  1
  V  V69  1  -0.00021779  0.12458119  0.12580810  1
  V  V70  1  0.62536690  0.75140516  0.87562667  1
  V  V71  1  0.87502499  0.12540684  0.75106007  1
  V  V72  1  0.12409037  0.24984569  0.87558852  1
  V  V73  1  0.62591449  0.37458912  0.25061532  1
  V  V74  1  0.74967234  0.00054613  0.75083468  1
  V  V75  1  0.62510165  0.25079650  0.87554578  1
  V  V76  1  0.37468537  0.12573837  0.75047640  1
  V  V77  1  0.50030978  0.62411397  0.12435565  1
  V  V78  1  0.87491075  -0.00017864  0.87566278  1
  V  V79  1  0.24984409  0.62493670  0.87511172  1
  V  V80  1  0.87700053  0.37769561  0.50088664  1
  V  V81  1  0.62489603  0.62580135  0.50035586  1
  V  V82  1  0.00102838  0.24990471  0.25132862  1
  V  V83  1  -0.00080015  0.74983342  0.74914522  1
  V  V84  1  0.37565339  0.74972096  0.62553108  1
  V  V85  1  0.12566516  0.37502234  0.75080545  1
  V  V86  1  0.49988601  0.25081781  0.75134785  1
  V  V87  1  0.24984054  0.87506394  0.62516052  1
  V  V88  1  0.87474180  0.87438344  0.00104107  1
  V  V89  1  0.12454166  0.12477426  0.00000697  1
  V  V90  1  0.74989752  0.12504554  0.37582615  1
  V  V91  1  -0.00167594  0.37538728  0.87538602  1
  V  V92  1  0.24974736  0.12482093  0.37507456  1
  V  V93  1  0.25004969  0.49875844  0.74989842  1
  V  V94  1  0.00165791  0.12293184  0.62318214  1
  V  V95  1  0.37493628  0.50059914  0.37364056  1
  Zn  Zn96  1  0.87881592  0.49864867  0.37416014  1
  Zn  Zn97  1  0.25087415  0.74977970  0.00009915  1
  Zn  Zn98  1  0.12541536  0.74520515  0.37380720  1
  Zn  Zn99  1  0.00124929  -0.00027845  0.49996837  1
  Zn  Zn100  1  0.87467925  0.87744086  0.50047466  1
  Zn  Zn101  1  0.62407089  0.12516441  0.49884401  1
  Zn  Zn102  1  0.62560493  0.87432963  0.25009954  1
  Zn  Zn103  1  -0.00064344  0.62357100  0.12272563  1
  Zn  Zn104  1  0.25133445  0.37372766  0.62752774  1
  Zn  Zn105  1  0.24836477  0.62503175  0.37315907  1
  Zn  Zn106  1  0.24840490  0.50088273  0.24894146  1
  Zn  Zn107  1  0.37443610  0.25164258  0.62705895  1
  Zn  Zn108  1  0.74970478  0.87782604  0.62394560  1
  Zn  Zn109  1  0.12491127  0.12242350  0.49992399  1
  Zn  Zn110  1  0.00007065  0.50363576  0.49757643  1
  Zn  Zn111  1  0.74744385  0.74917474  0.00185619  1
  Zn  Zn112  1  0.62488696  0.62690682  -0.00036059  1
  Zn  Zn113  1  0.00133059  0.37747173  0.37742013  1
  Zn  Zn114  1  0.50010919  0.75165123  0.75007543  1
  Zn  Zn115  1  0.50070851  0.50109224  0.49941608  1
  Zn  Zn116  1  0.12468629  -0.00080099  0.62194063  1
  Zn  Zn117  1  0.62513343  0.37517880  0.74921446  1
  Zn  Zn118  1  0.37366113  0.74898811  0.12170794  1
  Zn  Zn119  1  0.00219564  0.62530890  0.62198158  1
  Zn  Zn120  1  0.62528640  0.12511095  0.00066762  1
  Zn  Zn121  1  0.74864762  0.37402348  0.62673696  1
  Zn  Zn122  1  0.25108193  0.37532658  0.12443760  1
  Zn  Zn123  1  0.49983937  0.00144765  0.49854600  1
  Zn  Zn124  1  0.87678557  0.62048358  0.24872873  1
  Zn  Zn125  1  0.62593747  0.75077978  0.37511280  1
  Zn  Zn126  1  -0.00133036  0.50114912  -0.00064874  1
  Zn  Zn127  1  0.12319415  0.62112568  0.49465470  1
  Zn  Zn128  1  0.18821185  0.18772323  0.18710754  1
  Zn  Zn129  1  0.18689346  0.18804761  0.68712537  1
  Zn  Zn130  1  0.18784707  0.68770827  0.18456084  1
  Zn  Zn131  1  0.18824391  0.68585182  0.68615313  1
  Zn  Zn132  1  0.68710840  0.18606157  0.18809176  1
  Zn  Zn133  1  0.68657521  0.18792295  0.68943522  1
  Zn  Zn134  1  0.68665919  0.68629265  0.18813182  1
  Zn  Zn135  1  0.68748290  0.68865657  0.68867631  1
  Zn  Zn136  1  0.31095515  0.31267753  0.31215846  1
  Zn  Zn137  1  0.31309794  0.31227239  0.81411489  1
  Zn  Zn138  1  0.31361281  0.81183773  0.31202575  1
  Zn  Zn139  1  0.31206265  0.81148826  0.81249110  1
  Zn  Zn140  1  0.81329258  0.31307362  0.31520895  1
  Zn  Zn141  1  0.81013692  0.31451484  0.81158052  1
  Zn  Zn142  1  0.81427040  0.81206438  0.31155402  1
  Zn  Zn143  1  0.81011559  0.81365286  0.81224273  1
  Zn  Zn144  1  0.18946927  0.43667040  0.43598826  1
  Zn  Zn145  1  0.18808256  0.43711700  0.93770093  1
  Zn  Zn146  1  0.18457092  0.93653715  0.43903664  1
  Zn  Zn147  1  0.18733893  0.93653049  0.93672763  1
  Zn  Zn148  1  0.69049066  0.43721096  0.43975851  1
  Zn  Zn149  1  0.68725141  0.43856179  0.93721244  1
  Zn  Zn150  1  0.68565693  0.93849542  0.43755095  1
  Zn  Zn151  1  0.68771645  0.93703448  0.94030194  1
  Zn  Zn152  1  0.31264301  0.06162043  0.06253642  1
  Zn  Zn153  1  0.31338365  0.06162887  0.56247806  1
  Zn  Zn154  1  0.31083914  0.56162541  0.06228302  1
  Zn  Zn155  1  0.31102645  0.56177611  0.56355471  1
  Zn  Zn156  1  0.81228817  0.06236427  0.06303005  1
  Zn  Zn157  1  0.81404136  0.06335793  0.56088337  1
  Zn  Zn158  1  0.81034576  0.56331694  0.06051792  1
  Zn  Zn159  1  0.81180088  0.56393588  0.56303505  1
  Zn  Zn160  1  0.43893932  0.43670922  0.18652026  1
  Zn  Zn161  1  0.43903955  0.43853275  0.68680004  1
  Zn  Zn162  1  0.43618182  0.93715978  0.18651555  1
  Zn  Zn163  1  0.43741654  0.93795324  0.68801053  1
  Zn  Zn164  1  0.93936280  0.43763874  0.18796035  1
  Zn  Zn165  1  0.93803783  0.43770132  0.68674422  1
  Zn  Zn166  1  0.93655241  0.93597624  0.18933438  1
  Zn  Zn167  1  0.93702564  0.93707067  0.68774428  1
  Zn  Zn168  1  0.06332244  0.06213526  0.31388178  1
  Zn  Zn169  1  0.06279829  0.06112973  0.81076805  1
  Zn  Zn170  1  0.06197823  0.56153263  0.31511236  1
  Zn  Zn171  1  0.06109625  0.56229013  0.81054736  1
  Zn  Zn172  1  0.56330725  0.06233887  0.31119280  1
  Zn  Zn173  1  0.56316486  0.06442669  0.81287355  1
  Zn  Zn174  1  0.56394501  0.56240446  0.31321774  1
  Zn  Zn175  1  0.56232394  0.56526974  0.81127765  1
  Zn  Zn176  1  0.43730076  0.18755913  0.43769046  1
  Zn  Zn177  1  0.43829395  0.18723529  0.93776076  1
  Zn  Zn178  1  0.43690286  0.68816656  0.43824617  1
  Zn  Zn179  1  0.43819280  0.68923191  0.93725865  1
  Zn  Zn180  1  0.93707971  0.19041793  0.43874831  1
  Zn  Zn181  1  0.93672613  0.18809652  0.93891543  1
  Zn  Zn182  1  0.93844475  0.68585333  0.43915003  1
  Zn  Zn183  1  0.93854222  0.68624716  0.93816323  1
  Zn  Zn184  1  0.06102217  0.31322575  0.06245623  1
  Zn  Zn185  1  0.06247308  0.31297050  0.56445540  1
  Zn  Zn186  1  0.06369401  0.81091701  0.06145242  1
  Zn  Zn187  1  0.06361285  0.81130571  0.56227419  1
  Zn  Zn188  1  0.56288697  0.31298721  0.06161763  1
  Zn  Zn189  1  0.56238658  0.31263469  0.56177185  1
  Zn  Zn190  1  0.56185147  0.81308963  0.06213195  1
  Zn  Zn191  1  0.56269735  0.81338019  0.56238593  1
  O  O192  1  0.11959504  0.11929865  0.11994553  1
  O  O193  1  0.11288463  0.12438302  0.62555423  1
  O  O194  1  0.12446081  0.61549326  0.11916636  1
  O  O195  1  0.12562620  0.61202072  0.62389132  1
  O  O196  1  0.61807605  0.11851855  0.12427852  1
  O  O197  1  0.61560424  0.11699377  0.62667824  1
  O  O198  1  0.61812300  0.61749222  0.12451938  1
  O  O199  1  0.62056339  0.61866548  0.62065733  1
  O  O200  1  0.38022064  0.38141211  0.37972983  1
  O  O201  1  0.38129706  0.38081526  0.88079875  1
  O  O202  1  0.38295908  0.88009601  0.37885524  1
  O  O203  1  0.37959749  0.88158304  0.87886184  1
  O  O204  1  0.87640061  0.37493430  0.38789069  1
  O  O205  1  0.87864608  0.38041982  0.87979187  1
  O  O206  1  0.88494629  0.88024182  0.37374881  1
  O  O207  1  0.88053247  0.88027129  0.88026182  1
  O  O208  1  0.25471188  0.00436075  0.36914026  1
  O  O209  1  0.25489223  0.00566916  0.86932056  1
  O  O210  1  0.26457244  0.50044026  0.37098756  1
  O  O211  1  0.25621882  0.50484188  0.86968981  1
  O  O212  1  0.75478852  0.00503167  0.36982522  1
  O  O213  1  0.75595167  0.00566798  0.87129043  1
  O  O214  1  0.75083897  0.50879814  0.37026639  1
  O  O215  1  0.75480730  0.50614881  0.86923585  1
  O  O216  1  0.23800383  0.49633452  0.12707246  1
  O  O217  1  0.24250254  0.49649894  0.63199615  1
  O  O218  1  0.24396864  0.99581324  0.13087594  1
  O  O219  1  0.25002755  0.99351077  0.63181008  1
  O  O220  1  0.74466711  0.49407071  0.13049517  1
  O  O221  1  0.73907340  0.50217290  0.63073635  1
  O  O222  1  0.74589181  0.99529549  0.13061827  1
  O  O223  1  0.74068602  1.00208971  0.63093124  1
  O  O224  1  0.01146003  0.36765390  0.24941605  1
  O  O225  1  0.00451337  0.36810846  0.75635346  1
  O  O226  1  0.00441308  0.86717774  0.25640631  1
  O  O227  1  0.00470273  0.86972560  0.75595305  1
  O  O228  1  0.50603304  0.36854447  0.25466114  1
  O  O229  1  0.50026671  0.36894120  0.75665665  1
  O  O230  1  0.49726993  0.86637020  0.25787265  1
  O  O231  1  0.50636041  0.87578370  0.75740307  1
  O  O232  1  0.49370888  0.13026232  0.24488515  1
  O  O233  1  0.49433129  0.13028495  0.74345006  1
  O  O234  1  0.49324814  0.63089983  0.24603944  1
  O  O235  1  0.49230707  0.62787211  0.74295903  1
  O  O236  1  0.99500997  0.12968764  0.24471024  1
  O  O237  1  0.99435708  0.12993218  0.74415517  1
  O  O238  1  0.99789529  0.63692739  0.24797496  1
  O  O239  1  0.99258792  0.63293331  0.74779807  1
  O  O240  1  0.37022923  0.25445553  0.00449807  1
  O  O241  1  0.36703406  0.25897289  0.49851651  1
  O  O242  1  0.37242940  0.75888607  0.00109626  1
  O  O243  1  0.36741552  0.75577605  0.50550231  1
  O  O244  1  0.86931457  0.25560281  0.00626929  1
  O  O245  1  0.86900268  0.25725663  0.50657862  1
  O  O246  1  0.87608007  0.75626018  0.01047201  1
  O  O247  1  0.86552407  0.75083362  0.50796090  1
  O  O248  1  0.13619196  0.25087937  0.49456322  1
  O  O249  1  0.12908905  0.24384232  0.99525597  1
  O  O250  1  0.13810664  0.74922431  0.49907426  1
  O  O251  1  0.12650064  0.74331544  0.99219974  1
  O  O252  1  0.63097157  0.24905588  0.49316647  1
  O  O253  1  0.63193766  0.24869911  0.99446537  1
  O  O254  1  0.63520643  0.74489099  0.50006370  1
  O  O255  1  0.62631174  0.74877338  0.99148129  1
  O  O256  1  0.49491496  0.24476623  0.13036471  1
  O  O257  1  0.49955507  0.24070512  0.63083402  1
  O  O258  1  0.49729328  0.74461837  0.13426120  1
  O  O259  1  0.49340665  0.74499051  0.62614580  1
  O  O260  1  0.99438392  0.24374843  0.13038705  1
  O  O261  1  0.99448823  0.24209229  0.63246701  1
  O  O262  1  0.99180614  0.75160936  0.13324538  1
  O  O263  1  0.99005604  0.75093571  0.63068505  1
  O  O264  1  0.00744303  0.25133591  0.36812904  1
  O  O265  1  0.00460490  0.25419688  0.87049179  1
  O  O266  1  -0.00200944  0.75788268  0.36459039  1
  O  O267  1  0.00459041  0.75594637  0.86889694  1
  O  O268  1  0.50510485  0.25408794  0.36852358  1
  O  O269  1  0.50481434  0.25503953  0.87100211  1
  O  O270  1  0.49966855  0.75835817  0.36716643  1
  O  O271  1  0.50677696  0.75813676  0.87271202  1
  O  O272  1  0.25221058  0.13538254  0.49438086  1
  O  O273  1  0.24405792  0.12891321  0.99430602  1
  O  O274  1  0.25177680  0.63657964  0.49799229  1
  O  O275  1  0.24385502  0.62548934  0.99217440  1
  O  O276  1  0.74886437  0.13192526  0.49307348  1
  O  O277  1  0.75022814  0.13193362  0.99451018  1
  O  O278  1  0.74584316  0.63408746  0.49304517  1
  O  O279  1  0.74616708  0.62834906  0.99133884  1
  O  O280  1  0.25725077  0.36705257  -0.00027027  1
  O  O281  1  0.26056693  0.36521658  0.49819791  1
  O  O282  1  0.25572475  0.87601822  0.00553656  1
  O  O283  1  0.25553661  0.86729926  0.50492923  1
  O  O284  1  0.75530607  0.36985873  0.00624555  1
  O  O285  1  0.75907099  0.36782781  0.50349413  1
  O  O286  1  0.75802405  0.87365371  0.00785513  1
  O  O287  1  0.75068333  0.86362692  0.49962171  1
  O  O288  1  0.12561411  0.49113681  0.24142152  1
  O  O289  1  0.13049173  0.49421769  0.74405523  1
  O  O290  1  0.13029594  0.99467443  0.24410311  1
  O  O291  1  0.13160238  0.99238214  0.74883067  1
  O  O292  1  0.63030949  0.49319177  0.24475274  1
  O  O293  1  0.62957109  0.50150788  0.73999283  1
  O  O294  1  0.63216262  0.99840806  0.24331699  1
  O  O295  1  0.62995272  0.99721589  0.74301024  1
  O  O296  1  0.36892622  0.00562011  0.25509966  1
  O  O297  1  0.36901093  0.00556121  0.75611413  1
  O  O298  1  0.37656394  0.50702562  0.25682411  1
  O  O299  1  0.37035830  0.50493305  0.75527521  1
  O  O300  1  0.86949162  0.00614083  0.25488089  1
  O  O301  1  0.86987867  0.00517135  0.75685652  1
  O  O302  1  0.86718634  0.50090428  0.25126594  1
  O  O303  1  0.86943119  0.50619037  0.75421230  1
  O  O304  1  0.12595014  0.36896955  0.36420017  1
  O  O305  1  0.11903008  0.36894497  0.87072259  1
  O  O306  1  0.11525809  0.87242030  0.36712497  1
  O  O307  1  0.11922883  0.86919197  0.86938985  1
  O  O308  1  0.62039803  0.36984436  0.37015557  1
  O  O309  1  0.61797321  0.36926169  0.87388082  1
  O  O310  1  0.61244814  0.87378466  0.37244339  1
  O  O311  1  0.61984561  0.87201667  0.87066939  1
  O  O312  1  0.38031704  0.12963429  0.13069511  1
  O  O313  1  0.38474519  0.12542721  0.63139548  1
  O  O314  1  0.38139982  0.62336545  0.13448064  1
  O  O315  1  0.38002468  0.62925916  0.62981230  1
  O  O316  1  0.88032119  0.13031327  0.13093609  1
  O  O317  1  0.88225058  0.13023750  0.63186180  1
  O  O318  1  0.87674687  0.63571792  0.12577597  1
  O  O319  1  0.87404529  0.63707782  0.63113333  1
  O  O320  1  0.25714191  0.24949625  0.11773715  1
  O  O321  1  0.25298203  0.25151996  0.61434145  1
  O  O322  1  0.25303058  0.75881386  0.12175815  1
  O  O323  1  0.25594760  0.75521463  0.61773438  1
  O  O324  1  0.75536222  0.25542683  0.12144754  1
  O  O325  1  0.75564593  0.24927739  0.62013070  1
  O  O326  1  0.75912589  0.75534858  0.12643397  1
  O  O327  1  0.75691217  0.75179586  0.61654977  1
  O  O328  1  0.24609808  0.24438929  0.38193061  1
  O  O329  1  0.24386189  0.24332998  0.88066619  1
  O  O330  1  0.25065489  0.75016771  0.38561471  1
  O  O331  1  0.24253773  0.74259919  0.87496871  1
  O  O332  1  0.74455945  0.24394352  0.37966706  1
  O  O333  1  0.74567059  0.24571432  0.88075135  1
  O  O334  1  0.74933540  0.74299989  0.38224564  1
  O  O335  1  0.74336457  0.74567718  0.87668536  1
  O  O336  1  0.00484657  0.11961563  0.00578599  1
  O  O337  1  0.00041951  0.12698574  0.51250323  1
  O  O338  1  0.00901223  0.62138710  0.00153771  1
  O  O339  1  0.00478678  0.62255722  0.50516708  1
  O  O340  1  0.50052937  0.11829433  0.00687862  1
  O  O341  1  0.50094309  0.12385108  0.51094410  1
  O  O342  1  0.49991357  0.61794012  0.00641231  1
  O  O343  1  0.50642164  0.62453940  0.50581431  1
  O  O344  1  0.48999270  0.37461926  0.49274251  1
  O  O345  1  0.49413857  0.38057737  0.99445816  1
  O  O346  1  0.49381572  0.87537111  0.48992593  1
  O  O347  1  0.49375877  0.88219237  0.99455769  1
  O  O348  1  0.98824083  0.37397813  0.50061060  1
  O  O349  1  0.99211032  0.37503056  0.99290735  1
  O  O350  1  0.99884303  0.87277354  0.48652084  1
  O  O351  1  0.99558348  0.88072770  0.99468202  1
  O  O352  1  0.49104359  0.49356362  0.37582562  1
  O  O353  1  0.49481591  0.49576190  0.87949292  1
  O  O354  1  0.49374874  0.99138165  0.37384317  1
  O  O355  1  0.49459490  0.99630231  0.88005607  1
  O  O356  1  0.99572369  0.49475795  0.37910618  1
  O  O357  1  0.99205991  0.49275465  0.87425993  1
  O  O358  1  0.99452292  0.98987966  0.37245327  1
  O  O359  1  0.99477261  0.99470455  0.88047128  1
  O  O360  1  0.00477492  0.00468715  0.12069650  1
  O  O361  1  -0.00061527  0.01134424  0.62501551  1
  O  O362  1  0.01215213  0.50127172  0.12264352  1
  O  O363  1  0.01263528  0.50109146  0.62525411  1
  O  O364  1  0.50440081  0.00493509  0.12082702  1
  O  O365  1  0.50768955  0.00937269  0.62599595  1
  O  O366  1  0.50583701  0.50395311  0.11995316  1
  O  O367  1  0.50934008  0.50718351  0.62286014  1
  O  O368  1  0.23792151  0.37493759  0.24659385  1
  O  O369  1  0.24412779  0.38041281  0.75119888  1
  O  O370  1  0.24568567  0.88033011  0.24497292  1
  O  O371  1  0.24521747  0.87972650  0.74482524  1
  O  O372  1  0.74492197  0.37892861  0.24534067  1
  O  O373  1  0.74610573  0.38424079  0.74686936  1
  O  O374  1  0.74886955  0.88133363  0.24469981  1
  O  O375  1  0.74302995  0.88408595  0.74849505  1
  O  O376  1  0.25543207  0.11948606  0.25479513  1
  O  O377  1  0.25464686  0.12049049  0.75538556  1
  O  O378  1  0.26404152  0.62481579  0.24999352  1
  O  O379  1  0.25622652  0.61859846  0.75565304  1
  O  O380  1  0.75655042  0.12005584  0.25565201  1
  O  O381  1  0.75605624  0.12022324  0.75702956  1
  O  O382  1  0.75006227  0.61958440  0.25923547  1
  O  O383  1  0.75594070  0.62078324  0.75590728  1
  O  O384  1  0.37020103  0.11998942  0.36883617  1
  O  O385  1  0.36916648  0.11967972  0.87036753  1
  O  O386  1  0.37774765  0.61605785  0.36615334  1
  O  O387  1  0.37053136  0.61919065  0.86973433  1
  O  O388  1  0.87030747  0.12065916  0.36929118  1
  O  O389  1  0.87072398  0.11955092  0.87078543  1
  O  O390  1  0.86169243  0.62422144  0.37400251  1
  O  O391  1  0.86938256  0.62081393  0.86917846  1
  O  O392  1  0.12604563  0.38138279  0.13164599  1
  O  O393  1  0.12751318  0.38191866  0.63322393  1
  O  O394  1  0.12953943  0.88125636  0.12952162  1
  O  O395  1  0.13155391  0.87507983  0.63224993  1
  O  O396  1  0.63075014  0.37937458  0.13121481  1
  O  O397  1  0.62457849  0.38768323  0.62551710  1
  O  O398  1  0.63099694  0.88123245  0.12743697  1
  O  O399  1  0.62428074  0.88657717  0.63055205  1
  O  O400  1  0.12105662  0.25631945  0.25324029  1
  O  O401  1  0.11981856  0.25458048  0.75693694  1
  O  O402  1  0.11516676  0.75572659  0.24787023  1
  O  O403  1  0.11943352  0.75452114  0.75457236  1
  O  O404  1  0.62002416  0.25517447  0.25539501  1
  O  O405  1  0.61801857  0.25176487  0.75746468  1
  O  O406  1  0.61147636  0.75072879  0.25236380  1
  O  O407  1  0.62376754  0.75854615  0.75662502  1
  O  O408  1  0.38021097  0.24489568  0.24519211  1
  O  O409  1  0.38079715  0.24361830  0.74958964  1
  O  O410  1  0.38526326  0.74031900  0.24975070  1
  O  O411  1  0.37554222  0.74354358  0.74307659  1
  O  O412  1  0.88019514  0.24524047  0.24512005  1
  O  O413  1  0.87970168  0.24460569  0.74681647  1
  O  O414  1  0.88348789  0.74986482  0.23997026  1
  O  O415  1  0.87828777  0.74684292  0.74293560  1
  O  O416  1  0.37548951  0.49115796  0.49158016  1
  O  O417  1  0.38029376  0.49431093  0.99448324  1
  O  O418  1  0.37622253  0.99331166  0.49253465  1
  O  O419  1  0.38015111  0.99554512  0.99378787  1
  O  O420  1  0.87440940  0.48854572  0.50244831  1
  O  O421  1  0.87507418  0.49326828  0.99312984  1
  O  O422  1  0.87867878  0.99661707  0.49210239  1
  O  O423  1  0.88127228  0.99490681  0.99570398  1
  O  O424  1  0.11921141  0.00516165  0.00490595  1
  O  O425  1  0.12018948  0.00466539  0.50400794  1
  O  O426  1  0.12373952  0.50361267  0.00755299  1
  O  O427  1  0.12715905  0.49668010  0.51165075  1
  O  O428  1  0.61809735  0.00185910  0.00714957  1
  O  O429  1  0.62248449  0.00269208  0.51171443  1
  O  O430  1  0.61800545  0.50077211  0.00688127  1
  O  O431  1  0.62490387  0.50628979  0.50925141  1
  O  O432  1  0.37451651  0.36807245  0.11879524  1
  O  O433  1  0.37478397  0.37431347  0.61296924  1
  O  O434  1  0.36836187  0.87545646  0.11811373  1
  O  O435  1  0.37007773  0.87019571  0.62016945  1
  O  O436  1  0.86983601  0.36932801  0.12026517  1
  O  O437  1  0.87305414  0.36815620  0.61872534  1
  O  O438  1  0.87038620  0.86735390  0.12109325  1
  O  O439  1  0.87174253  0.86414098  0.62352765  1
  O  O440  1  0.13248973  0.13179218  0.37551465  1
  O  O441  1  0.12911959  0.12970968  0.88026590  1
  O  O442  1  0.13201488  0.62788096  0.37633495  1
  O  O443  1  0.13027895  0.62852330  0.87836100  1
  O  O444  1  0.63113431  0.13110805  0.37550794  1
  O  O445  1  0.63217306  0.13195660  0.87720646  1
  O  O446  1  0.63538161  0.62640772  0.38094141  1
  O  O447  1  0.63041760  0.63327821  0.87475542  1
