# generated using pymatgen
data_V3Zn3O8
_symmetry_space_group_name_H-M   'P 1'
_cell_length_a   17.08701273
_cell_length_b   17.08698003
_cell_length_c   17.08897585
_cell_angle_alpha   89.98246054
_cell_angle_beta   89.99279606
_cell_angle_gamma   89.98575776
_symmetry_Int_Tables_number   1
_chemical_formula_structural   V3Zn3O8
_chemical_formula_sum   'V96 Zn96 O256'
_cell_volume   4989.39001422
_cell_formula_units_Z   32
loop_
 _symmetry_equiv_pos_site_id
 _symmetry_equiv_pos_as_xyz
  1  'x, y, z'
loop_
 _atom_site_type_symbol
 _atom_site_label
 _atom_site_symmetry_multiplicity
 _atom_site_fract_x
 _atom_site_fract_y
 _atom_site_fract_z
 _atom_site_occupancy
  V  V0  1  0.74980465  0.12297724  0.37509960  1
  V  V1  1  0.62388022  0.62427415  -0.00073884  1
  V  V2  1  0.62454729  0.87522570  0.74983899  1
  V  V3  1  0.50146130  0.50082916  -0.00033243  1
  V  V4  1  0.49942638  -0.00105076  0.49989670  1
  V  V5  1  0.37409353  0.50004379  0.87375742  1
  V  V6  1  0.24883929  0.00043372  0.75015408  1
  V  V7  1  0.12355933  0.12526550  0.50109882  1
  V  V8  1  0.00080606  0.50181447  0.00051635  1
  V  V9  1  0.74911183  0.74990271  0.49966740  1
  V  V10  1  0.12421307  0.62515838  0.49900470  1
  V  V11  1  0.74977937  -0.00095484  0.24994401  1
  V  V12  1  -0.00125471  0.00026319  -0.00028423  1
  V  V13  1  0.49880584  0.62401996  0.62392110  1
  V  V14  1  0.50086642  0.37367274  0.37516564  1
  V  V15  1  0.12514440  0.50018212  0.62402320  1
  V  V16  1  0.24969928  0.75003301  0.00005488  1
  V  V17  1  0.62380103  -0.00017373  0.12411491  1
  V  V18  1  0.24958482  0.12586406  0.87565768  1
  V  V19  1  0.00152414  0.37794170  0.87655442  1
  V  V20  1  0.25103015  0.37497198  0.62442665  1
  V  V21  1  0.74858546  0.62527872  0.37517397  1
  V  V22  1  0.87675653  0.50138093  0.87549739  1
  V  V23  1  0.37492798  0.49905650  0.37337934  1
  V  V24  1  0.87400139  0.00086444  0.87544949  1
  V  V25  1  0.37568438  0.12612967  0.74978974  1
  V  V26  1  0.49945737  0.74803985  0.25003569  1
  V  V27  1  0.25078068  0.00054370  0.25038549  1
  V  V28  1  0.37600774  0.12433075  0.24861086  1
  V  V29  1  0.37541656  0.74849978  0.12504220  1
  V  V30  1  0.75105777  0.25069955  0.00049658  1
  V  V31  1  0.50020825  -0.00050874  0.00039452  1
  V  V32  1  0.24991463  0.62542233  0.87396944  1
  V  V33  1  0.25073047  0.37635497  0.12585477  1
  V  V34  1  -0.00002009  0.12594841  0.12570466  1
  V  V35  1  0.49968803  0.24910779  0.74958668  1
  V  V36  1  0.12513292  0.12600405  0.00021816  1
  V  V37  1  0.75092045  0.37526995  0.12506253  1
  V  V38  1  0.49818970  0.74971724  0.74830551  1
  V  V39  1  0.37497253  -0.00181457  0.37550047  1
  V  V40  1  0.25050878  0.62414473  0.37427061  1
  V  V41  1  0.87606604  -0.00122998  0.37600091  1
  V  V42  1  0.00036264  0.00016330  0.50116263  1
  V  V43  1  0.37597839  0.37394234  -0.00002308  1
  V  V44  1  0.87531821  0.62572301  0.74886454  1
  V  V45  1  0.37699576  0.24994684  0.12543143  1
  V  V46  1  0.87549350  0.12483271  0.24951936  1
  V  V47  1  0.62566810  0.37392343  0.25098254  1
  V  V48  1  0.25053743  0.24930727  0.50007311  1
  V  V49  1  0.12512759  0.62630312  0.00134073  1
  V  V50  1  0.37480952  -0.00028772  0.87554116  1
  V  V51  1  0.87444738  0.49957141  0.37465580  1
  V  V52  1  0.49988063  0.37510883  0.87476756  1
  V  V53  1  0.62445903  0.87290489  0.25070421  1
  V  V54  1  -0.00094702  0.50008019  0.49916616  1
  V  V55  1  0.74931336  0.74992389  -0.00076619  1
  V  V56  1  0.50069475  0.24920669  0.25054274  1
  V  V57  1  0.75002995  0.62534873  0.87382857  1
  V  V58  1  0.62456827  0.75024837  0.87367153  1
  V  V59  1  0.00081997  0.75210055  0.75135846  1
  V  V60  1  0.87485446  0.87608541  -0.00031852  1
  V  V61  1  0.50117785  0.49798263  0.49997993  1
  V  V62  1  0.75075795  0.24940610  0.50093811  1
  V  V63  1  0.00032409  0.87576012  0.37656256  1
  V  V64  1  0.62606104  0.25049309  0.87502517  1
  V  V65  1  0.00002250  0.37476887  0.37425843  1
  V  V66  1  0.74928573  0.49934294  0.24972683  1
  V  V67  1  -0.00066404  0.62580375  0.62480383  1
  V  V68  1  0.12579524  0.37698692  0.75041556  1
  V  V69  1  0.12500113  0.74976932  0.37516090  1
  V  V70  1  -0.00035344  0.75029900  0.25078621  1
  V  V71  1  0.75025383  0.50013845  0.74921541  1
  V  V72  1  0.37469882  0.87535832  -0.00087236  1
  V  V73  1  0.62450519  0.00057814  0.62491291  1
  V  V74  1  0.12521124  0.87561474  0.25040369  1
  V  V75  1  0.12509157  0.24974959  0.37549141  1
  V  V76  1  0.87449336  0.75047734  0.12498221  1
  V  V77  1  0.87426180  0.62517871  0.24999881  1
  V  V78  1  -0.00008926  0.24957302  0.24942218  1
  V  V79  1  -0.00190133  0.24979338  0.74920572  1
  V  V80  1  0.12417582  0.00120711  0.62580610  1
  V  V81  1  0.74956301  0.87480095  0.12498914  1
  V  V82  1  0.12607574  0.37532070  0.24944880  1
  V  V83  1  0.25042188  0.87486305  0.62523061  1
  V  V84  1  0.74979158  0.00098034  0.75078343  1
  V  V85  1  0.75019114  0.87472407  0.62404619  1
  V  V86  1  0.62595906  0.12326475  0.49953273  1
  V  V87  1  0.74974985  0.12569111  0.87483173  1
  V  V88  1  0.25018964  0.75071333  0.50068373  1
  V  V89  1  0.62579759  0.37568215  0.75008328  1
  V  V90  1  0.12500927  0.00083491  0.12535219  1
  V  V91  1  0.25001322  0.87499873  0.12468979  1
  V  V92  1  0.62505645  0.49858037  0.62530394  1
  V  V93  1  0.00042775  0.62484789  0.12488655  1
  V  V94  1  0.12577728  0.25121824  0.87636620  1
  V  V95  1  0.87430408  0.37358713  0.50043907  1
  Zn  Zn96  1  0.24925037  0.50192035  0.24974254  1
  Zn  Zn97  1  0.62283877  0.74829622  0.37485310  1
  Zn  Zn98  1  0.12538825  0.50071562  0.12698119  1
  Zn  Zn99  1  0.25153912  0.24979473  -0.00001204  1
  Zn  Zn100  1  0.87578604  0.24989990  0.12467138  1
  Zn  Zn101  1  0.50082807  0.87139199  0.37635823  1
  Zn  Zn102  1  0.37617385  0.87262166  0.49997225  1
  Zn  Zn103  1  0.62369393  0.24762421  0.37520546  1
  Zn  Zn104  1  0.62485708  0.62389446  0.49784791  1
  Zn  Zn105  1  0.37738267  0.37173022  0.50012685  1
  Zn  Zn106  1  0.49892264  0.87481261  0.87396101  1
  Zn  Zn107  1  0.50185185  0.12519808  0.12411350  1
  Zn  Zn108  1  0.87505463  0.75167228  0.62454622  1
  Zn  Zn109  1  0.12351796  0.87659379  0.75357366  1
  Zn  Zn110  1  0.62373602  0.12436594  0.00164023  1
  Zn  Zn111  1  0.49985892  0.62273127  0.12450324  1
  Zn  Zn112  1  0.12469830  0.75389402  0.87605509  1
  Zn  Zn113  1  0.87450976  0.12589901  0.74864332  1
  Zn  Zn114  1  0.87700233  0.37675962  0.00130352  1
  Zn  Zn115  1  -0.00226467  0.12428399  0.62667939  1
  Zn  Zn116  1  0.00120309  0.87561979  0.87514166  1
  Zn  Zn117  1  0.25111693  0.50257382  0.74779974  1
  Zn  Zn118  1  0.62378063  0.50183139  0.12473941  1
  Zn  Zn119  1  0.24923570  0.12468780  0.37477716  1
  Zn  Zn120  1  0.37425741  0.62398610  0.24755373  1
  Zn  Zn121  1  0.87583805  0.24898854  0.62578416  1
  Zn  Zn122  1  0.37264315  0.62422391  0.74809568  1
  Zn  Zn123  1  0.75220950  0.37427222  0.62609934  1
  Zn  Zn124  1  0.87577826  0.87516727  0.50174121  1
  Zn  Zn125  1  0.49897407  0.12647911  0.62504987  1
  Zn  Zn126  1  0.37745860  0.24887905  0.62416145  1
  Zn  Zn127  1  0.37426858  0.74931409  0.62304788  1
  Zn  Zn128  1  0.18936730  0.18871224  0.18755999  1
  Zn  Zn129  1  0.18560087  0.18756748  0.68820065  1
  Zn  Zn130  1  0.18835891  0.68682091  0.18837644  1
  Zn  Zn131  1  0.18488592  0.68895648  0.68785018  1
  Zn  Zn132  1  0.68582610  0.18654856  0.18727989  1
  Zn  Zn133  1  0.68665568  0.18642880  0.68661141  1
  Zn  Zn134  1  0.68540212  0.68636298  0.18584586  1
  Zn  Zn135  1  0.68561665  0.68681116  0.68520328  1
  Zn  Zn136  1  0.31371933  0.31297036  0.31217670  1
  Zn  Zn137  1  0.31268815  0.31191238  0.81169590  1
  Zn  Zn138  1  0.31336335  0.81222378  0.31243361  1
  Zn  Zn139  1  0.31280071  0.81250567  0.81165702  1
  Zn  Zn140  1  0.81287163  0.31026185  0.31383612  1
  Zn  Zn141  1  0.81431507  0.31591623  0.81467013  1
  Zn  Zn142  1  0.81237216  0.81270441  0.31454859  1
  Zn  Zn143  1  0.81383058  0.81392859  0.81184617  1
  Zn  Zn144  1  0.18750767  0.43689883  0.43737449  1
  Zn  Zn145  1  0.18781735  0.43966899  0.94024459  1
  Zn  Zn146  1  0.18747225  0.93792356  0.43903371  1
  Zn  Zn147  1  0.18561821  0.93751737  0.93648957  1
  Zn  Zn148  1  0.68637536  0.43604645  0.43758263  1
  Zn  Zn149  1  0.68776252  0.43813934  0.93690936  1
  Zn  Zn150  1  0.68629612  0.93462294  0.43614728  1
  Zn  Zn151  1  0.68608944  0.93699869  0.93668462  1
  Zn  Zn152  1  0.31327643  0.06332469  0.06244116  1
  Zn  Zn153  1  0.31266048  0.06378340  0.56394889  1
  Zn  Zn154  1  0.31474051  0.56190472  0.06125652  1
  Zn  Zn155  1  0.31398651  0.56157765  0.55862230  1
  Zn  Zn156  1  0.81170741  0.06388199  0.06276148  1
  Zn  Zn157  1  0.81563000  0.06366733  0.56521958  1
  Zn  Zn158  1  0.81262262  0.56274203  0.06192207  1
  Zn  Zn159  1  0.81224552  0.56330694  0.56297030  1
  Zn  Zn160  1  0.43935481  0.43713728  0.18724444  1
  Zn  Zn161  1  0.43573982  0.43692093  0.68859644  1
  Zn  Zn162  1  0.43859636  0.93506940  0.18672338  1
  Zn  Zn163  1  0.43602859  0.93848345  0.68692741  1
  Zn  Zn164  1  0.93692180  0.43780083  0.18674401  1
  Zn  Zn165  1  0.93667873  0.43628026  0.68647480  1
  Zn  Zn166  1  0.93756968  0.93788000  0.18748788  1
  Zn  Zn167  1  0.93510041  0.93702863  0.68725087  1
  Zn  Zn168  1  0.06310638  0.06343422  0.31416920  1
  Zn  Zn169  1  0.06235865  0.06347316  0.81400883  1
  Zn  Zn170  1  0.06322879  0.56149338  0.31124172  1
  Zn  Zn171  1  0.06500348  0.56479069  0.81202579  1
  Zn  Zn172  1  0.56206231  0.06173356  0.31207150  1
  Zn  Zn173  1  0.56230306  0.06391124  0.81470688  1
  Zn  Zn174  1  0.56345800  0.56245681  0.31194664  1
  Zn  Zn175  1  0.56208103  0.56278501  0.81204790  1
  Zn  Zn176  1  0.43668460  0.18512493  0.43619699  1
  Zn  Zn177  1  0.43843190  0.18612084  0.93818590  1
  Zn  Zn178  1  0.43578605  0.68594918  0.43761682  1
  Zn  Zn179  1  0.43672262  0.68720951  0.93693828  1
  Zn  Zn180  1  0.93717388  0.18583100  0.43730137  1
  Zn  Zn181  1  0.93651021  0.18802726  0.93641696  1
  Zn  Zn182  1  0.93477897  0.68833774  0.43763642  1
  Zn  Zn183  1  0.93721684  0.68817734  0.93669611  1
  Zn  Zn184  1  0.06397556  0.31301737  0.06266891  1
  Zn  Zn185  1  0.06296808  0.31290718  0.56309349  1
  Zn  Zn186  1  0.06230736  0.81304118  0.06226137  1
  Zn  Zn187  1  0.06371711  0.81362921  0.56446780  1
  Zn  Zn188  1  0.56381214  0.31345285  0.06351503  1
  Zn  Zn189  1  0.56450509  0.31161700  0.56342293  1
  Zn  Zn190  1  0.56100151  0.81266456  0.06304520  1
  Zn  Zn191  1  0.56497513  0.81260347  0.56244380  1
  O  O192  1  0.12010649  0.12006981  0.12088867  1
  O  O193  1  0.12276984  0.11848427  0.61879592  1
  O  O194  1  0.11818783  0.62442138  0.12003817  1
  O  O195  1  0.11959686  0.61955825  0.61793936  1
  O  O196  1  0.62332775  0.11521581  0.12299477  1
  O  O197  1  0.62342422  0.11686815  0.61736040  1
  O  O198  1  0.62336689  0.62212208  0.11429453  1
  O  O199  1  0.61335209  0.61725975  0.62445130  1
  O  O200  1  0.38134598  0.38323482  0.37659089  1
  O  O201  1  0.37996702  0.37970571  0.88012301  1
  O  O202  1  0.37618554  0.88797215  0.37676472  1
  O  O203  1  0.37467315  0.88190459  0.88133902  1
  O  O204  1  0.88089121  0.38051245  0.37947944  1
  O  O205  1  0.88356041  0.38479714  0.87745719  1
  O  O206  1  0.88285832  0.88173142  0.37547742  1
  O  O207  1  0.87503158  0.88250897  0.88328276  1
  O  O208  1  0.25828739  0.00067158  0.36970382  1
  O  O209  1  0.25482477  0.00623221  0.87008474  1
  O  O210  1  0.25917840  0.50405545  0.37583626  1
  O  O211  1  0.25492576  0.51019365  0.87529368  1
  O  O212  1  0.75568362  0.00340358  0.36920604  1
  O  O213  1  0.75359850  0.00572060  0.87064668  1
  O  O214  1  0.75581615  0.50416463  0.36966235  1
  O  O215  1  0.75588818  0.50625977  0.86912580  1
  O  O216  1  0.25132422  0.48746327  0.12655185  1
  O  O217  1  0.24417252  0.49064859  0.62181152  1
  O  O218  1  0.24466318  0.99436219  0.13042403  1
  O  O219  1  0.24459317  0.99330361  0.62972602  1
  O  O220  1  0.75023751  0.49082548  0.13046573  1
  O  O221  1  0.74353542  0.49945159  0.63176814  1
  O  O222  1  0.74530734  0.99377177  0.13061147  1
  O  O223  1  0.74372365  0.99499617  0.63025154  1
  O  O224  1  0.00474439  0.36958957  0.25488248  1
  O  O225  1  0.00646062  0.36974916  0.75622083  1
  O  O226  1  0.00596938  0.86999331  0.25524906  1
  O  O227  1  -0.00052620  0.86374164  0.75072525  1
  O  O228  1  0.50607493  0.36915511  0.25533264  1
  O  O229  1  0.50553307  0.36990856  0.75637981  1
  O  O230  1  0.50567390  0.86383229  0.25015398  1
  O  O231  1  0.50532077  0.86532524  0.74818501  1
  O  O232  1  0.49361953  0.13066798  0.24843311  1
  O  O233  1  0.49380348  0.13132750  0.75016055  1
  O  O234  1  0.49886324  0.63598946  0.24755044  1
  O  O235  1  0.49984466  0.63339793  0.74115201  1
  O  O236  1  0.99576568  0.12975420  0.24514790  1
  O  O237  1  0.99990807  0.13917315  0.75208372  1
  O  O238  1  0.99403563  0.63096830  0.24585926  1
  O  O239  1  0.99541094  0.63215393  0.74458428  1
  O  O240  1  0.37498953  0.25707202  0.00640564  1
  O  O241  1  0.36295924  0.24982953  0.50119446  1
  O  O242  1  0.36941168  0.75589949  0.00467807  1
  O  O243  1  0.36669792  0.75292915  0.50231419  1
  O  O244  1  0.86273042  0.25338906  0.00103617  1
  O  O245  1  0.86632222  0.25472648  0.49847848  1
  O  O246  1  0.86888093  0.75488322  0.00560462  1
  O  O247  1  0.86251393  0.75221746  0.50168788  1
  O  O248  1  0.13148778  0.24581858  0.49502617  1
  O  O249  1  0.12637986  0.24338924  0.99372137  1
  O  O250  1  0.12951107  0.74427576  0.49394967  1
  O  O251  1  0.13207294  0.74416510  1.00024752  1
  O  O252  1  0.63447902  0.24280863  0.49796599  1
  O  O253  1  0.63620156  0.25133716  0.99425797  1
  O  O254  1  0.63685452  0.74759075  0.49777936  1
  O  O255  1  0.63021635  0.74582774  0.99347205  1
  O  O256  1  0.49449265  0.25040582  0.13218173  1
  O  O257  1  0.49835562  0.24767055  0.63310769  1
  O  O258  1  0.49325483  0.74907880  0.13334519  1
  O  O259  1  0.50106420  0.74152516  0.63152684  1
  O  O260  1  0.99901195  0.24405601  0.13125491  1
  O  O261  1  1.00133316  0.25096072  0.63801679  1
  O  O262  1  0.99395972  0.74550541  0.13141614  1
  O  O263  1  0.99882486  0.74398943  0.63268868  1
  O  O264  1  0.00535891  0.25573884  0.36961448  1
  O  O265  1  0.00581059  0.25736814  0.86897784  1
  O  O266  1  0.00525285  0.75478080  0.36996781  1
  O  O267  1  0.00065120  0.75050572  0.86410083  1
  O  O268  1  0.50050233  0.25552326  0.36898795  1
  O  O269  1  0.50637543  0.25591641  0.87042585  1
  O  O270  1  0.50005366  0.75077624  0.36482314  1
  O  O271  1  0.50526299  0.74971109  0.86367485  1
  O  O272  1  0.24345122  0.13505493  0.50002278  1
  O  O273  1  0.24326415  0.12642828  0.99404449  1
  O  O274  1  0.24323255  0.63032190  0.49462188  1
  O  O275  1  0.24557299  0.63026165  0.99324646  1
  O  O276  1  0.74623939  0.13043366  0.49475734  1
  O  O277  1  0.74828069  0.13566109  0.99537525  1
  O  O278  1  0.74931247  0.63313424  0.49439894  1
  O  O279  1  0.74541416  0.63097101  0.99331441  1
  O  O280  1  0.25658340  0.37387667  0.00920376  1
  O  O281  1  0.24800522  0.36551711  0.50836333  1
  O  O282  1  0.25451947  0.87050767  0.00596380  1
  O  O283  1  0.24930637  0.86960403  0.50961240  1
  O  O284  1  0.75099459  0.36838616  0.00788023  1
  O  O285  1  0.75530262  0.36467362  0.49875625  1
  O  O286  1  0.75474622  0.86907594  0.00569380  1
  O  O287  1  0.75003753  0.86627286  0.50518614  1
  O  O288  1  0.12765555  0.49105504  0.24757668  1
  O  O289  1  0.12705737  0.49482969  0.74194419  1
  O  O290  1  0.13021289  0.99510072  0.24519234  1
  O  O291  1  0.13157783  1.00054591  0.74416684  1
  O  O292  1  0.63236559  0.49238443  0.24798354  1
  O  O293  1  0.63047585  0.49492581  0.74580444  1
  O  O294  1  0.63057678  0.99323972  0.24467986  1
  O  O295  1  0.62961561  0.99490568  0.74548928  1
  O  O296  1  0.37093256  0.00310458  0.25676579  1
  O  O297  1  0.36888782  0.00535709  0.75583967  1
  O  O298  1  0.37550188  0.50077939  0.26294476  1
  O  O299  1  0.37124255  0.50281903  0.75835462  1
  O  O300  1  0.86978121  0.00493030  0.25541353  1
  O  O301  1  0.86683822  0.00065473  0.75795235  1
  O  O302  1  0.86953133  0.50568878  0.25577547  1
  O  O303  1  0.87087154  0.50602018  0.75560181  1
  O  O304  1  0.11901049  0.36949763  0.36998795  1
  O  O305  1  0.12125359  0.37183005  0.87062977  1
  O  O306  1  0.12025348  0.86978089  0.36943798  1
  O  O307  1  0.12013896  0.87172427  0.87173894  1
  O  O308  1  0.61847412  0.37266575  0.36808424  1
  O  O309  1  0.61961549  0.37035789  0.86921772  1
  O  O310  1  0.62219204  0.87091315  0.36504868  1
  O  O311  1  0.62314109  0.86754572  0.86722918  1
  O  O312  1  0.37630388  0.13202789  0.13138354  1
  O  O313  1  0.37691416  0.12747422  0.63438434  1
  O  O314  1  0.37713612  0.63293596  0.12661737  1
  O  O315  1  0.38694447  0.62463547  0.62595961  1
  O  O316  1  0.88188893  0.12578199  0.13199704  1
  O  O317  1  0.88035402  0.13043414  0.63103547  1
  O  O318  1  0.87957206  0.63161714  0.13066914  1
  O  O319  1  0.88233233  0.62571745  0.63166849  1
  O  O320  1  0.25707228  0.26098220  0.12429312  1
  O  O321  1  0.24719824  0.25914216  0.61636385  1
  O  O322  1  0.25498161  0.75608853  0.12026390  1
  O  O323  1  0.24933028  0.75842428  0.62008663  1
  O  O324  1  0.75051862  0.25786598  0.11739061  1
  O  O325  1  0.75104610  0.25071749  0.61197460  1
  O  O326  1  0.75556665  0.75510235  0.11926848  1
  O  O327  1  0.74941162  0.75489083  0.61637930  1
  O  O328  1  0.24442166  0.25076602  0.38498076  1
  O  O329  1  0.24328380  0.24419138  0.87635983  1
  O  O330  1  0.24398342  0.74552366  0.37989222  1
  O  O331  1  0.25080029  0.74059638  0.88115948  1
  O  O332  1  0.74899855  0.24209989  0.38496081  1
  O  O333  1  0.74592245  0.24772727  0.88279403  1
  O  O334  1  0.74980096  0.74375692  0.38300697  1
  O  O335  1  0.74488819  0.74472864  0.87941802  1
  O  O336  1  0.00497355  0.12033085  0.00575610  1
  O  O337  1  0.00678444  0.11850257  0.50100358  1
  O  O338  1  0.00495233  0.62234829  0.00584270  1
  O  O339  1  0.00441567  0.61996957  0.50374669  1
  O  O340  1  0.50268209  0.11565084  0.00264207  1
  O  O341  1  0.50587724  0.11386549  0.49967867  1
  O  O342  1  0.50652152  0.61878221  -0.00160960  1
  O  O343  1  0.50166074  0.61871646  0.50902577  1
  O  O344  1  0.49925568  0.37968760  0.49371572  1
  O  O345  1  0.49597026  0.37995139  0.99347887  1
  O  O346  1  0.49854715  0.88632153  0.49895660  1
  O  O347  1  0.49214691  0.88063213  0.99747655  1
  O  O348  1  0.99558419  0.38037820  0.49358927  1
  O  O349  1  0.99987630  0.38255705  0.99473528  1
  O  O350  1  1.00021109  0.88109493  0.49364185  1
  O  O351  1  0.99214353  0.88228679  1.00145127  1
  O  O352  1  0.49347914  0.49480566  0.37967133  1
  O  O353  1  0.49458880  0.49417391  0.87901955  1
  O  O354  1  0.49156987  0.99783290  0.38277320  1
  O  O355  1  0.49280484  0.99735710  0.88112813  1
  O  O356  1  0.99393656  0.49490143  0.37974034  1
  O  O357  1  0.99661992  0.49782981  0.88024640  1
  O  O358  1  0.99616351  0.99460477  0.38040175  1
  O  O359  1  0.99256376  1.00047111  0.88273408  1
  O  O360  1  0.00585392  0.00589735  0.12042302  1
  O  O361  1  0.00684127  -0.00036158  0.61946359  1
  O  O362  1  -0.00027856  0.50787006  0.11917747  1
  O  O363  1  0.00544621  0.50517258  0.61846525  1
  O  O364  1  0.50591352  -0.00081953  0.11815150  1
  O  O365  1  0.50525976  0.00080543  0.61557955  1
  O  O366  1  0.50265571  0.50072031  0.11572949  1
  O  O367  1  0.50401301  0.50582665  0.62096817  1
  O  O368  1  0.24535710  0.37535361  0.24117171  1
  O  O369  1  0.24408702  0.37527617  0.73939830  1
  O  O370  1  0.24418298  0.88018573  0.24434157  1
  O  O371  1  0.24884307  0.88086345  0.74111056  1
  O  O372  1  0.74676811  0.37848386  0.24380756  1
  O  O373  1  0.74400499  0.38223365  0.75022340  1
  O  O374  1  0.74570297  0.87945548  0.24406256  1
  O  O375  1  0.74352324  0.88028176  0.74455983  1
  O  O376  1  0.25684515  0.11807206  0.25144762  1
  O  O377  1  0.25450504  0.12031042  0.75622300  1
  O  O378  1  0.25240690  0.62238809  0.25848245  1
  O  O379  1  0.25064913  0.62510308  0.76025629  1
  O  O380  1  0.75514412  0.11853428  0.25503162  1
  O  O381  1  0.74992767  0.11913583  0.75723559  1
  O  O382  1  0.75557253  0.61983953  0.25380648  1
  O  O383  1  0.75454021  0.62050765  0.75466553  1
  O  O384  1  0.37257433  0.11290830  0.36836842  1
  O  O385  1  0.36875552  0.11939594  0.87019257  1
  O  O386  1  0.36871024  0.61409481  0.37473536  1
  O  O387  1  0.36437932  0.61929020  0.87523604  1
  O  O388  1  0.87012265  0.11781896  0.36862421  1
  O  O389  1  0.86704324  0.11848584  0.87390209  1
  O  O390  1  0.86962140  0.61899393  0.36849572  1
  O  O391  1  0.86896575  0.62039043  0.86897669  1
  O  O392  1  0.13524916  0.37532191  0.13032798  1
  O  O393  1  0.13277373  0.38100544  0.62916563  1
  O  O394  1  0.13001674  0.88099426  0.13083334  1
  O  O395  1  0.13617554  0.88191533  0.62724875  1
  O  O396  1  0.63711364  0.37626303  0.13113981  1
  O  O397  1  0.62743934  0.38160489  0.63306031  1
  O  O398  1  0.63156885  0.87937381  0.13057216  1
  O  O399  1  0.63083771  0.88145668  0.63096387  1
  O  O400  1  0.11976270  0.25505896  0.25586796  1
  O  O401  1  0.11753511  0.25685004  0.75670042  1
  O  O402  1  0.11925156  0.75603301  0.25555698  1
  O  O403  1  0.11195453  0.75085854  0.75181945  1
  O  O404  1  0.61928185  0.25564699  0.25253525  1
  O  O405  1  0.62081211  0.25581141  0.75577659  1
  O  O406  1  0.61575402  0.75487113  0.24864485  1
  O  O407  1  0.61672766  0.75447044  0.75344666  1
  O  O408  1  0.38088103  0.24441035  0.24559960  1
  O  O409  1  0.38196160  0.24367670  0.74982016  1
  O  O410  1  0.38355397  0.75025356  0.24412042  1
  O  O411  1  0.38697866  0.74793446  0.74635765  1
  O  O412  1  0.88201553  0.24225074  0.24982784  1
  O  O413  1  0.88707072  0.25227233  0.75136034  1
  O  O414  1  0.88014872  0.74528058  0.24477775  1
  O  O415  1  0.88319145  0.74345947  0.74861970  1
  O  O416  1  0.38192085  0.49658790  0.48872171  1
  O  O417  1  0.38151388  0.49311304  0.99319736  1
  O  O418  1  0.38238290  1.00102044  0.49195839  1
  O  O419  1  0.37949371  0.99439598  0.99525541  1
  O  O420  1  0.87982403  0.49478057  0.49378999  1
  O  O421  1  0.88250772  0.50125641  0.99276558  1
  O  O422  1  0.88177618  0.99893140  0.49289713  1
  O  O423  1  0.87891148  0.99545456  0.99587489  1
  O  O424  1  0.11937227  0.00626210  0.00660706  1
  O  O425  1  0.12019479  0.00587607  0.50528814  1
  O  O426  1  0.11827272  0.50841098  0.00348447  1
  O  O427  1  0.11802795  0.50548883  0.50349187  1
  O  O428  1  0.61840184  -0.00132635  0.00621777  1
  O  O429  1  0.61764538  0.00309133  0.50390788  1
  O  O430  1  0.61897772  0.50651180  -0.00145994  1
  O  O431  1  0.61872034  0.50050504  0.50704710  1
  O  O432  1  0.36879375  0.36983058  0.12069307  1
  O  O433  1  0.36270940  0.37312256  0.62250888  1
  O  O434  1  0.36788717  0.86943071  0.11919466  1
  O  O435  1  0.36117865  0.87521714  0.62266130  1
  O  O436  1  0.86287156  0.37244646  0.12429415  1
  O  O437  1  0.87247040  0.37169460  0.61598492  1
  O  O438  1  0.86920430  0.86984386  0.12034538  1
  O  O439  1  0.86469210  0.87263671  0.62192092  1
  O  O440  1  0.12738211  0.13214772  0.38191727  1
  O  O441  1  0.13055585  0.13078356  0.88147556  1
  O  O442  1  0.12934915  0.63035344  0.37999925  1
  O  O443  1  0.13560830  0.62684880  0.88187130  1
  O  O444  1  0.63264673  0.12367713  0.38145420  1
  O  O445  1  0.63240772  0.13301030  0.87776927  1
  O  O446  1  0.63382873  0.62665531  0.37723303  1
  O  O447  1  0.63123781  0.63103841  0.87884608  1
