# generated using pymatgen
data_V3Zn3O8
_symmetry_space_group_name_H-M   'P 1'
_cell_length_a   17.08947666
_cell_length_b   17.09006400
_cell_length_c   17.09002163
_cell_angle_alpha   89.99478313
_cell_angle_beta   90.00028812
_cell_angle_gamma   89.99260053
_symmetry_Int_Tables_number   1
_chemical_formula_structural   V3Zn3O8
_chemical_formula_sum   'V96 Zn96 O256'
_cell_volume   4991.31592373
_cell_formula_units_Z   32
loop_
 _symmetry_equiv_pos_site_id
 _symmetry_equiv_pos_as_xyz
  1  'x, y, z'
loop_
 _atom_site_type_symbol
 _atom_site_label
 _atom_site_symmetry_multiplicity
 _atom_site_fract_x
 _atom_site_fract_y
 _atom_site_fract_z
 _atom_site_occupancy
  V  V0  1  0.87562457  0.87415694  0.00105708  1
  V  V1  1  0.24947382  0.37573674  0.12679171  1
  V  V2  1  0.87483279  0.24914901  0.12517331  1
  V  V3  1  0.37358232  0.37416357  0.50186835  1
  V  V4  1  0.00071445  0.74834201  0.24878982  1
  V  V5  1  0.62582603  0.62474956  0.49966974  1
  V  V6  1  0.00177169  -0.00072605  -0.00041897  1
  V  V7  1  0.37430812  0.50051996  0.37538164  1
  V  V8  1  0.37605187  0.74986296  0.62461898  1
  V  V9  1  0.37413161  0.12450571  0.75095617  1
  V  V10  1  0.75112323  0.00014883  0.74942770  1
  V  V11  1  0.12486432  0.62489004  -0.00026963  1
  V  V12  1  0.12519602  -0.00102633  0.62471020  1
  V  V13  1  0.37553166  0.87483730  0.49966206  1
  V  V14  1  0.37614372  0.62458990  0.75058192  1
  V  V15  1  0.74986302  0.50021095  0.75023132  1
  V  V16  1  0.00170612  0.75002308  0.74917572  1
  V  V17  1  0.12560443  0.37592596  0.75000076  1
  V  V18  1  0.49950148  -0.00024096  0.49972947  1
  V  V19  1  0.50039434  0.75019161  0.24891919  1
  V  V20  1  0.49983708  0.49970804  0.50042500  1
  V  V21  1  0.24843199  0.25049678  0.00003953  1
  V  V22  1  0.75018572  0.37482660  0.62575784  1
  V  V23  1  0.87455972  0.25077928  0.62490228  1
  V  V24  1  0.24870291  0.24952444  0.50093572  1
  V  V25  1  0.74880330  0.12587532  0.87513775  1
  V  V26  1  0.50029558  0.50080275  0.00150023  1
  V  V27  1  0.25069373  0.74912922  0.49906876  1
  V  V28  1  0.24923150  0.49961297  0.25139433  1
  V  V29  1  -0.00003541  0.12432828  0.12364502  1
  V  V30  1  0.75044951  0.62507530  0.37437198  1
  V  V31  1  -0.00044289  0.37431201  0.87518138  1
  V  V32  1  0.37636726  0.49990033  0.87626551  1
  V  V33  1  0.87475426  0.12494495  0.74860697  1
  V  V34  1  0.50143490  0.12334213  0.12415200  1
  V  V35  1  0.87552935  0.49891074  0.37550255  1
  V  V36  1  0.12558801  0.50018605  0.62555968  1
  V  V37  1  0.12475411  0.87429391  0.24979256  1
  V  V38  1  0.75092918  0.87450651  0.62383021  1
  V  V39  1  0.00247245  0.87501271  0.87316016  1
  V  V40  1  -0.00162661  0.24896250  0.25098790  1
  V  V41  1  0.00087858  0.62482438  0.62427126  1
  V  V42  1  0.12557805  0.24977617  0.87623574  1
  V  V43  1  0.62470541  0.37638210  0.25148660  1
  V  V44  1  0.74985197  0.49978267  0.24965185  1
  V  V45  1  0.25104475  0.87527476  0.12445901  1
  V  V46  1  0.62593577  0.87476070  0.75065678  1
  V  V47  1  0.37351574  0.25107188  0.12646062  1
  V  V48  1  0.62514653  0.75060126  0.37340163  1
  V  V49  1  0.49954699  0.37553456  0.37649692  1
  V  V50  1  0.12487975  -0.00002212  0.12412696  1
  V  V51  1  0.00003025  0.87559890  0.37447501  1
  V  V52  1  0.37523425  0.37696570  0.00148934  1
  V  V53  1  0.37469005  0.00011790  0.37472437  1
  V  V54  1  -0.00093992  -0.00063187  0.49829607  1
  V  V55  1  0.62414204  0.37471362  0.75180926  1
  V  V56  1  0.87661283  0.62449107  0.24927523  1
  V  V57  1  0.62517939  0.62481844  0.00154103  1
  V  V58  1  0.62515297  0.49997335  0.62565241  1
  V  V59  1  0.25002273  0.62446919  0.37534905  1
  V  V60  1  0.00003770  0.50043610  0.00029477  1
  V  V61  1  0.12429588  0.12529611  0.49927209  1
  V  V62  1  0.62414820  0.12558667  0.50016732  1
  V  V63  1  0.87578888  0.62453780  0.74896936  1
  V  V64  1  0.50081183  0.62504371  0.62536465  1
  V  V65  1  0.37463661  0.00008517  0.87521850  1
  V  V66  1  0.87531945  0.87499320  0.49874648  1
  V  V67  1  0.25070997  0.62573088  0.87549032  1
  V  V68  1  0.62508508  -0.00015098  0.62461071  1
  V  V69  1  0.25027982  0.87534062  0.62471329  1
  V  V70  1  0.12325692  0.37430963  0.25121821  1
  V  V71  1  0.87488563  0.49905980  0.87474122  1
  V  V72  1  0.87602920  0.37611955  0.49987293  1
  V  V73  1  0.87427433  0.37498752  0.00011699  1
  V  V74  1  0.62346559  0.25011567  0.37776032  1
  V  V75  1  0.25069413  0.49978283  0.74981909  1
  V  V76  1  0.74953387  0.12323418  0.37245003  1
  V  V77  1  -0.00087664  0.12421758  0.62418610  1
  V  V78  1  0.25000201  -0.00000652  0.74958061  1
  V  V79  1  0.49875787  0.12443044  0.62618541  1
  V  V80  1  0.74884777  0.37459982  0.12592931  1
  V  V81  1  0.49754184  0.25103964  0.25202316  1
  V  V82  1  0.49951034  0.25080001  0.75204850  1
  V  V83  1  0.74945699  0.24914077  -0.00050580  1
  V  V84  1  0.75190675  0.75150263  -0.00053755  1
  V  V85  1  0.37473728  0.74905587  0.12434757  1
  V  V86  1  0.50013262  0.87658666  0.87425211  1
  V  V87  1  0.37372932  0.12492810  0.25145065  1
  V  V88  1  0.25024430  0.00000672  0.25023102  1
  V  V89  1  0.50145413  0.75076188  0.75018958  1
  V  V90  1  0.12573226  0.62439006  0.50045531  1
  V  V91  1  0.37585315  0.87636915  -0.00075060  1
  V  V92  1  0.00073892  0.24975215  0.75005709  1
  V  V93  1  0.75062158  0.62460464  0.87507737  1
  V  V94  1  0.75091277  0.75030256  0.49942970  1
  V  V95  1  0.50129044  0.87440785  0.37443089  1
  Zn  Zn96  1  0.24864627  0.12432326  0.87637930  1
  Zn  Zn97  1  0.50145715  0.37438334  0.87784025  1
  Zn  Zn98  1  0.87210929  0.12153799  0.24897169  1
  Zn  Zn99  1  0.12332960  0.50108151  0.12621821  1
  Zn  Zn100  1  0.24937057  0.75012202  -0.00175006  1
  Zn  Zn101  1  0.37265483  0.25106683  0.62707026  1
  Zn  Zn102  1  0.62899955  0.87704263  0.24506077  1
  Zn  Zn103  1  0.74771935  0.87848872  0.12486936  1
  Zn  Zn104  1  0.75099174  -0.00521991  0.24584015  1
  Zn  Zn105  1  -0.00042029  0.37477626  0.37615938  1
  Zn  Zn106  1  0.74924017  0.24942272  0.50097295  1
  Zn  Zn107  1  0.25051740  0.37488543  0.62600940  1
  Zn  Zn108  1  0.12627804  0.12455826  -0.00145533  1
  Zn  Zn109  1  0.24774311  0.12455871  0.37488067  1
  Zn  Zn110  1  -0.00024648  0.62336566  0.12447273  1
  Zn  Zn111  1  0.62546116  0.75161403  0.87464270  1
  Zn  Zn112  1  0.12275004  0.24782972  0.37591113  1
  Zn  Zn113  1  0.87568038  0.74809274  0.12478464  1
  Zn  Zn114  1  0.12646044  0.87433020  0.74936704  1
  Zn  Zn115  1  0.87544772  0.74927871  0.62335610  1
  Zn  Zn116  1  0.62383147  0.25163411  0.87811231  1
  Zn  Zn117  1  0.37371675  0.62404630  0.24911160  1
  Zn  Zn118  1  0.00168362  0.50064994  0.49866784  1
  Zn  Zn119  1  0.12675994  0.74949681  0.37491240  1
  Zn  Zn120  1  0.62406072  0.12513432  0.00081129  1
  Zn  Zn121  1  0.50233968  0.00120907  0.00000493  1
  Zn  Zn122  1  0.87346778  0.00027594  0.37155325  1
  Zn  Zn123  1  0.12857444  0.75016206  0.87468031  1
  Zn  Zn124  1  0.62869328  -0.00215997  0.12315369  1
  Zn  Zn125  1  0.62317103  0.50029846  0.12656403  1
  Zn  Zn126  1  0.49946844  0.62433069  0.12602647  1
  Zn  Zn127  1  0.87665205  0.00061346  0.87346923  1
  Zn  Zn128  1  0.18614537  0.18638088  0.18628606  1
  Zn  Zn129  1  0.18719402  0.18624482  0.68709090  1
  Zn  Zn130  1  0.18724317  0.68629115  0.18655377  1
  Zn  Zn131  1  0.18798538  0.68720523  0.68714815  1
  Zn  Zn132  1  0.68496412  0.18966822  0.18955920  1
  Zn  Zn133  1  0.68650452  0.18842972  0.68813598  1
  Zn  Zn134  1  0.68924644  0.69040683  0.18567098  1
  Zn  Zn135  1  0.68809842  0.68877768  0.68681022  1
  Zn  Zn136  1  0.31054654  0.31228434  0.31615542  1
  Zn  Zn137  1  0.31256063  0.31343155  0.81504191  1
  Zn  Zn138  1  0.31313836  0.81246532  0.31190064  1
  Zn  Zn139  1  0.31315052  0.81275465  0.81240615  1
  Zn  Zn140  1  0.81078007  0.31005213  0.31403368  1
  Zn  Zn141  1  0.81217875  0.31151417  0.81219540  1
  Zn  Zn142  1  0.81411433  0.81336431  0.31154175  1
  Zn  Zn143  1  0.81477097  0.81199869  0.81300252  1
  Zn  Zn144  1  0.18682725  0.43636296  0.43755286  1
  Zn  Zn145  1  0.18794003  0.43842775  0.93731558  1
  Zn  Zn146  1  0.18667180  0.93710718  0.43654469  1
  Zn  Zn147  1  0.18868443  0.93702710  0.93769792  1
  Zn  Zn148  1  0.68902554  0.43763233  0.43779771  1
  Zn  Zn149  1  0.68615993  0.43735017  0.93786120  1
  Zn  Zn150  1  0.68690824  0.93780628  0.43539287  1
  Zn  Zn151  1  0.68491213  0.94236484  0.93889139  1
  Zn  Zn152  1  0.31342152  0.06382284  0.06168223  1
  Zn  Zn153  1  0.31242188  0.06401755  0.56336537  1
  Zn  Zn154  1  0.31026766  0.56253722  0.06374560  1
  Zn  Zn155  1  0.31196781  0.56194583  0.56288281  1
  Zn  Zn156  1  0.81415733  0.06083886  0.06212058  1
  Zn  Zn157  1  0.81193721  0.06200057  0.55912964  1
  Zn  Zn158  1  0.81320549  0.56239208  0.06480833  1
  Zn  Zn159  1  0.81371666  0.56241959  0.56275636  1
  Zn  Zn160  1  0.43768753  0.43927856  0.18739500  1
  Zn  Zn161  1  0.43705878  0.43608039  0.68728129  1
  Zn  Zn162  1  0.43839315  0.93754754  0.18787248  1
  Zn  Zn163  1  0.43712984  0.93783732  0.68836440  1
  Zn  Zn164  1  0.93713605  0.43789352  0.18589016  1
  Zn  Zn165  1  0.93903125  0.43839593  0.68679224  1
  Zn  Zn166  1  0.93505472  0.93902599  0.18812671  1
  Zn  Zn167  1  0.93622509  0.93725036  0.68522568  1
  Zn  Zn168  1  0.06285412  0.06265285  0.31276372  1
  Zn  Zn169  1  0.06488589  0.06277431  0.81207340  1
  Zn  Zn170  1  0.06245252  0.56119605  0.31572798  1
  Zn  Zn171  1  0.06333879  0.56248117  0.81371446  1
  Zn  Zn172  1  0.56544917  0.06061357  0.30900945  1
  Zn  Zn173  1  0.56322803  0.06198319  0.81264294  1
  Zn  Zn174  1  0.56180752  0.56373461  0.31245306  1
  Zn  Zn175  1  0.56277291  0.56224313  0.81562687  1
  Zn  Zn176  1  0.43479883  0.18696183  0.43870445  1
  Zn  Zn177  1  0.43387931  0.18795265  0.93808695  1
  Zn  Zn178  1  0.43714146  0.68650425  0.43634273  1
  Zn  Zn179  1  0.43891599  0.68905238  0.93756405  1
  Zn  Zn180  1  0.93510863  0.18778507  0.43705285  1
  Zn  Zn181  1  0.93686970  0.18622475  0.93780045  1
  Zn  Zn182  1  0.93844127  0.68813791  0.43611230  1
  Zn  Zn183  1  0.93892815  0.68738105  0.93487838  1
  Zn  Zn184  1  0.06250713  0.31272019  0.06370698  1
  Zn  Zn185  1  0.06277281  0.31293824  0.56422532  1
  Zn  Zn186  1  0.06359274  0.81081152  0.06289805  1
  Zn  Zn187  1  0.06384372  0.81188978  0.56164424  1
  Zn  Zn188  1  0.56294566  0.31109482  0.06369747  1
  Zn  Zn189  1  0.56124646  0.31171177  0.56503127  1
  Zn  Zn190  1  0.56330905  0.81425791  0.06090222  1
  Zn  Zn191  1  0.56413998  0.81266330  0.56205690  1
  O  O192  1  0.11795095  0.11732229  0.12264037  1
  O  O193  1  0.11759114  0.11877589  0.61953658  1
  O  O194  1  0.12371555  0.62208377  0.11271152  1
  O  O195  1  0.12070023  0.61940692  0.62018442  1
  O  O196  1  0.60977764  0.12964458  0.12633077  1
  O  O197  1  0.61935837  0.11879333  0.62070024  1
  O  O198  1  0.62550914  0.62455964  0.11166243  1
  O  O199  1  0.62041922  0.61942480  0.61945683  1
  O  O200  1  0.38058853  0.38082154  0.38178468  1
  O  O201  1  0.37652423  0.38293470  0.88374409  1
  O  O202  1  0.38120696  0.87988178  0.38088483  1
  O  O203  1  0.38043757  0.88044050  0.87920345  1
  O  O204  1  0.87274063  0.37962008  0.38520407  1
  O  O205  1  0.87977985  0.37963177  0.87990309  1
  O  O206  1  0.88273825  0.87590889  0.38247905  1
  O  O207  1  0.88672624  0.87543158  0.88236700  1
  O  O208  1  0.25710819  -0.00020992  0.36813720  1
  O  O209  1  0.25614323  0.00005065  0.86741984  1
  O  O210  1  0.25540092  0.50421174  0.37080832  1
  O  O211  1  0.25686267  0.50592492  0.86920872  1
  O  O212  1  0.74925563  0.01286677  0.37471814  1
  O  O213  1  0.75295864  0.00974308  0.86776589  1
  O  O214  1  0.75495368  0.50608328  0.36925088  1
  O  O215  1  0.75593744  0.50469183  0.86938298  1
  O  O216  1  0.24824412  0.49261570  0.13337343  1
  O  O217  1  0.24358914  0.50000137  0.63282913  1
  O  O218  1  0.24590380  0.99450657  0.13079570  1
  O  O219  1  0.24534765  0.99420436  0.62906992  1
  O  O220  1  0.74872504  0.49212346  0.13221853  1
  O  O221  1  0.74429837  0.49548858  0.63129639  1
  O  O222  1  0.74845649  0.99756153  0.12597410  1
  O  O223  1  0.74401590  0.99480657  0.62924100  1
  O  O224  1  0.00703632  0.36562998  0.24803478  1
  O  O225  1  0.00474382  0.36955148  0.75572824  1
  O  O226  1  0.00464707  0.86702696  0.25381687  1
  O  O227  1  -0.00089697  0.86731726  0.75654564  1
  O  O228  1  0.50393752  0.37093241  0.25738442  1
  O  O229  1  0.50471459  0.36602881  0.75068064  1
  O  O230  1  0.49864091  0.86310792  0.25624079  1
  O  O231  1  0.50595121  0.86995024  0.75341797  1
  O  O232  1  0.49281816  0.13236769  0.24465687  1
  O  O233  1  0.49536522  0.13222125  0.74574578  1
  O  O234  1  0.49673071  0.63747796  0.24928128  1
  O  O235  1  0.49604377  0.62982407  0.74473761  1
  O  O236  1  1.00055679  0.13564602  0.24362628  1
  O  O237  1  0.99469095  0.13005167  0.74375765  1
  O  O238  1  0.99633558  0.63307684  0.25122666  1
  O  O239  1  0.99586361  0.63208506  0.74614072  1
  O  O240  1  0.36849879  0.25776402  0.00653557  1
  O  O241  1  0.36580913  0.25492932  0.50221954  1
  O  O242  1  0.37491398  0.75606446  0.00991051  1
  O  O243  1  0.37134858  0.75498715  0.50566461  1
  O  O244  1  0.87009843  0.25654674  0.00520159  1
  O  O245  1  0.87339026  0.26001857  0.50689822  1
  O  O246  1  0.86874719  0.75662104  -0.00255444  1
  O  O247  1  0.86820861  0.75590889  0.50046666  1
  O  O248  1  0.13165290  0.24485846  0.50016576  1
  O  O249  1  0.13055475  0.25126465  0.99411996  1
  O  O250  1  0.13359217  0.74293635  0.49911274  1
  O  O251  1  0.12658814  0.73813050  0.99748806  1
  O  O252  1  0.62411322  0.24375652  0.49564254  1
  O  O253  1  0.63341191  0.24648501  0.99764065  1
  O  O254  1  0.63017741  0.74354542  0.49423825  1
  O  O255  1  0.63447456  0.74182837  0.99605275  1
  O  O256  1  0.49210564  0.24503429  0.13287562  1
  O  O257  1  0.49811161  0.24358394  0.63646309  1
  O  O258  1  0.49080346  0.74984460  0.13264812  1
  O  O259  1  0.49567746  0.74452033  0.62948510  1
  O  O260  1  0.99489524  0.24549840  0.13206421  1
  O  O261  1  0.99473006  0.24401386  0.63114989  1
  O  O262  1  0.99951410  0.74805631  0.13796328  1
  O  O263  1  0.99934226  0.74455952  0.63420634  1
  O  O264  1  -0.00018524  0.25238335  0.36284340  1
  O  O265  1  0.00418829  0.25558275  0.86940320  1
  O  O266  1  0.00292336  0.75561281  0.36406570  1
  O  O267  1  0.00154622  0.75786405  0.86488695  1
  O  O268  1  0.50300904  0.25626473  0.37165113  1
  O  O269  1  0.50073774  0.25054770  0.86323150  1
  O  O270  1  0.50397076  0.75402379  0.36787786  1
  O  O271  1  0.50108560  0.75756322  0.86680926  1
  O  O272  1  0.24345410  0.13295533  0.50037388  1
  O  O273  1  0.24800267  0.13484979  0.99875689  1
  O  O274  1  0.24585056  0.63006938  0.49553216  1
  O  O275  1  0.24098217  0.62479016  0.99379954  1
  O  O276  1  0.74193167  0.12693486  0.49220511  1
  O  O277  1  0.75343585  0.13141234  0.98858123  1
  O  O278  1  0.74496311  0.62921123  0.49464648  1
  O  O279  1  0.74526281  0.63115210  0.99473561  1
  O  O280  1  0.25516541  0.37155578  0.00705305  1
  O  O281  1  0.25451728  0.36595531  0.50123890  1
  O  O282  1  0.25701660  0.87244515  0.00692698  1
  O  O283  1  0.25654745  0.86957234  0.50488710  1
  O  O284  1  0.75545456  0.37002864  0.00511041  1
  O  O285  1  0.75949528  0.37485071  0.50729168  1
  O  O286  1  0.76063021  0.86651556  -0.00715762  1
  O  O287  1  0.75436732  0.86995344  0.50414011  1
  O  O288  1  0.12945458  0.48971381  0.24985365  1
  O  O289  1  0.13087482  0.49546077  0.74634160  1
  O  O290  1  0.12987309  0.99385485  0.24360907  1
  O  O291  1  0.13124928  0.99808387  0.74186314  1
  O  O292  1  0.63145497  0.49435581  0.25055180  1
  O  O293  1  0.63011278  0.49593224  0.74489672  1
  O  O294  1  0.62919635  0.99561599  0.24448990  1
  O  O295  1  0.63123893  0.99441307  0.74323971  1
  O  O296  1  0.36953753  0.00453700  0.25559772  1
  O  O297  1  0.36949947  0.00453960  0.75480648  1
  O  O298  1  0.36810461  0.50043182  0.25797437  1
  O  O299  1  0.37143806  0.50591356  0.75527972  1
  O  O300  1  0.87135547  0.00461005  0.25428914  1
  O  O301  1  0.86880705  0.00704554  0.74966917  1
  O  O302  1  0.86911556  0.50383024  0.25574850  1
  O  O303  1  0.86943344  0.50426657  0.75519398  1
  O  O304  1  0.12221741  0.37183338  0.36263620  1
  O  O305  1  0.11846266  0.37066795  0.86940101  1
  O  O306  1  0.11874184  0.87270877  0.36755975  1
  O  O307  1  0.11346867  0.87223171  0.87318970  1
  O  O308  1  0.61881385  0.37083840  0.37183714  1
  O  O309  1  0.62254499  0.37292639  0.86693699  1
  O  O310  1  0.61736402  0.86655251  0.37523505  1
  O  O311  1  0.61902512  0.87509925  0.86721977  1
  O  O312  1  0.38106798  0.13231297  0.13215173  1
  O  O313  1  0.38238017  0.12525656  0.63256652  1
  O  O314  1  0.37520515  0.63740671  0.12629117  1
  O  O315  1  0.38168560  0.62985919  0.63023601  1
  O  O316  1  0.88257375  0.13292226  0.12575106  1
  O  O317  1  0.87957064  0.13065170  0.62852310  1
  O  O318  1  0.87864931  0.62731641  0.13331912  1
  O  O319  1  0.88178373  0.62590433  0.63180723  1
  O  O320  1  0.25474643  0.25641462  0.12120549  1
  O  O321  1  0.25052568  0.25162765  0.61349067  1
  O  O322  1  0.26025504  0.75653363  0.12579247  1
  O  O323  1  0.25724552  0.75445557  0.61962185  1
  O  O324  1  0.75530965  0.25495522  0.12038982  1
  O  O325  1  0.75641283  0.25695908  0.62483223  1
  O  O326  1  0.75403857  0.75092521  0.10864263  1
  O  O327  1  0.75109877  0.75641970  0.61746083  1
  O  O328  1  0.24700475  0.24719110  0.38851961  1
  O  O329  1  0.24300385  0.25043057  0.88216824  1
  O  O330  1  0.25077820  0.74372835  0.38163942  1
  O  O331  1  0.24914467  0.74190713  0.87645027  1
  O  O332  1  0.74124118  0.24248965  0.37884388  1
  O  O333  1  0.75027058  0.24124065  0.87957103  1
  O  O334  1  0.74471720  0.74336774  0.38048507  1
  O  O335  1  0.75044609  0.74322923  0.88361074  1
  O  O336  1  0.00090328  0.11741885  0.00552106  1
  O  O337  1  0.00369058  0.12034433  0.50552757  1
  O  O338  1  0.00844311  0.61924415  -0.00212164  1
  O  O339  1  0.00704084  0.62523030  0.50636682  1
  O  O340  1  0.49768187  0.12743837  0.01256138  1
  O  O341  1  0.50387775  0.11893983  0.50578459  1
  O  O342  1  0.51061866  0.62128847  0.00002827  1
  O  O343  1  0.50584532  0.61960653  0.50537934  1
  O  O344  1  0.49506887  0.38078945  0.49581430  1
  O  O345  1  0.49315691  0.38142344  1.00117819  1
  O  O346  1  0.49475038  0.87985794  0.49536415  1
  O  O347  1  0.49257530  0.87611666  0.99153230  1
  O  O348  1  0.98731142  0.37645886  0.50003544  1
  O  O349  1  0.99376663  0.37948462  0.99430123  1
  O  O350  1  0.99586938  0.87925225  0.49486758  1
  O  O351  1  0.99485741  0.87678121  0.99146680  1
  O  O352  1  0.49511267  0.49529480  0.38135620  1
  O  O353  1  0.49319395  0.49887073  0.88292664  1
  O  O354  1  0.49456741  0.99442809  0.38068390  1
  O  O355  1  0.49221981  0.99392951  0.87339723  1
  O  O356  1  0.99086058  0.49559830  0.37808100  1
  O  O357  1  0.99368195  0.49340155  0.87917912  1
  O  O358  1  0.99957246  0.99340656  0.38182544  1
  O  O359  1  1.00013571  0.99020926  0.87862064  1
  O  O360  1  0.00572329  0.00412286  0.11937523  1
  O  O361  1  0.00496647  0.00497863  0.61866087  1
  O  O362  1  0.00223047  0.50169767  0.11566742  1
  O  O363  1  0.00756985  0.50758753  0.62472375  1
  O  O364  1  0.49607651  0.01451670  0.12503214  1
  O  O365  1  0.50554145  0.00418099  0.61985886  1
  O  O366  1  0.50227638  0.50489087  0.11847055  1
  O  O367  1  0.50578451  0.50574501  0.62009337  1
  O  O368  1  0.24140831  0.37834744  0.24719646  1
  O  O369  1  0.24363796  0.38199455  0.74985364  1
  O  O370  1  0.24524691  0.88035810  0.24433790  1
  O  O371  1  0.24960999  0.88084672  0.74214064  1
  O  O372  1  0.74439382  0.37953158  0.24627877  1
  O  O373  1  0.74553107  0.38102917  0.74497830  1
  O  O374  1  0.74840409  0.87269046  0.24426565  1
  O  O375  1  0.74664306  0.87964414  0.74485548  1
  O  O376  1  0.25581615  0.11829772  0.25044746  1
  O  O377  1  0.25644135  0.11780559  0.75027116  1
  O  O378  1  0.25003515  0.61772894  0.25698298  1
  O  O379  1  0.25711409  0.61983013  0.75473243  1
  O  O380  1  0.74927354  0.12909598  0.26328720  1
  O  O381  1  0.75515754  0.12077547  0.75544209  1
  O  O382  1  0.75544610  0.62086293  0.25538796  1
  O  O383  1  0.75489798  0.61963609  0.75444970  1
  O  O384  1  0.37348109  0.11744837  0.36896957  1
  O  O385  1  0.37250961  0.11814752  0.86816465  1
  O  O386  1  0.36817878  0.61757632  0.37451794  1
  O  O387  1  0.37122611  0.61989798  0.86974688  1
  O  O388  1  0.86183877  0.12536837  0.37478224  1
  O  O389  1  0.86598423  0.12468398  0.86696929  1
  O  O390  1  0.86912321  0.61903387  0.36992717  1
  O  O391  1  0.87060435  0.61792974  0.86866712  1
  O  O392  1  0.13047709  0.37571814  0.13619269  1
  O  O393  1  0.12547741  0.38222500  0.63303224  1
  O  O394  1  0.13079039  0.88006021  0.12998461  1
  O  O395  1  0.13246521  0.88144373  0.62494947  1
  O  O396  1  0.63134209  0.37543322  0.13386263  1
  O  O397  1  0.63004277  0.38147236  0.63049533  1
  O  O398  1  0.62794005  0.87704692  0.12570433  1
  O  O399  1  0.63078123  0.88068934  0.62985588  1
  O  O400  1  0.11590229  0.25768929  0.24936293  1
  O  O401  1  0.11936423  0.25561328  0.75475725  1
  O  O402  1  0.11721575  0.75539838  0.25072462  1
  O  O403  1  0.11337248  0.75115308  0.75131323  1
  O  O404  1  0.61664845  0.25775306  0.25833586  1
  O  O405  1  0.61471976  0.25568648  0.75044209  1
  O  O406  1  0.61510116  0.74886119  0.25528511  1
  O  O407  1  0.61949082  0.75642880  0.75110472  1
  O  O408  1  0.37822655  0.24623031  0.24674014  1
  O  O409  1  0.38331960  0.24491823  0.74990510  1
  O  O410  1  0.38299779  0.74995916  0.24119393  1
  O  O411  1  0.38163474  0.74421350  0.74331684  1
  O  O412  1  0.88434136  0.25074664  0.24373930  1
  O  O413  1  0.88143136  0.24545455  0.74397148  1
  O  O414  1  0.88585512  0.74316283  0.24982410  1
  O  O415  1  0.88570061  0.74335174  0.74862476  1
  O  O416  1  0.38065579  0.49495507  0.49535496  1
  O  O417  1  0.37992486  0.49645519  0.99620283  1
  O  O418  1  0.38036158  0.99430665  0.49547288  1
  O  O419  1  0.37668762  0.99358058  0.99321784  1
  O  O420  1  0.87537882  0.49109514  0.49527143  1
  O  O421  1  0.87884530  0.49422134  0.99356855  1
  O  O422  1  0.88228146  0.99293561  0.49808509  1
  O  O423  1  0.88347443  0.98934837  0.99566254  1
  O  O424  1  0.11909161  -0.00053006  0.00700124  1
  O  O425  1  0.11947284  0.00493533  0.50574064  1
  O  O426  1  0.11883461  0.50858059  -0.00042419  1
  O  O427  1  0.12440540  0.50579266  0.50698563  1
  O  O428  1  0.61914908  0.00856752  0.00357577  1
  O  O429  1  0.61801290  0.00504206  0.50563358  1
  O  O430  1  0.62050350  0.50927939  0.00136661  1
  O  O431  1  0.61993432  0.50510175  0.50558060  1
  O  O432  1  0.36897775  0.36990021  0.12170994  1
  O  O433  1  0.37177187  0.37293123  0.61714060  1
  O  O434  1  0.37102099  0.86756634  0.12033293  1
  O  O435  1  0.37085725  0.86953582  0.61894087  1
  O  O436  1  0.86851246  0.36914444  0.11910713  1
  O  O437  1  0.87029779  0.37156399  0.61882249  1
  O  O438  1  0.87782441  0.87101695  0.10849108  1
  O  O439  1  0.86799415  0.87270041  0.61727410  1
  O  O440  1  0.12730148  0.12705883  0.38368569  1
  O  O441  1  0.12703388  0.13399762  0.87737284  1
  O  O442  1  0.13278550  0.62578745  0.38277806  1
  O  O443  1  0.13151130  0.62499833  0.88382705  1
  O  O444  1  0.62907021  0.13105893  0.38129948  1
  O  O445  1  0.63911621  0.12769398  0.87272699  1
  O  O446  1  0.63064770  0.63007997  0.38092731  1
  O  O447  1  0.63223486  0.62595404  0.88524014  1
