# generated using pymatgen
data_V3Zn3O8
_symmetry_space_group_name_H-M   'P 1'
_cell_length_a   17.09124722
_cell_length_b   17.09056686
_cell_length_c   17.09220729
_cell_angle_alpha   89.99268851
_cell_angle_beta   90.00556184
_cell_angle_gamma   90.00333467
_symmetry_Int_Tables_number   1
_chemical_formula_structural   V3Zn3O8
_chemical_formula_sum   'V96 Zn96 O256'
_cell_volume   4992.61835363
_cell_formula_units_Z   32
loop_
 _symmetry_equiv_pos_site_id
 _symmetry_equiv_pos_as_xyz
  1  'x, y, z'
loop_
 _atom_site_type_symbol
 _atom_site_label
 _atom_site_symmetry_multiplicity
 _atom_site_fract_x
 _atom_site_fract_y
 _atom_site_fract_z
 _atom_site_occupancy
  V  V0  1  0.49949858  0.62537966  0.62475147  1
  V  V1  1  0.74931803  0.49989822  0.74979290  1
  V  V2  1  0.75041630  0.25082511  0.00091413  1
  V  V3  1  0.12559950  -0.00009912  0.12459027  1
  V  V4  1  0.87502297  0.00001051  0.37577426  1
  V  V5  1  0.87560656  0.24948754  0.62622195  1
  V  V6  1  0.50076790  0.37442570  0.37363479  1
  V  V7  1  0.37375597  0.12467742  0.74983088  1
  V  V8  1  0.87579309  0.74943269  0.12630441  1
  V  V9  1  0.25004396  0.00013926  0.25091572  1
  V  V10  1  0.87483215  0.50015964  0.37527841  1
  V  V11  1  0.87520964  0.62543735  0.75069124  1
  V  V12  1  0.75001114  0.12517385  0.37566391  1
  V  V13  1  0.62467942  0.75055225  0.37451826  1
  V  V14  1  0.25063692  0.50069281  0.74959977  1
  V  V15  1  0.87509441  0.87520656  0.00071509  1
  V  V16  1  0.74999672  0.62508509  0.37526454  1
  V  V17  1  0.62432323  0.25103938  0.37427182  1
  V  V18  1  0.37451295  0.87468560  -0.00114004  1
  V  V19  1  0.00115911  0.87375622  0.37412365  1
  V  V20  1  0.75001826  0.37515408  0.12524107  1
  V  V21  1  0.50160705  0.00158309  0.00209934  1
  V  V22  1  0.49934753  0.87422714  0.87426394  1
  V  V23  1  0.37474243  0.00004497  0.87403633  1
  V  V24  1  0.25143062  0.62394129  0.87390123  1
  V  V25  1  0.12467630  0.49926011  0.62448111  1
  V  V26  1  0.50014312  0.50012566  0.49947556  1
  V  V27  1  0.62477002  0.75027137  0.87485569  1
  V  V28  1  0.24904655  0.87454474  0.62382915  1
  V  V29  1  0.49973270  0.74925294  0.74916153  1
  V  V30  1  0.37562924  0.74904867  0.12480889  1
  V  V31  1  0.37440235  0.25006895  0.62394947  1
  V  V32  1  0.12697583  0.12581102  0.50017104  1
  V  V33  1  0.75063866  0.12468334  0.87536216  1
  V  V34  1  0.00002636  0.62416655  0.62511651  1
  V  V35  1  0.62547923  0.49995502  0.62500087  1
  V  V36  1  0.62569573  0.87625637  0.74889125  1
  V  V37  1  0.74987333  0.24997073  0.50059425  1
  V  V38  1  0.37546885  0.37620496  -0.00314309  1
  V  V39  1  0.37540982  0.49949895  0.37406811  1
  V  V40  1  0.12517793  0.24967794  0.37477438  1
  V  V41  1  0.62560485  -0.00013058  0.62679772  1
  V  V42  1  -0.00044620  0.12543870  0.62734843  1
  V  V43  1  0.12499872  0.62526877  0.49888647  1
  V  V44  1  0.87373837  0.75066308  0.62501610  1
  V  V45  1  0.87472176  0.37496160  0.50030206  1
  V  V46  1  -0.00113878  -0.00007641  0.49999620  1
  V  V47  1  0.24870377  0.12512567  0.87454852  1
  V  V48  1  0.87538022  0.50008656  0.87590524  1
  V  V49  1  0.74976546  0.37538552  0.62582581  1
  V  V50  1  0.74954927  -0.00009979  0.25019018  1
  V  V51  1  0.49939666  0.12506366  0.62498903  1
  V  V52  1  0.00086802  0.37425822  0.87536588  1
  V  V53  1  0.12486747  0.87547861  0.74922010  1
  V  V54  1  0.37588946  0.75021793  0.62411298  1
  V  V55  1  0.87571979  0.62565871  0.25021196  1
  V  V56  1  0.87456248  0.25029619  0.12607370  1
  V  V57  1  0.75058149  0.75096324  0.50164296  1
  V  V58  1  0.37460675  0.37421641  0.49993080  1
  V  V59  1  -0.00016753  0.24955145  0.25018175  1
  V  V60  1  0.00031824  0.37416701  0.37497507  1
  V  V61  1  0.25062961  0.49946236  0.24916163  1
  V  V62  1  0.24980548  0.62531732  0.37521073  1
  V  V63  1  0.75023163  0.62496181  0.87537075  1
  V  V64  1  0.87473080  -0.00027713  0.87462872  1
  V  V65  1  0.37512065  0.87577169  0.49922159  1
  V  V66  1  0.62468501  0.12515428  0.50080270  1
  V  V67  1  0.00009884  0.74925213  0.75031059  1
  V  V68  1  0.75014647  0.75037018  0.00046021  1
  V  V69  1  0.24980459  0.87488765  0.12458814  1
  V  V70  1  0.87505155  0.12562410  0.25036961  1
  V  V71  1  0.49945891  0.62642662  0.12503927  1
  V  V72  1  0.62511486  0.62537622  0.00015674  1
  V  V73  1  0.74952888  0.87556770  0.12636301  1
  V  V74  1  0.00010563  0.62451045  0.12577561  1
  V  V75  1  0.50063428  0.25028271  0.75030213  1
  V  V76  1  0.74923261  0.49951432  0.24972025  1
  V  V77  1  0.37656278  0.12514461  0.24952687  1
  V  V78  1  0.50007672  0.49976077  -0.00108468  1
  V  V79  1  0.49975388  -0.00012881  0.49944363  1
  V  V80  1  0.24955269  0.75000887  -0.00066111  1
  V  V81  1  0.12506639  0.49959745  0.12540575  1
  V  V82  1  0.62594821  0.50002294  0.12504619  1
  V  V83  1  0.25014313  0.37465945  0.62414254  1
  V  V84  1  -0.00008579  -0.00050660  0.00129574  1
  V  V85  1  -0.00055746  0.49970908  0.50005163  1
  V  V86  1  0.62415173  0.25119072  0.87521697  1
  V  V87  1  0.49982714  0.87509710  0.37496292  1
  V  V88  1  0.37652801  0.24937211  0.12375855  1
  V  V89  1  0.25006717  0.37619063  0.12485254  1
  V  V90  1  0.12572085  0.74979906  0.87471066  1
  V  V91  1  0.00054266  0.50070132  0.00110426  1
  V  V92  1  0.12414361  0.37465085  0.75034506  1
  V  V93  1  0.62482192  0.62523276  0.49916556  1
  V  V94  1  0.12516174  0.12618757  0.00023762  1
  V  V95  1  0.62497929  0.87546519  0.25033456  1
  Zn  Zn96  1  0.62418764  0.12485543  0.00327584  1
  Zn  Zn97  1  0.62319684  0.37358170  0.24904343  1
  Zn  Zn98  1  0.12439216  0.00042474  0.62555807  1
  Zn  Zn99  1  0.00001053  0.87355372  0.87567944  1
  Zn  Zn100  1  0.37651941  0.62643896  0.24997053  1
  Zn  Zn101  1  0.87387658  0.87570102  0.50229862  1
  Zn  Zn102  1  0.62353554  0.37545906  0.74939957  1
  Zn  Zn103  1  0.12564308  0.75094829  0.37319874  1
  Zn  Zn104  1  0.00310956  0.75026933  0.25015049  1
  Zn  Zn105  1  0.25084588  0.25008012  0.49800075  1
  Zn  Zn106  1  0.87580699  0.37487405  0.00080066  1
  Zn  Zn107  1  0.12432324  0.25017731  0.87447048  1
  Zn  Zn108  1  0.25179371  0.12624153  0.37639105  1
  Zn  Zn109  1  0.12552068  0.37312289  0.24972318  1
  Zn  Zn110  1  0.37523138  0.62360123  0.74809878  1
  Zn  Zn111  1  0.37758844  0.49985495  0.87156452  1
  Zn  Zn112  1  0.12553669  0.62575880  0.00166791  1
  Zn  Zn113  1  0.24855198  0.75110297  0.49726785  1
  Zn  Zn114  1  0.50020085  0.37765210  0.87210407  1
  Zn  Zn115  1  0.87586027  0.12566575  0.75077140  1
  Zn  Zn116  1  0.24893232  0.25157557  -0.00084156  1
  Zn  Zn117  1  0.37451679  0.00112230  0.37551217  1
  Zn  Zn118  1  -0.00035521  0.24904842  0.75219658  1
  Zn  Zn119  1  0.12483316  0.87275267  0.24969859  1
  Zn  Zn120  1  0.75141511  -0.00111056  0.74852117  1
  Zn  Zn121  1  0.62521572  0.00197052  0.12511611  1
  Zn  Zn122  1  0.75195802  0.87756042  0.62530782  1
  Zn  Zn123  1  0.24947665  -0.00034013  0.74937418  1
  Zn  Zn124  1  0.00004406  0.12546715  0.12606651  1
  Zn  Zn125  1  0.49891887  0.75010773  0.24996932  1
  Zn  Zn126  1  0.50233927  0.25034896  0.24887894  1
  Zn  Zn127  1  0.50368126  0.12576537  0.12490445  1
  Zn  Zn128  1  0.18935787  0.18852687  0.18708712  1
  Zn  Zn129  1  0.18625394  0.19096828  0.68857247  1
  Zn  Zn130  1  0.18608348  0.68786903  0.19000241  1
  Zn  Zn131  1  0.18751654  0.68799423  0.68665339  1
  Zn  Zn132  1  0.68600012  0.18658700  0.18723049  1
  Zn  Zn133  1  0.68790050  0.18685626  0.68981443  1
  Zn  Zn134  1  0.68722238  0.68813735  0.18840266  1
  Zn  Zn135  1  0.68699016  0.68811072  0.68728645  1
  Zn  Zn136  1  0.31173592  0.31175352  0.31205873  1
  Zn  Zn137  1  0.31115967  0.31089287  0.81102655  1
  Zn  Zn138  1  0.31417658  0.81168979  0.31145511  1
  Zn  Zn139  1  0.31276811  0.81059929  0.81055868  1
  Zn  Zn140  1  0.81140273  0.31305386  0.31168185  1
  Zn  Zn141  1  0.81426440  0.31246931  0.81078084  1
  Zn  Zn142  1  0.81418760  0.81303154  0.31382332  1
  Zn  Zn143  1  0.81134167  0.81387499  0.81156188  1
  Zn  Zn144  1  0.18744724  0.43743007  0.43677711  1
  Zn  Zn145  1  0.18733734  0.43959650  0.93880500  1
  Zn  Zn146  1  0.18620703  0.93974128  0.43703288  1
  Zn  Zn147  1  0.18732226  0.93815107  0.93707858  1
  Zn  Zn148  1  0.68694443  0.43708099  0.43762516  1
  Zn  Zn149  1  0.68812953  0.43623341  0.93867408  1
  Zn  Zn150  1  0.68754555  0.93670981  0.43883879  1
  Zn  Zn151  1  0.68690923  0.93663056  0.93784374  1
  Zn  Zn152  1  0.31318055  0.06183915  0.06239398  1
  Zn  Zn153  1  0.31220249  0.05977788  0.56385580  1
  Zn  Zn154  1  0.31269901  0.56291538  0.06151829  1
  Zn  Zn155  1  0.31299349  0.56196806  0.56130197  1
  Zn  Zn156  1  0.81203317  0.06364325  0.06322295  1
  Zn  Zn157  1  0.81256928  0.06193559  0.56296245  1
  Zn  Zn158  1  0.81373942  0.56199676  0.06240822  1
  Zn  Zn159  1  0.81244509  0.56376738  0.56266873  1
  Zn  Zn160  1  0.43856602  0.43807010  0.18755875  1
  Zn  Zn161  1  0.43729215  0.43722140  0.68825233  1
  Zn  Zn162  1  0.43728905  0.93589366  0.18736066  1
  Zn  Zn163  1  0.43789665  0.93782868  0.68730547  1
  Zn  Zn164  1  0.93736714  0.43627280  0.18850983  1
  Zn  Zn165  1  0.93665266  0.43760048  0.68870069  1
  Zn  Zn166  1  0.93785142  0.93842582  0.18839253  1
  Zn  Zn167  1  0.93805607  0.93720087  0.68777518  1
  Zn  Zn168  1  0.06234428  0.06229819  0.31300863  1
  Zn  Zn169  1  0.06179175  0.05944788  0.81345707  1
  Zn  Zn170  1  0.06383806  0.56105610  0.31048000  1
  Zn  Zn171  1  0.06423770  0.56155354  0.81294939  1
  Zn  Zn172  1  0.56236743  0.06188904  0.31290001  1
  Zn  Zn173  1  0.56256173  0.06293622  0.81330900  1
  Zn  Zn174  1  0.56191723  0.56295987  0.31026609  1
  Zn  Zn175  1  0.56239498  0.56272530  0.81191779  1
  Zn  Zn176  1  0.43787415  0.18809450  0.43589900  1
  Zn  Zn177  1  0.43730665  0.18755057  0.93694969  1
  Zn  Zn178  1  0.43617942  0.68911226  0.43794400  1
  Zn  Zn179  1  0.43670224  0.68689260  0.93799117  1
  Zn  Zn180  1  0.93823514  0.18749505  0.43824606  1
  Zn  Zn181  1  0.93688457  0.18803598  0.94029501  1
  Zn  Zn182  1  0.93713809  0.68899450  0.43835518  1
  Zn  Zn183  1  0.93863048  0.68746124  0.93880856  1
  Zn  Zn184  1  0.06219034  0.31233967  0.06304944  1
  Zn  Zn185  1  0.06267989  0.31123421  0.56205052  1
  Zn  Zn186  1  0.06251366  0.81225673  0.06299954  1
  Zn  Zn187  1  0.06181968  0.81051520  0.56004648  1
  Zn  Zn188  1  0.56265705  0.31372371  0.06113149  1
  Zn  Zn189  1  0.56203788  0.31313868  0.56209454  1
  Zn  Zn190  1  0.56256696  0.81397902  0.06333748  1
  Zn  Zn191  1  0.56380544  0.81336099  0.56232160  1
  O  O192  1  0.12659767  0.11942214  0.11401672  1
  O  O193  1  0.11677607  0.12576055  0.61720070  1
  O  O194  1  0.11838228  0.61773380  0.12437349  1
  O  O195  1  0.11933423  0.61872179  0.62016560  1
  O  O196  1  0.62114126  0.12043602  0.12077993  1
  O  O197  1  0.61878462  0.12100396  0.62030436  1
  O  O198  1  0.62085573  0.62049612  0.11838289  1
  O  O199  1  0.61951187  0.61970252  0.61860197  1
  O  O200  1  0.38016582  0.37997571  0.38055748  1
  O  O201  1  0.37480710  0.37414610  0.88661064  1
  O  O202  1  0.38107217  0.87665161  0.38163832  1
  O  O203  1  0.37960077  0.87939297  0.87911073  1
  O  O204  1  0.87965914  0.38050550  0.38146578  1
  O  O205  1  0.88441439  0.38204307  0.87539460  1
  O  O206  1  0.88371143  0.88216150  0.37728176  1
  O  O207  1  0.87434382  0.88424035  0.88162933  1
  O  O208  1  0.25185512  0.00290667  0.36302563  1
  O  O209  1  0.25578518  0.00980443  0.87377957  1
  O  O210  1  0.25547598  0.50632782  0.37029446  1
  O  O211  1  0.25000773  0.50955883  0.86907356  1
  O  O212  1  0.75480595  0.00601756  0.37072845  1
  O  O213  1  0.75857563  0.00826543  0.87773563  1
  O  O214  1  0.75536213  0.50544908  0.37095272  1
  O  O215  1  0.75455538  0.50559986  0.87037818  1
  O  O216  1  0.24534648  0.49595468  0.12933210  1
  O  O217  1  0.24406462  0.49476059  0.62923118  1
  O  O218  1  0.24614077  0.99453187  0.13139143  1
  O  O219  1  0.24731958  0.98668666  0.62830185  1
  O  O220  1  0.74540258  0.49584319  0.12975857  1
  O  O221  1  0.74539840  0.49583614  0.62979365  1
  O  O222  1  0.75041461  0.99270413  0.13181372  1
  O  O223  1  0.74190372  1.00021522  0.62818489  1
  O  O224  1  0.00095333  0.36781364  0.25804802  1
  O  O225  1  0.00550346  0.37761050  0.76050828  1
  O  O226  1  0.00120318  0.87614299  0.26158948  1
  O  O227  1  0.01018286  0.86832321  0.75086524  1
  O  O228  1  0.50211405  0.37299820  0.25813538  1
  O  O229  1  0.50249552  0.36661389  0.75237962  1
  O  O230  1  0.50664288  0.87420674  0.25675511  1
  O  O231  1  0.50498706  0.86904752  0.75578367  1
  O  O232  1  0.48782971  0.12482847  0.24716092  1
  O  O233  1  0.49346308  0.13021017  0.74475825  1
  O  O234  1  0.49781049  0.62821776  0.24093774  1
  O  O235  1  0.49941673  0.63171194  0.74275530  1
  O  O236  1  0.99280894  0.13123679  0.24943527  1
  O  O237  1  1.00110485  0.12520352  0.73842228  1
  O  O238  1  0.99226578  0.62462636  0.24414481  1
  O  O239  1  0.99518009  0.62878985  0.74486145  1
  O  O240  1  0.37384895  0.25762161  0.00739571  1
  O  O241  1  0.37422290  0.25588979  0.50644948  1
  O  O242  1  0.36886643  0.75630222  0.00385799  1
  O  O243  1  0.37259522  0.75813372  0.50718419  1
  O  O244  1  0.86816468  0.25153370  0.00794758  1
  O  O245  1  0.86909093  0.25548321  0.50529326  1
  O  O246  1  0.86901704  0.75484081  0.00541740  1
  O  O247  1  0.86789731  0.74918266  0.50791068  1
  O  O248  1  0.12539325  0.24017479  0.49456128  1
  O  O249  1  0.12716364  0.23822061  0.99825268  1
  O  O250  1  0.12766312  0.74034099  0.49590711  1
  O  O251  1  0.13218299  0.74910796  0.99304571  1
  O  O252  1  0.63068023  0.24409079  0.49565448  1
  O  O253  1  0.63031874  0.24832033  0.99049848  1
  O  O254  1  0.63015269  0.74371266  0.49455846  1
  O  O255  1  0.63070607  0.74563056  0.99430694  1
  O  O256  1  0.48769519  0.24934819  0.12527541  1
  O  O257  1  0.49484611  0.24405039  0.62964613  1
  O  O258  1  0.49358527  0.74432514  0.12357110  1
  O  O259  1  0.49622671  0.74476292  0.62945752  1
  O  O260  1  0.99331150  0.24849425  0.13180792  1
  O  O261  1  0.99386390  0.24066503  0.62426799  1
  O  O262  1  0.99272747  0.74351900  0.12564294  1
  O  O263  1  0.99476855  0.74269125  0.63081370  1
  O  O264  1  0.00449947  0.25516373  0.37042738  1
  O  O265  1  -0.00003623  0.26252091  0.87534127  1
  O  O266  1  -0.00099497  0.76178853  0.37431159  1
  O  O267  1  0.00637810  0.75060250  0.86820690  1
  O  O268  1  0.50685816  0.25680189  0.37434294  1
  O  O269  1  0.50953200  0.24882146  0.86964402  1
  O  O270  1  0.50722463  0.75648564  0.37490010  1
  O  O271  1  0.50518689  0.75449563  0.87029370  1
  O  O272  1  0.23817096  0.12474710  0.50063062  1
  O  O273  1  0.24182337  0.12317541  0.99126578  1
  O  O274  1  0.24380216  0.62359191  0.49044399  1
  O  O275  1  0.24891207  0.63088292  0.99011642  1
  O  O276  1  0.74437017  0.13084349  0.49502855  1
  O  O277  1  0.74922803  0.13080973  0.98924120  1
  O  O278  1  0.74402909  0.62940474  0.49426145  1
  O  O279  1  0.74498315  0.63059402  0.99475098  1
  O  O280  1  0.25952374  0.37459156  0.00520417  1
  O  O281  1  0.25679499  0.37516783  0.50676954  1
  O  O282  1  0.25564121  0.87046451  0.00415791  1
  O  O283  1  0.25422333  0.87547441  0.50867378  1
  O  O284  1  0.75294265  0.36877451  0.00686365  1
  O  O285  1  0.75601828  0.37000738  0.50573052  1
  O  O286  1  0.75522895  0.86922642  0.00541561  1
  O  O287  1  0.75213277  0.86642173  0.50297819  1
  O  O288  1  0.13221648  0.49608769  0.24308516  1
  O  O289  1  0.13036011  0.49463408  0.74296175  1
  O  O290  1  0.13583027  1.00250016  0.24327740  1
  O  O291  1  0.12603562  0.98709567  0.74821460  1
  O  O292  1  0.63240139  0.49968017  0.24276845  1
  O  O293  1  0.63176330  0.49953774  0.74308521  1
  O  O294  1  0.63253899  0.99339726  0.25009506  1
  O  O295  1  0.62441341  0.99413351  0.74487427  1
  O  O296  1  0.36637643  0.00833729  0.24767296  1
  O  O297  1  0.37419798  0.00663309  0.75642349  1
  O  O298  1  0.36872856  0.50203748  0.25635986  1
  O  O299  1  0.36681519  0.50262998  0.75163288  1
  O  O300  1  0.86885772  0.00613744  0.25614394  1
  O  O301  1  0.87478920  0.00136175  0.76348110  1
  O  O302  1  0.86899398  0.50560640  0.25635657  1
  O  O303  1  0.86926966  0.50661906  0.75567024  1
  O  O304  1  0.11749821  0.36826980  0.37542070  1
  O  O305  1  0.11640976  0.37575742  0.87023259  1
  O  O306  1  0.11330744  0.87621319  0.37393423  1
  O  O307  1  0.12618898  0.86917894  0.86467293  1
  O  O308  1  0.61894277  0.36891545  0.37550512  1
  O  O309  1  0.62510931  0.36204725  0.87339266  1
  O  O310  1  0.61997202  0.86951921  0.37040857  1
  O  O311  1  0.61898843  0.86872002  0.86998516  1
  O  O312  1  0.37484043  0.13371331  0.13092389  1
  O  O313  1  0.37973688  0.12968699  0.62995135  1
  O  O314  1  0.38168561  0.63167680  0.12329920  1
  O  O315  1  0.38183001  0.63162344  0.62391371  1
  O  O316  1  0.87555886  0.13201599  0.13252463  1
  O  O317  1  0.88455447  0.13005613  0.62516490  1
  O  O318  1  0.87965012  0.62986626  0.13069951  1
  O  O319  1  0.88097387  0.62900831  0.63176964  1
  O  O320  1  0.26111387  0.25614109  0.12289671  1
  O  O321  1  0.25688415  0.25704128  0.62336268  1
  O  O322  1  0.25490183  0.75486037  0.11877120  1
  O  O323  1  0.25543788  0.76060752  0.62400197  1
  O  O324  1  0.75454964  0.25541934  0.12062460  1
  O  O325  1  0.75481106  0.25440533  0.61981568  1
  O  O326  1  0.75571074  0.75493125  0.11929295  1
  O  O327  1  0.75624220  0.74923348  0.61922497  1
  O  O328  1  0.24174457  0.24693493  0.37758988  1
  O  O329  1  0.24845671  0.23648746  0.87722153  1
  O  O330  1  0.24988418  0.73761176  0.37609135  1
  O  O331  1  0.24581995  0.74266800  0.87852454  1
  O  O332  1  0.74550500  0.24488621  0.38174583  1
  O  O333  1  0.74462791  0.24353264  0.87935463  1
  O  O334  1  0.74514592  0.74378301  0.38085704  1
  O  O335  1  0.74498446  0.74441489  0.88074201  1
  O  O336  1  0.01045176  0.11903702  0.00040140  1
  O  O337  1  0.00745784  0.12109543  0.50823457  1
  O  O338  1  0.00175446  0.61846741  0.00713353  1
  O  O339  1  0.00415344  0.61823857  0.50542589  1
  O  O340  1  0.49870498  0.11226699  -0.00060984  1
  O  O341  1  0.50520272  0.12013537  0.50551876  1
  O  O342  1  0.50634624  0.62018329  0.00446277  1
  O  O343  1  0.50565168  0.61945279  0.50460358  1
  O  O344  1  0.49436188  0.38122231  0.49479247  1
  O  O345  1  0.49043678  0.38092221  0.99786028  1
  O  O346  1  0.49545487  0.88098637  0.49523589  1
  O  O347  1  0.49433230  0.88149107  0.99336778  1
  O  O348  1  0.99370649  0.38040752  0.49541448  1
  O  O349  1  0.99943843  0.38140621  0.99055099  1
  O  O350  1  0.99889228  0.88195637  0.49182942  1
  O  O351  1  0.99302174  0.88116083  0.99804631  1
  O  O352  1  0.49562584  0.49572769  0.38089705  1
  O  O353  1  0.49806910  0.49853577  0.88249144  1
  O  O354  1  0.49877614  0.99339196  0.38253246  1
  O  O355  1  0.49424792  0.99429033  0.88211615  1
  O  O356  1  0.99398884  0.49471613  0.38055440  1
  O  O357  1  0.99586971  0.49347615  0.88007988  1
  O  O358  1  0.99438882  0.99378311  0.37977480  1
  O  O359  1  0.98969763  0.99832056  0.88192522  1
  O  O360  1  0.00642180  0.00266868  0.11907880  1
  O  O361  1  0.00043331  0.00987818  0.61970423  1
  O  O362  1  0.00407942  0.50421867  0.12072740  1
  O  O363  1  0.00439933  0.50473110  0.61982797  1
  O  O364  1  0.49946219  -0.00131853  0.11190831  1
  O  O365  1  0.50506667  0.00651951  0.61956863  1
  O  O366  1  0.50621662  0.50579963  0.11824466  1
  O  O367  1  0.50545318  0.50505754  0.61891148  1
  O  O368  1  0.24953177  0.38170929  0.24246624  1
  O  O369  1  0.24418031  0.38028470  0.74421912  1
  O  O370  1  0.25101453  0.88624955  0.24390720  1
  O  O371  1  0.24141750  0.87375282  0.74152802  1
  O  O372  1  0.74809601  0.38250096  0.24398376  1
  O  O373  1  0.74888761  0.38227361  0.74312034  1
  O  O374  1  0.74558898  0.88061712  0.24618514  1
  O  O375  1  0.74085881  0.87777099  0.74795386  1
  O  O376  1  0.25941389  0.11598264  0.24843094  1
  O  O377  1  0.25370057  0.12308608  0.75807199  1
  O  O378  1  0.25194882  0.61807920  0.25994325  1
  O  O379  1  0.24999219  0.62029324  0.75780700  1
  O  O380  1  0.75560582  0.11996927  0.25721724  1
  O  O381  1  0.75273386  0.12247768  0.76417571  1
  O  O382  1  0.75550768  0.61937381  0.25597854  1
  O  O383  1  0.75525806  0.62019378  0.75622715  1
  O  O384  1  0.37279342  0.12405534  0.36329647  1
  O  O385  1  0.36654649  0.12070742  0.87011534  1
  O  O386  1  0.36621112  0.61795441  0.37630378  1
  O  O387  1  0.36230636  0.62497914  0.87268794  1
  O  O388  1  0.86926911  0.12059888  0.37074623  1
  O  O389  1  0.86811153  0.11670355  0.87637424  1
  O  O390  1  0.86948465  0.61910095  0.37102661  1
  O  O391  1  0.86965043  0.62024443  0.86995038  1
  O  O392  1  0.13240195  0.38075019  0.12523834  1
  O  O393  1  0.12913257  0.38042916  0.62915328  1
  O  O394  1  0.13248670  0.88248659  0.12522061  1
  O  O395  1  0.13196176  0.87305560  0.63276023  1
  O  O396  1  0.63165077  0.38229502  0.12507172  1
  O  O397  1  0.63228508  0.38191646  0.62444924  1
  O  O398  1  0.63260697  0.87642687  0.13158991  1
  O  O399  1  0.62472752  0.88236954  0.63175088  1
  O  O400  1  0.11848574  0.24971561  0.25602217  1
  O  O401  1  0.11984678  0.25895617  0.75374680  1
  O  O402  1  0.12120809  0.75495300  0.25489978  1
  O  O403  1  0.12006468  0.75749173  0.75390551  1
  O  O404  1  0.62293223  0.25183675  0.25882526  1
  O  O405  1  0.61963456  0.25035445  0.75915679  1
  O  O406  1  0.62478178  0.75718410  0.25736264  1
  O  O407  1  0.61922806  0.75488699  0.75586700  1
  O  O408  1  0.37484994  0.24179481  0.24044758  1
  O  O409  1  0.38018856  0.24392174  0.74384735  1
  O  O410  1  0.37768899  0.74770047  0.24016852  1
  O  O411  1  0.38280832  0.74866761  0.74211981  1
  O  O412  1  0.87953357  0.24446545  0.24639149  1
  O  O413  1  0.87927886  0.24670368  0.74193318  1
  O  O414  1  0.87549455  0.74296297  0.24348115  1
  O  O415  1  0.88028478  0.74403429  0.74637029  1
  O  O416  1  0.38128497  0.49385120  0.49443177  1
  O  O417  1  0.38072552  0.48999709  0.99913788  1
  O  O418  1  0.38198052  0.99409475  0.49904779  1
  O  O419  1  0.38166367  0.99398161  0.99382741  1
  O  O420  1  0.87990021  0.49522084  0.49519873  1
  O  O421  1  0.88176612  0.49881334  0.99304713  1
  O  O422  1  0.88136514  1.00028858  0.49289644  1
  O  O423  1  0.87939343  0.99549505  0.99318137  1
  O  O424  1  0.12045292  0.00734887  0.00400840  1
  O  O425  1  0.11809641  0.01079755  0.50211487  1
  O  O426  1  0.11833298  0.50261792  0.00766553  1
  O  O427  1  0.11818707  0.50424190  0.50576083  1
  O  O428  1  0.61298026  -0.00026980  -0.00093569  1
  O  O429  1  0.61956744  0.00643162  0.50581788  1
  O  O430  1  0.62091466  0.50630129  0.00486328  1
  O  O431  1  0.61994414  0.50626311  0.50489764  1
  O  O432  1  0.37111339  0.36830964  0.11635551  1
  O  O433  1  0.37003812  0.36959432  0.61935051  1
  O  O434  1  0.36907907  0.86936348  0.11777091  1
  O  O435  1  0.36772684  0.87069329  0.62041778  1
  O  O436  1  0.86802563  0.36839260  0.12433171  1
  O  O437  1  0.86996843  0.37061616  0.61940643  1
  O  O438  1  0.86940985  0.86973106  0.12011902  1
  O  O439  1  0.87384635  0.86646569  0.62377451  1
  O  O440  1  0.12383076  0.13078039  0.38615940  1
  O  O441  1  0.13199885  0.12300371  0.88289739  1
  O  O442  1  0.13462168  0.62204158  0.38062840  1
  O  O443  1  0.13600096  0.63069719  0.87507235  1
  O  O444  1  0.63048561  0.13027612  0.38155602  1
  O  O445  1  0.63366473  0.13414398  0.87657457  1
  O  O446  1  0.63051409  0.62974071  0.38004445  1
  O  O447  1  0.63093651  0.63114210  0.88057711  1
