# generated using pymatgen
data_V3Zn3O8
_symmetry_space_group_name_H-M   'P 1'
_cell_length_a   17.08587355
_cell_length_b   17.08709648
_cell_length_c   17.08573772
_cell_angle_alpha   89.99158569
_cell_angle_beta   90.00159674
_cell_angle_gamma   90.00240870
_symmetry_Int_Tables_number   1
_chemical_formula_structural   V3Zn3O8
_chemical_formula_sum   'V96 Zn96 O256'
_cell_volume   4988.14638146
_cell_formula_units_Z   32
loop_
 _symmetry_equiv_pos_site_id
 _symmetry_equiv_pos_as_xyz
  1  'x, y, z'
loop_
 _atom_site_type_symbol
 _atom_site_label
 _atom_site_symmetry_multiplicity
 _atom_site_fract_x
 _atom_site_fract_y
 _atom_site_fract_z
 _atom_site_occupancy
  V  V0  1  0.37608329  0.24897574  0.62528175  1
  V  V1  1  0.24985894  0.75058538  0.49888121  1
  V  V2  1  0.12530739  0.75051445  0.37525425  1
  V  V3  1  0.62365539  0.62366868  0.00070072  1
  V  V4  1  -0.00036517  0.74999140  0.24992625  1
  V  V5  1  0.62490657  0.74995001  0.37553232  1
  V  V6  1  0.50022692  0.12533789  0.62502008  1
  V  V7  1  0.12550247  0.12470789  -0.00092401  1
  V  V8  1  0.37556189  0.87609413  0.49883031  1
  V  V9  1  0.62497553  0.00074684  0.62489157  1
  V  V10  1  0.74911402  0.49991842  0.25014571  1
  V  V11  1  0.37545605  0.74977479  0.62447039  1
  V  V12  1  0.49941694  0.49657377  0.00000391  1
  V  V13  1  0.12419380  0.37566259  0.25073075  1
  V  V14  1  0.24942253  0.87448117  0.12409571  1
  V  V15  1  0.24999652  0.87525222  0.62387493  1
  V  V16  1  0.62479792  0.62603966  0.50058441  1
  V  V17  1  0.74833888  0.74923369  0.00025263  1
  V  V18  1  0.12444356  0.87370805  0.74908391  1
  V  V19  1  0.00079231  0.12645912  0.62553753  1
  V  V20  1  0.87617940  0.75060760  0.62618714  1
  V  V21  1  -0.00055994  0.87621743  0.37590473  1
  V  V22  1  0.00075237  0.25028688  0.75087667  1
  V  V23  1  0.37462988  0.87393792  -0.00168991  1
  V  V24  1  0.62538098  0.12466619  -0.00042649  1
  V  V25  1  0.87493817  0.50125310  0.37554652  1
  V  V26  1  0.12452117  -0.00036124  0.12504797  1
  V  V27  1  0.87503914  0.37505033  0.00038292  1
  V  V28  1  0.37543855  0.74890023  0.12564701  1
  V  V29  1  0.37581672  0.49693456  0.87559436  1
  V  V30  1  0.25152044  0.37286111  0.12233759  1
  V  V31  1  0.49982320  0.37531959  0.37522708  1
  V  V32  1  0.37646597  0.62415584  0.74900718  1
  V  V33  1  0.62520811  0.87523764  0.75000016  1
  V  V34  1  0.87573138  0.12579715  0.75038160  1
  V  V35  1  0.12499347  0.62526644  -0.00085389  1
  V  V36  1  0.25102568  0.49877973  0.75007411  1
  V  V37  1  0.62606128  0.12600087  0.50067447  1
  V  V38  1  0.25073422  0.50129885  0.25049557  1
  V  V39  1  0.75271226  0.00144831  0.25333455  1
  V  V40  1  0.37459281  -0.00208759  0.87391031  1
  V  V41  1  0.74960518  0.87417279  0.12534977  1
  V  V42  1  -0.00105910  -0.00080882  0.00117737  1
  V  V43  1  -0.00009553  0.37475424  0.87538034  1
  V  V44  1  0.87378220  0.62472079  0.25100015  1
  V  V45  1  0.62521294  -0.00096381  0.12581765  1
  V  V46  1  0.87442943  0.74917655  0.12517701  1
  V  V47  1  0.00012145  0.37637637  0.37540875  1
  V  V48  1  0.25042209  0.25032619  0.49852531  1
  V  V49  1  0.49973235  0.87603925  0.37481567  1
  V  V50  1  0.37510863  0.12435652  0.74891600  1
  V  V51  1  0.24994299  0.00081208  0.24994626  1
  V  V52  1  0.62416607  0.75084906  0.87478290  1
  V  V53  1  0.75001548  0.25206383  0.50027688  1
  V  V54  1  0.37633189  0.37552784  0.49923360  1
  V  V55  1  0.12440813  0.00085790  0.62374093  1
  V  V56  1  0.74949801  0.00116436  0.74996419  1
  V  V57  1  0.50019094  0.62552651  0.62427726  1
  V  V58  1  0.87501044  0.37685022  0.50020795  1
  V  V59  1  -0.00109518  0.12532402  0.12610394  1
  V  V60  1  0.12493285  0.12640850  0.50020123  1
  V  V61  1  0.87497098  0.24989310  0.12567936  1
  V  V62  1  0.62516433  0.37553287  0.24941640  1
  V  V63  1  0.12558074  0.50075721  0.62406650  1
  V  V64  1  0.62535533  0.87376859  0.25038348  1
  V  V65  1  0.50022453  0.24917503  0.24927525  1
  V  V66  1  0.25008099  -0.00076854  0.74852891  1
  V  V67  1  0.25011446  0.62407410  0.87525353  1
  V  V68  1  0.25085149  0.62512274  0.37313979  1
  V  V69  1  0.00061669  0.87397933  0.87394215  1
  V  V70  1  0.37527726  0.00060229  0.37391256  1
  V  V71  1  0.25007606  0.12587168  0.37427815  1
  V  V72  1  0.49843187  0.12418586  0.12598855  1
  V  V73  1  0.75022825  0.12607584  0.87614805  1
  V  V74  1  0.12432952  0.87503462  0.24993286  1
  V  V75  1  -0.00034502  0.62480980  0.12457410  1
  V  V76  1  0.74985622  0.37438098  0.12515868  1
  V  V77  1  0.49911295  0.74931913  0.24850074  1
  V  V78  1  0.87581248  0.87773638  0.50021545  1
  V  V79  1  0.25110504  0.37464771  0.62475807  1
  V  V80  1  0.12463864  0.50021524  0.12522155  1
  V  V81  1  -0.00123926  0.49957702  -0.00006280  1
  V  V82  1  -0.00050914  0.25108111  0.25026924  1
  V  V83  1  0.75040167  0.50072594  0.75104397  1
  V  V84  1  0.62425726  0.37336254  0.75241943  1
  V  V85  1  0.24956234  0.74865885  -0.00095290  1
  V  V86  1  0.50053228  0.50031798  0.49960170  1
  V  V87  1  0.75105392  0.37562659  0.62515713  1
  V  V88  1  0.49923288  0.87434153  0.87432422  1
  V  V89  1  0.87469970  0.87449444  -0.00000521  1
  V  V90  1  0.74992016  0.75006651  0.49947658  1
  V  V91  1  0.24869090  0.12394806  0.87548139  1
  V  V92  1  0.87575867  0.62559827  0.75061233  1
  V  V93  1  0.12489276  0.62453012  0.50119749  1
  V  V94  1  0.62597099  0.24994199  0.37616274  1
  V  V95  1  0.12488531  0.37430731  0.75050304  1
  Zn  Zn96  1  0.74970350  0.87705910  0.62594024  1
  Zn  Zn97  1  0.37382609  0.24874390  0.12371259  1
  Zn  Zn98  1  0.37637163  0.62409978  0.24978551  1
  Zn  Zn99  1  0.50098227  0.74918407  0.74914648  1
  Zn  Zn100  1  0.62298458  0.49874729  0.12535870  1
  Zn  Zn101  1  -0.00098379  0.00367439  0.49858205  1
  Zn  Zn102  1  0.87576942  0.12589613  0.25361222  1
  Zn  Zn103  1  0.87527286  0.50132306  0.87613139  1
  Zn  Zn104  1  0.12536980  0.74800344  0.87215867  1
  Zn  Zn105  1  0.49899882  -0.00115961  0.00007137  1
  Zn  Zn106  1  0.00222986  0.74833424  0.75023736  1
  Zn  Zn107  1  0.75015842  0.25109536  0.00062160  1
  Zn  Zn108  1  0.00194561  0.62394437  0.62491654  1
  Zn  Zn109  1  0.50159327  0.00083804  0.49863100  1
  Zn  Zn110  1  0.75025380  0.62565881  0.87535967  1
  Zn  Zn111  1  0.49856295  0.36980226  0.87529909  1
  Zn  Zn112  1  0.87703108  0.00373728  0.37612543  1
  Zn  Zn113  1  0.74966278  0.62510599  0.37532444  1
  Zn  Zn114  1  -0.00060725  0.50167188  0.50162822  1
  Zn  Zn115  1  0.62450657  0.50150143  0.62517845  1
  Zn  Zn116  1  0.62157946  0.24930895  0.87570586  1
  Zn  Zn117  1  0.87605651  0.25153844  0.62472576  1
  Zn  Zn118  1  0.37546200  0.50173406  0.37327147  1
  Zn  Zn119  1  0.12641499  0.24980907  0.87721740  1
  Zn  Zn120  1  0.87474280  -0.00036550  0.87523139  1
  Zn  Zn121  1  0.75288123  0.12595586  0.37664858  1
  Zn  Zn122  1  0.37363760  0.12632431  0.24929232  1
  Zn  Zn123  1  0.49730883  0.62243766  0.12723132  1
  Zn  Zn124  1  0.37588525  0.36950145  -0.00162407  1
  Zn  Zn125  1  0.50006836  0.25001531  0.75236865  1
  Zn  Zn126  1  0.12493610  0.25119374  0.37519968  1
  Zn  Zn127  1  0.25135367  0.24840739  -0.00074931  1
  Zn  Zn128  1  0.18469283  0.18838581  0.18822407  1
  Zn  Zn129  1  0.18767347  0.18845590  0.68790154  1
  Zn  Zn130  1  0.18782019  0.68751984  0.18725160  1
  Zn  Zn131  1  0.18905559  0.68738528  0.68764562  1
  Zn  Zn132  1  0.68753529  0.18776530  0.18779669  1
  Zn  Zn133  1  0.68829948  0.18943991  0.68675858  1
  Zn  Zn134  1  0.68609560  0.68555299  0.18707303  1
  Zn  Zn135  1  0.68846125  0.68929627  0.68621249  1
  Zn  Zn136  1  0.31446806  0.31206066  0.31035460  1
  Zn  Zn137  1  0.31203130  0.30943386  0.81372270  1
  Zn  Zn138  1  0.31312727  0.81281256  0.31133429  1
  Zn  Zn139  1  0.31208505  0.81018329  0.81106954  1
  Zn  Zn140  1  0.81319972  0.31348241  0.31320789  1
  Zn  Zn141  1  0.81364379  0.31136861  0.81366047  1
  Zn  Zn142  1  0.81222433  0.81282778  0.31448648  1
  Zn  Zn143  1  0.81055347  0.81303807  0.81397153  1
  Zn  Zn144  1  0.18784003  0.43875848  0.43694765  1
  Zn  Zn145  1  0.18596383  0.43805440  0.93738722  1
  Zn  Zn146  1  0.18712991  0.93984647  0.43730645  1
  Zn  Zn147  1  0.18646526  0.93738935  0.93652069  1
  Zn  Zn148  1  0.68705742  0.43906847  0.43685259  1
  Zn  Zn149  1  0.68882213  0.43766469  0.93623351  1
  Zn  Zn150  1  0.68811774  0.93733964  0.43892894  1
  Zn  Zn151  1  0.68683131  0.93877468  0.93671906  1
  Zn  Zn152  1  0.31269282  0.06043242  0.06033102  1
  Zn  Zn153  1  0.31281270  0.06247112  0.56023138  1
  Zn  Zn154  1  0.31378140  0.56142233  0.06320975  1
  Zn  Zn155  1  0.31290925  0.56219918  0.56062939  1
  Zn  Zn156  1  0.81347401  0.06183847  0.06462568  1
  Zn  Zn157  1  0.81190178  0.06529499  0.56491371  1
  Zn  Zn158  1  0.81092476  0.56077331  0.06397106  1
  Zn  Zn159  1  0.81150832  0.56314282  0.56343218  1
  Zn  Zn160  1  0.43583231  0.43752485  0.18750033  1
  Zn  Zn161  1  0.43947499  0.43786579  0.68643915  1
  Zn  Zn162  1  0.43668405  0.93727476  0.18758952  1
  Zn  Zn163  1  0.44001709  0.93778688  0.68692348  1
  Zn  Zn164  1  0.93595868  0.43738208  0.18795765  1
  Zn  Zn165  1  0.93889110  0.43840765  0.68638034  1
  Zn  Zn166  1  0.93678826  0.93694122  0.18720865  1
  Zn  Zn167  1  0.93796972  0.94043374  0.68787835  1
  Zn  Zn168  1  0.06223354  0.06364478  0.31390113  1
  Zn  Zn169  1  0.06261372  0.06091903  0.81248402  1
  Zn  Zn170  1  0.06277464  0.56238954  0.31371442  1
  Zn  Zn171  1  0.06185875  0.56070174  0.81225782  1
  Zn  Zn172  1  0.56480970  0.06281213  0.31343264  1
  Zn  Zn173  1  0.56069137  0.06095155  0.81185249  1
  Zn  Zn174  1  0.56216229  0.56328074  0.31364335  1
  Zn  Zn175  1  0.56208664  0.56115948  0.81394762  1
  Zn  Zn176  1  0.43826247  0.18697176  0.43750095  1
  Zn  Zn177  1  0.43574664  0.18914031  0.93746769  1
  Zn  Zn178  1  0.43722305  0.68739373  0.43598302  1
  Zn  Zn179  1  0.43809346  0.68621326  0.93706388  1
  Zn  Zn180  1  0.93610194  0.18952111  0.43669063  1
  Zn  Zn181  1  0.93776707  0.18902426  0.93785869  1
  Zn  Zn182  1  0.93878503  0.68705899  0.43833903  1
  Zn  Zn183  1  0.93722288  0.68825404  0.93609096  1
  Zn  Zn184  1  0.06368398  0.31090754  0.06211103  1
  Zn  Zn185  1  0.06205829  0.31304261  0.56234597  1
  Zn  Zn186  1  0.06285525  0.81120315  0.06126635  1
  Zn  Zn187  1  0.06108932  0.81207639  0.56278094  1
  Zn  Zn188  1  0.56365703  0.31060620  0.06302783  1
  Zn  Zn189  1  0.56365740  0.31328682  0.56561822  1
  Zn  Zn190  1  0.56056752  0.81189739  0.06213671  1
  Zn  Zn191  1  0.56170163  0.81368154  0.56289467  1
  O  O192  1  0.11883532  0.11792474  0.11963207  1
  O  O193  1  0.12105442  0.11992848  0.62031380  1
  O  O194  1  0.11890781  0.62013949  0.11949381  1
  O  O195  1  0.12667537  0.61895964  0.61923742  1
  O  O196  1  0.61867298  0.11938741  0.11805878  1
  O  O197  1  0.61988933  0.12080573  0.62071647  1
  O  O198  1  0.62213405  0.62334905  0.11146483  1
  O  O199  1  0.61832978  0.62585894  0.61839150  1
  O  O200  1  0.38258726  0.37537630  0.38191520  1
  O  O201  1  0.37493559  0.38410349  0.87644063  1
  O  O202  1  0.37963359  0.88039218  0.37953166  1
  O  O203  1  0.37867986  0.87831042  0.87859693  1
  O  O204  1  0.88040539  0.38230008  0.38032229  1
  O  O205  1  0.88173405  0.37646118  0.88233374  1
  O  O206  1  0.88097979  0.87405885  0.38588148  1
  O  O207  1  0.88349681  0.87589436  0.88156983  1
  O  O208  1  0.25488812  0.00535815  0.36885015  1
  O  O209  1  0.25509277  0.00279620  0.86750234  1
  O  O210  1  0.25026432  0.50707138  0.36768401  1
  O  O211  1  0.25600244  0.50479427  0.86990413  1
  O  O212  1  0.75104215  -0.00060433  0.36348564  1
  O  O213  1  0.75114670  0.01079345  0.86989347  1
  O  O214  1  0.75691170  0.50179985  0.36766142  1
  O  O215  1  0.75383508  0.50271120  0.86236870  1
  O  O216  1  0.24347804  0.49314313  0.12994304  1
  O  O217  1  0.24657681  0.49377293  0.63080741  1
  O  O218  1  0.24401966  0.99354671  0.12977056  1
  O  O219  1  0.24490669  0.99422120  0.62918887  1
  O  O220  1  0.74764086  0.49217781  0.13251514  1
  O  O221  1  0.74846147  0.49509859  0.63626687  1
  O  O222  1  0.74496135  0.99331675  0.13329138  1
  O  O223  1  0.74273276  0.99997366  0.63289045  1
  O  O224  1  0.00487566  0.37132795  0.25469173  1
  O  O225  1  0.00512323  0.37073775  0.75543036  1
  O  O226  1  0.00500820  0.86895911  0.25445873  1
  O  O227  1  0.00474209  0.87526672  0.75901263  1
  O  O228  1  0.50557135  0.36960578  0.25452384  1
  O  O229  1  0.51268641  0.37631204  0.75084279  1
  O  O230  1  0.50647679  0.86993820  0.25493139  1
  O  O231  1  0.50687890  0.87284502  0.75644126  1
  O  O232  1  0.50272798  0.12965080  0.24000899  1
  O  O233  1  0.49235407  0.12467511  0.74260700  1
  O  O234  1  0.49877282  0.63362251  0.24771322  1
  O  O235  1  0.49386439  0.62500098  0.74323757  1
  O  O236  1  1.00019220  0.13174127  0.24303882  1
  O  O237  1  0.99592596  0.12980407  0.74602423  1
  O  O238  1  0.99476125  0.63076600  0.24399881  1
  O  O239  1  0.98830448  0.62637961  0.74858277  1
  O  O240  1  0.36977607  0.25234317  0.00604054  1
  O  O241  1  0.37001845  0.25563902  0.50567753  1
  O  O242  1  0.36876183  0.75462025  0.00463239  1
  O  O243  1  0.36888287  0.75640572  0.50441458  1
  O  O244  1  0.87413672  0.25702314  0.00799901  1
  O  O245  1  0.86764335  0.25958049  0.50145965  1
  O  O246  1  0.86876377  0.75408940  0.00626995  1
  O  O247  1  0.87118254  0.75701509  0.50748466  1
  O  O248  1  0.13328615  0.24453429  0.49929473  1
  O  O249  1  0.12754910  0.23932547  0.99846196  1
  O  O250  1  0.13101150  0.74615211  0.49492891  1
  O  O251  1  0.13187231  0.74262430  0.99883803  1
  O  O252  1  0.63039609  0.24650483  0.49563348  1
  O  O253  1  0.62834257  0.23540097  0.99937846  1
  O  O254  1  0.62995303  0.74659555  0.49516356  1
  O  O255  1  0.62866855  0.74247843  0.99572031  1
  O  O256  1  0.50172953  0.23832368  0.13063804  1
  O  O257  1  0.49301280  0.24353268  0.62741993  1
  O  O258  1  0.49283317  0.75008536  0.13117387  1
  O  O259  1  0.49233363  0.74369834  0.62558953  1
  O  O260  1  0.99473080  0.24505076  0.13061207  1
  O  O261  1  0.99957314  0.24424945  0.63312956  1
  O  O262  1  0.99438647  0.74476815  0.13008406  1
  O  O263  1  0.98721404  0.74839111  0.62779426  1
  O  O264  1  0.00152792  0.25889986  0.36798584  1
  O  O265  1  0.00293329  0.25671873  0.86866247  1
  O  O266  1  0.00602089  0.75581788  0.36894661  1
  O  O267  1  0.00236376  0.76229332  0.87380533  1
  O  O268  1  0.50637285  0.25542934  0.36977700  1
  O  O269  1  0.50356374  0.25202185  0.87029668  1
  O  O270  1  0.50528184  0.75703123  0.36914866  1
  O  O271  1  0.50599603  0.75629984  0.87298987  1
  O  O272  1  0.24504218  0.13110551  0.49454209  1
  O  O273  1  0.24227759  0.12144906  0.99351107  1
  O  O274  1  0.24488764  0.63187979  0.49396341  1
  O  O275  1  0.24442628  0.62851552  0.99484146  1
  O  O276  1  0.74347372  0.13375460  0.50054610  1
  O  O277  1  0.74239360  0.12318782  0.99342984  1
  O  O278  1  0.74333075  0.63251869  0.49919502  1
  O  O279  1  0.74078764  0.62957224  0.99953509  1
  O  O280  1  0.24811875  0.37598634  0.01226956  1
  O  O281  1  0.25599529  0.37028259  0.50530073  1
  O  O282  1  0.25410854  0.86908777  0.00466361  1
  O  O283  1  0.25493521  0.86991637  0.50442294  1
  O  O284  1  0.75604882  0.37401343  0.00625853  1
  O  O285  1  0.75428452  0.37208497  0.50563702  1
  O  O286  1  0.75399431  0.86986605  0.00584554  1
  O  O287  1  0.76030804  0.86885348  0.50181888  1
  O  O288  1  0.12986021  0.49559841  0.24360036  1
  O  O289  1  0.13213592  0.49436994  0.74457027  1
  O  O290  1  0.12978599  0.99381216  0.24430489  1
  O  O291  1  0.13103721  0.99386120  0.74307895  1
  O  O292  1  0.63035865  0.49340331  0.24910819  1
  O  O293  1  0.63501562  0.49350267  0.74973977  1
  O  O294  1  0.63368140  0.99300806  0.24559337  1
  O  O295  1  0.63034773  0.99532593  0.74467132  1
  O  O296  1  0.36703527  0.00045918  0.25602492  1
  O  O297  1  0.36851709  0.00404030  0.75358755  1
  O  O298  1  0.36617604  0.50284788  0.25233310  1
  O  O299  1  0.37011005  0.50431334  0.75528903  1
  O  O300  1  0.86327448  -0.00148762  0.25051581  1
  O  O301  1  0.86789625  0.00767310  0.75209798  1
  O  O302  1  0.86929227  0.50576613  0.25512915  1
  O  O303  1  0.86717078  0.50925958  0.74915792  1
  O  O304  1  0.11873087  0.37538056  0.36809461  1
  O  O305  1  0.11852729  0.37473600  0.86794507  1
  O  O306  1  0.12039146  0.86971243  0.36965265  1
  O  O307  1  0.11633473  0.87398188  0.86878199  1
  O  O308  1  0.61892797  0.36942967  0.36949401  1
  O  O309  1  0.62636747  0.37257042  0.86385911  1
  O  O310  1  0.61957420  0.86956448  0.37009699  1
  O  O311  1  0.61910503  0.87086318  0.87053258  1
  O  O312  1  0.38831614  0.12159458  0.12559920  1
  O  O313  1  0.37955681  0.12914460  0.62888150  1
  O  O314  1  0.37594070  0.63445725  0.12700160  1
  O  O315  1  0.37955410  0.63033354  0.62895274  1
  O  O316  1  0.88199231  0.13126192  0.12738089  1
  O  O317  1  0.88262734  0.12784804  0.63244369  1
  O  O318  1  0.88037755  0.63041002  0.13049325  1
  O  O319  1  0.87542994  0.63411776  0.63333343  1
  O  O320  1  0.24880916  0.26169673  0.12534418  1
  O  O321  1  0.25633816  0.25536963  0.61890142  1
  O  O322  1  0.25427762  0.75607022  0.11920311  1
  O  O323  1  0.25583402  0.75605381  0.61807110  1
  O  O324  1  0.75672158  0.25645351  0.12476951  1
  O  O325  1  0.75235355  0.25826008  0.61812439  1
  O  O326  1  0.75488221  0.75505598  0.12023277  1
  O  O327  1  0.76146811  0.75342147  0.61909825  1
  O  O328  1  0.24943373  0.24431456  0.38076223  1
  O  O329  1  0.24652334  0.23916749  0.87676124  1
  O  O330  1  0.24363822  0.74680722  0.37956828  1
  O  O331  1  0.24909384  0.74205851  0.88137981  1
  O  O332  1  0.74258337  0.25151235  0.38188588  1
  O  O333  1  0.74743675  0.23592110  0.87733213  1
  O  O334  1  0.74265079  0.74895806  0.38129277  1
  O  O335  1  0.74221021  0.74913943  0.88356406  1
  O  O336  1  0.00462096  0.11831419  0.00569299  1
  O  O337  1  0.00662218  0.12643612  0.50701558  1
  O  O338  1  0.00405067  0.62055513  0.00545591  1
  O  O339  1  0.00959415  0.62357395  0.50263844  1
  O  O340  1  0.50919295  0.12179199  0.00868665  1
  O  O341  1  0.50779580  0.12409565  0.50688595  1
  O  O342  1  0.50817727  0.61554627  0.00011599  1
  O  O343  1  0.50480324  0.62068649  0.50456565  1
  O  O344  1  0.49610282  0.37995766  0.49569862  1
  O  O345  1  0.50139349  0.38554050  0.99827140  1
  O  O346  1  0.49313485  0.87667876  0.49245797  1
  O  O347  1  0.49284586  0.87633362  0.99301721  1
  O  O348  1  0.99348113  0.37715514  0.49361347  1
  O  O349  1  0.99575663  0.38073939  0.99616001  1
  O  O350  1  0.99060526  0.87528665  0.49480707  1
  O  O351  1  0.99538414  0.87880539  0.99365510  1
  O  O352  1  0.49882883  0.49265720  0.38168526  1
  O  O353  1  0.49316483  0.49792458  0.88398067  1
  O  O354  1  0.49440634  0.99334998  0.37476226  1
  O  O355  1  0.49191797  0.99246706  0.87611986  1
  O  O356  1  0.99280653  0.49415381  0.37587406  1
  O  O357  1  0.99788830  0.49322648  0.88235268  1
  O  O358  1  0.99780864  0.99134502  0.37789726  1
  O  O359  1  0.99856017  0.98922645  0.88180796  1
  O  O360  1  0.00541636  0.00403834  0.12087167  1
  O  O361  1  0.00748624  0.00793448  0.62337496  1
  O  O362  1  0.00479174  0.50589571  0.12037204  1
  O  O363  1  0.01038055  0.50240197  0.62293697  1
  O  O364  1  0.50712837  0.00755778  0.12532332  1
  O  O365  1  0.50693684  0.00723887  0.62233598  1
  O  O366  1  0.50140044  0.50123223  0.11336646  1
  O  O367  1  0.50156728  0.50788982  0.61731079  1
  O  O368  1  0.24420712  0.38080077  0.24234827  1
  O  O369  1  0.24540886  0.37980847  0.74414653  1
  O  O370  1  0.24310102  0.88000278  0.24396970  1
  O  O371  1  0.24513828  0.87979181  0.74316087  1
  O  O372  1  0.74456263  0.38056832  0.24503170  1
  O  O373  1  0.74569488  0.38254193  0.74623146  1
  O  O374  1  0.74504305  0.88059183  0.24456139  1
  O  O375  1  0.74339551  0.88318349  0.75029981  1
  O  O376  1  0.24964696  0.11819971  0.25507868  1
  O  O377  1  0.25496756  0.11754365  0.75392957  1
  O  O378  1  0.24886896  0.61912181  0.25589090  1
  O  O379  1  0.25651107  0.61795664  0.75501703  1
  O  O380  1  0.75016875  0.11231255  0.25017383  1
  O  O381  1  0.75410865  0.12124683  0.75811965  1
  O  O382  1  0.75639636  0.61886666  0.25036151  1
  O  O383  1  0.75770958  0.61719459  0.74959667  1
  O  O384  1  0.36867811  0.11843090  0.37334611  1
  O  O385  1  0.36888971  0.11684648  0.86890885  1
  O  O386  1  0.36548749  0.62421732  0.37238358  1
  O  O387  1  0.36987087  0.61723408  0.86939619  1
  O  O388  1  0.87072625  0.12122733  0.37183635  1
  O  O389  1  0.86618417  0.12298381  0.87106072  1
  O  O390  1  0.87400497  0.62037851  0.36811564  1
  O  O391  1  0.87192674  0.62516627  0.86344129  1
  O  O392  1  0.13112425  0.38150561  0.13044788  1
  O  O393  1  0.13234216  0.38037961  0.63034543  1
  O  O394  1  0.12939993  0.87963320  0.13000203  1
  O  O395  1  0.13047212  0.88004893  0.62868943  1
  O  O396  1  0.63185425  0.37494786  0.13202247  1
  O  O397  1  0.63247551  0.37846078  0.63521510  1
  O  O398  1  0.63042664  0.87876816  0.13016315  1
  O  O399  1  0.62630418  0.88167331  0.63138683  1
  O  O400  1  0.11685625  0.25828335  0.25142247  1
  O  O401  1  0.11911356  0.25726691  0.75141156  1
  O  O402  1  0.11908255  0.75573937  0.25469015  1
  O  O403  1  0.12312594  0.75756229  0.75090940  1
  O  O404  1  0.62011525  0.25574690  0.25599044  1
  O  O405  1  0.62516062  0.26178195  0.75102132  1
  O  O406  1  0.62047477  0.75546326  0.25475663  1
  O  O407  1  0.62503202  0.75651964  0.75672389  1
  O  O408  1  0.38466348  0.24591967  0.24503700  1
  O  O409  1  0.37443373  0.24180619  0.74198087  1
  O  O410  1  0.38136128  0.75115313  0.24289626  1
  O  O411  1  0.37534508  0.74196275  0.74199751  1
  O  O412  1  0.88198911  0.25067653  0.24301371  1
  O  O413  1  0.88243748  0.24346095  0.74870328  1
  O  O414  1  0.88004151  0.74561354  0.24467572  1
  O  O415  1  0.87242915  0.74274572  0.74207552  1
  O  O416  1  0.38182295  0.49272312  0.49812019  1
  O  O417  1  0.38427261  0.49929857  0.99331128  1
  O  O418  1  0.37598379  0.99301867  0.49207330  1
  O  O419  1  0.37542501  0.99083747  0.99189371  1
  O  O420  1  0.87511984  0.49514961  0.49375914  1
  O  O421  1  0.88150142  0.49404511  0.99994352  1
  O  O422  1  0.87492890  0.98765323  0.50165483  1
  O  O423  1  0.88119116  0.99157338  1.00087242  1
  O  O424  1  0.11871678  0.00356689  0.00663231  1
  O  O425  1  0.12430111  0.00764599  0.50696699  1
  O  O426  1  0.11835398  0.50646954  0.00607766  1
  O  O427  1  0.12623220  0.50703158  0.50707903  1
  O  O428  1  0.62431802  0.00913896  0.00692575  1
  O  O429  1  0.62534581  0.00703395  0.50671839  1
  O  O430  1  0.61729506  0.50784811  -0.00152552  1
  O  O431  1  0.61893765  0.50756194  0.50157287  1
  O  O432  1  0.36198088  0.37474148  0.12300723  1
  O  O433  1  0.37025087  0.36941787  0.61971395  1
  O  O434  1  0.36829811  0.87007992  0.11854742  1
  O  O435  1  0.36949569  0.87060404  0.61931014  1
  O  O436  1  0.86989881  0.36977010  0.11975830  1
  O  O437  1  0.86847078  0.37528369  0.61876343  1
  O  O438  1  0.86987447  0.86768303  0.11970081  1
  O  O439  1  0.87513130  0.86749826  0.61768635  1
  O  O440  1  0.13225488  0.12700296  0.38200457  1
  O  O441  1  0.13124425  0.12237786  0.88159545  1
  O  O442  1  0.13045809  0.63207504  0.38015032  1
  O  O443  1  0.13162456  0.62463477  0.88101306  1
  O  O444  1  0.62739524  0.13242573  0.38231562  1
  O  O445  1  0.63267797  0.12187670  0.88346087  1
  O  O446  1  0.62593739  0.63319723  0.38269718  1
  O  O447  1  0.62561412  0.63094026  0.88548855  1
