# generated using pymatgen
data_V3Zn3O8
_symmetry_space_group_name_H-M   'P 1'
_cell_length_a   17.07982878
_cell_length_b   17.08090790
_cell_length_c   17.08065246
_cell_angle_alpha   90.00345795
_cell_angle_beta   90.00431861
_cell_angle_gamma   89.99957742
_symmetry_Int_Tables_number   1
_chemical_formula_structural   V3Zn3O8
_chemical_formula_sum   'V96 Zn96 O256'
_cell_volume   4983.09214449
_cell_formula_units_Z   32
loop_
 _symmetry_equiv_pos_site_id
 _symmetry_equiv_pos_as_xyz
  1  'x, y, z'
loop_
 _atom_site_type_symbol
 _atom_site_label
 _atom_site_symmetry_multiplicity
 _atom_site_fract_x
 _atom_site_fract_y
 _atom_site_fract_z
 _atom_site_occupancy
  V  V0  1  0.49999920  0.12507135  0.12577358  1
  V  V1  1  0.75051759  0.49909959  0.74978005  1
  V  V2  1  0.37483828  0.62535473  0.75028230  1
  V  V3  1  0.87542792  0.49884688  0.87538681  1
  V  V4  1  -0.00147757  0.24978019  0.24976014  1
  V  V5  1  0.74874875  0.00009343  0.25038649  1
  V  V6  1  0.87478006  0.62536063  0.25022472  1
  V  V7  1  0.12398725  0.24784727  0.37414707  1
  V  V8  1  0.37518703  0.49762672  0.37628127  1
  V  V9  1  0.87616788  0.62526977  0.75015654  1
  V  V10  1  0.62460699  0.37566175  0.25048637  1
  V  V11  1  0.37472367  -0.00047082  0.37382600  1
  V  V12  1  0.12350710  0.37477633  0.24948586  1
  V  V13  1  0.25046351  0.12698407  0.87599180  1
  V  V14  1  0.87513767  0.87514559  0.49949589  1
  V  V15  1  0.12573327  0.49977968  0.62593912  1
  V  V16  1  0.12534293  0.12616533  0.00034359  1
  V  V17  1  0.74874670  0.12558908  0.37563273  1
  V  V18  1  0.74899225  0.25016085  0.00004796  1
  V  V19  1  0.49978095  -0.00012771  0.50058097  1
  V  V20  1  0.37383779  0.24942097  0.62426764  1
  V  V21  1  0.24972261  0.74983587  0.00061482  1
  V  V22  1  0.37577898  0.74942839  0.62418625  1
  V  V23  1  0.12622163  0.25023944  0.87627282  1
  V  V24  1  0.87580307  0.12460165  0.75046539  1
  V  V25  1  0.50146199  0.62493918  0.62390226  1
  V  V26  1  0.37568663  0.12528201  0.24863512  1
  V  V27  1  0.24863903  0.87532893  0.12568417  1
  V  V28  1  0.49960976  0.37430937  0.37490986  1
  V  V29  1  0.12423011  0.75046450  0.37513053  1
  V  V30  1  0.62511967  0.62492540  0.50005909  1
  V  V31  1  0.24791469  0.49844273  0.24924813  1
  V  V32  1  0.37442454  0.12501241  0.75052154  1
  V  V33  1  0.74916254  0.50045415  0.24952591  1
  V  V34  1  0.00023924  0.75060634  0.25219773  1
  V  V35  1  0.12467734  0.75133938  0.87540099  1
  V  V36  1  0.87424012  0.74997563  0.12522904  1
  V  V37  1  0.00150988  0.12425165  0.62435250  1
  V  V38  1  0.75123418  0.37448928  0.62425753  1
  V  V39  1  0.62444939  0.50048248  0.12501876  1
  V  V40  1  0.49890065  0.12395203  0.62414368  1
  V  V41  1  0.75069197  0.62500930  0.87494354  1
  V  V42  1  0.49883876  0.62552687  0.12421009  1
  V  V43  1  0.24912774  0.87502134  0.62531984  1
  V  V44  1  0.75039937  0.75054994  0.50022820  1
  V  V45  1  0.24976016  0.62329939  0.37578458  1
  V  V46  1  0.87566694  0.87478725  0.00093015  1
  V  V47  1  0.37556403  0.00013867  0.87579301  1
  V  V48  1  0.87532415  0.25005884  0.62469921  1
  V  V49  1  0.74979783  0.62567752  0.37476815  1
  V  V50  1  -0.00044894  0.12480817  0.12502819  1
  V  V51  1  0.25146657  0.62561671  0.87424639  1
  V  V52  1  0.87618590  0.00013657  0.87597295  1
  V  V53  1  0.74936003  -0.00000083  0.74940026  1
  V  V54  1  0.37542708  0.87588989  -0.00105570  1
  V  V55  1  0.62554439  -0.00043930  0.12541332  1
  V  V56  1  0.62455732  0.87510160  0.24875489  1
  V  V57  1  0.25097255  0.37372701  0.62427994  1
  V  V58  1  0.24950232  -0.00042219  0.24895224  1
  V  V59  1  0.62441083  0.12453031  0.50046679  1
  V  V60  1  0.75068023  0.24973184  0.49999304  1
  V  V61  1  0.12549159  0.37581338  0.75047144  1
  V  V62  1  0.00047655  0.24958477  0.75017204  1
  V  V63  1  0.74964009  0.87545901  0.62603363  1
  V  V64  1  0.87477143  0.37470643  -0.00044788  1
  V  V65  1  0.12452917  0.62446060  0.00154776  1
  V  V66  1  0.37450284  0.37453328  -0.00001162  1
  V  V67  1  0.24899979  0.12427646  0.37419358  1
  V  V68  1  0.62584884  0.50087452  0.62401421  1
  V  V69  1  0.87482536  0.24997754  0.12544553  1
  V  V70  1  0.62416369  0.37391465  0.74922484  1
  V  V71  1  0.49987739  0.50044483  -0.00282926  1
  V  V72  1  0.87606470  0.74989502  0.62582765  1
  V  V73  1  0.00047551  0.87494143  0.87598790  1
  V  V74  1  0.12573700  -0.00065169  0.62482426  1
  V  V75  1  0.37432917  0.74973034  0.12470733  1
  V  V76  1  0.12581716  0.62430893  0.50195410  1
  V  V77  1  0.50155577  0.75156843  0.74967734  1
  V  V78  1  0.75074894  0.74948381  -0.00018854  1
  V  V79  1  0.00081849  0.62395000  0.12509863  1
  V  V80  1  0.87534592  -0.00059492  0.37546805  1
  V  V81  1  0.50126168  0.25083253  0.74931748  1
  V  V82  1  0.62433726  0.74979812  0.37441597  1
  V  V83  1  -0.00000369  0.37519229  0.87550630  1
  V  V84  1  0.12438279  0.00047750  0.12546248  1
  V  V85  1  0.62514062  0.75171288  0.87412442  1
  V  V86  1  0.62510554  0.12539815  -0.00026156  1
  V  V87  1  0.25015943  0.74894139  0.49968445  1
  V  V88  1  -0.00053660  0.49932148  0.50045239  1
  V  V89  1  0.87542522  0.50035383  0.37595035  1
  V  V90  1  0.50027813  0.24951352  0.25021447  1
  V  V91  1  0.00011614  0.75050719  0.75087549  1
  V  V92  1  0.49866244  0.74935379  0.24847727  1
  V  V93  1  0.49953080  0.87420224  0.37457253  1
  V  V94  1  0.12484791  0.12494516  0.49933643  1
  V  V95  1  0.37521973  0.87369426  0.49934871  1
  Zn  Zn96  1  0.50196889  -0.00162999  -0.00037916  1
  Zn  Zn97  1  0.00106990  0.49927776  0.00169050  1
  Zn  Zn98  1  0.87528403  0.37470770  0.49901246  1
  Zn  Zn99  1  0.62531458  0.62461873  -0.00049714  1
  Zn  Zn100  1  0.62275476  -0.00181917  0.62659522  1
  Zn  Zn101  1  0.62314424  0.87756022  0.74959824  1
  Zn  Zn102  1  0.12591285  0.87624110  0.75082857  1
  Zn  Zn103  1  0.12310500  0.87539494  0.25151901  1
  Zn  Zn104  1  0.50043032  0.87624656  0.87414842  1
  Zn  Zn105  1  0.12388955  0.49880046  0.12309153  1
  Zn  Zn106  1  0.75007523  0.87461894  0.12485935  1
  Zn  Zn107  1  0.37491779  0.49986814  0.87217266  1
  Zn  Zn108  1  0.37353207  0.62427274  0.24940570  1
  Zn  Zn109  1  0.74968091  0.12485016  0.87418596  1
  Zn  Zn110  1  0.50113374  0.49789008  0.49952865  1
  Zn  Zn111  1  0.37692948  0.37202172  0.50038714  1
  Zn  Zn112  1  0.24856351  -0.00139248  0.75058659  1
  Zn  Zn113  1  0.25117627  0.25282069  0.00198367  1
  Zn  Zn114  1  0.37339708  0.25015199  0.12376092  1
  Zn  Zn115  1  0.87341322  0.12573556  0.24996438  1
  Zn  Zn116  1  0.25083545  0.24904824  0.49809561  1
  Zn  Zn117  1  0.00186535  0.87571989  0.37569105  1
  Zn  Zn118  1  0.74994816  0.37618693  0.12590997  1
  Zn  Zn119  1  0.50040966  0.37452364  0.87320326  1
  Zn  Zn120  1  0.62462943  0.25042906  0.87321131  1
  Zn  Zn121  1  0.62554709  0.25095900  0.37573526  1
  Zn  Zn122  1  0.25174526  0.50157864  0.75055621  1
  Zn  Zn123  1  -0.00008254  0.00001963  0.00082884  1
  Zn  Zn124  1  0.00008331  -0.00159445  0.49967155  1
  Zn  Zn125  1  0.25034682  0.37324711  0.12357635  1
  Zn  Zn126  1  -0.00237246  0.37281975  0.37598121  1
  Zn  Zn127  1  0.00160565  0.62564655  0.62745667  1
  Zn  Zn128  1  0.18913196  0.18898058  0.18479463  1
  Zn  Zn129  1  0.18810190  0.18680336  0.68891720  1
  Zn  Zn130  1  0.18621126  0.68681518  0.18862395  1
  Zn  Zn131  1  0.18722571  0.68859716  0.68864342  1
  Zn  Zn132  1  0.68721272  0.18803782  0.18819087  1
  Zn  Zn133  1  0.68660131  0.18620835  0.68466034  1
  Zn  Zn134  1  0.68611949  0.68693730  0.18581480  1
  Zn  Zn135  1  0.68884311  0.68759855  0.68852463  1
  Zn  Zn136  1  0.31211056  0.31094044  0.31128699  1
  Zn  Zn137  1  0.31428432  0.31354495  0.81359503  1
  Zn  Zn138  1  0.31128277  0.81217575  0.31115901  1
  Zn  Zn139  1  0.31220818  0.81292084  0.81122026  1
  Zn  Zn140  1  0.81248744  0.31455806  0.31385396  1
  Zn  Zn141  1  0.81147094  0.31165993  0.81306560  1
  Zn  Zn142  1  0.81190693  0.81405837  0.31184100  1
  Zn  Zn143  1  0.81364444  0.81407697  0.81311436  1
  Zn  Zn144  1  0.18589813  0.43453754  0.43792508  1
  Zn  Zn145  1  0.18905985  0.44087252  0.93658412  1
  Zn  Zn146  1  0.18688708  0.93695890  0.43811531  1
  Zn  Zn147  1  0.18772386  0.93926009  0.93907233  1
  Zn  Zn148  1  0.68800607  0.43699592  0.43743114  1
  Zn  Zn149  1  0.68587181  0.43558689  0.93581827  1
  Zn  Zn150  1  0.68699365  0.93795805  0.43820493  1
  Zn  Zn151  1  0.69024799  0.93668390  0.93743532  1
  Zn  Zn152  1  0.31146101  0.06326849  0.06141175  1
  Zn  Zn153  1  0.31112774  0.06191402  0.56120958  1
  Zn  Zn154  1  0.31252888  0.56175043  0.06266847  1
  Zn  Zn155  1  0.31302581  0.56076011  0.56296109  1
  Zn  Zn156  1  0.81278340  0.06201990  0.06385339  1
  Zn  Zn157  1  0.81229265  0.06279003  0.56267696  1
  Zn  Zn158  1  0.81270603  0.56264049  0.06186655  1
  Zn  Zn159  1  0.81339791  0.56396863  0.56335469  1
  Zn  Zn160  1  0.43745053  0.43643247  0.18620439  1
  Zn  Zn161  1  0.43787054  0.43878174  0.68690993  1
  Zn  Zn162  1  0.43791728  0.93801433  0.18539492  1
  Zn  Zn163  1  0.43587470  0.93704850  0.68901298  1
  Zn  Zn164  1  0.93720033  0.43757991  0.18668362  1
  Zn  Zn165  1  0.93823658  0.43676574  0.68730834  1
  Zn  Zn166  1  0.93782341  0.93663813  0.18872203  1
  Zn  Zn167  1  0.93829284  0.93678084  0.68777904  1
  Zn  Zn168  1  0.06088038  0.06277704  0.31046770  1
  Zn  Zn169  1  0.06366466  0.06110579  0.81238269  1
  Zn  Zn170  1  0.06172161  0.56347850  0.31435033  1
  Zn  Zn171  1  0.06346638  0.56249319  0.81395830  1
  Zn  Zn172  1  0.56303920  0.06288245  0.31358674  1
  Zn  Zn173  1  0.56210784  0.06450945  0.81337264  1
  Zn  Zn174  1  0.56094277  0.56281707  0.31098124  1
  Zn  Zn175  1  0.56289025  0.56375532  0.81134416  1
  Zn  Zn176  1  0.43678061  0.18825655  0.43708754  1
  Zn  Zn177  1  0.44005138  0.18981002  0.93614471  1
  Zn  Zn178  1  0.43754209  0.68463122  0.43670369  1
  Zn  Zn179  1  0.43776020  0.68789863  0.93672359  1
  Zn  Zn180  1  0.93750307  0.18600510  0.43786631  1
  Zn  Zn181  1  0.93797585  0.18655502  0.93781779  1
  Zn  Zn182  1  0.93867122  0.68667600  0.43826645  1
  Zn  Zn183  1  0.93832018  0.68693658  0.93841990  1
  Zn  Zn184  1  0.06165892  0.31186740  0.06291999  1
  Zn  Zn185  1  0.06393749  0.31205958  0.56168022  1
  Zn  Zn186  1  0.06165287  0.81215718  0.06407920  1
  Zn  Zn187  1  0.06135505  0.81366400  0.56172511  1
  Zn  Zn188  1  0.56092081  0.31378835  0.06549972  1
  Zn  Zn189  1  0.56239012  0.31232949  0.56151561  1
  Zn  Zn190  1  0.56177969  0.81351112  0.06020551  1
  Zn  Zn191  1  0.56407286  0.81358440  0.56356796  1
  O  O192  1  0.11952989  0.12014095  0.12026513  1
  O  O193  1  0.12119304  0.11965340  0.61985014  1
  O  O194  1  0.11835941  0.62468186  0.11914460  1
  O  O195  1  0.12522596  0.61849699  0.61904205  1
  O  O196  1  0.62053810  0.11953682  0.11795157  1
  O  O197  1  0.61662824  0.12145441  0.61804948  1
  O  O198  1  0.61705104  0.61877504  0.12220096  1
  O  O199  1  0.62168131  0.62083669  0.61984114  1
  O  O200  1  0.37965711  0.38278727  0.37512454  1
  O  O201  1  0.37896901  0.37957022  0.88446068  1
  O  O202  1  0.38003448  0.87929039  0.37988103  1
  O  O203  1  0.37360972  0.88454630  0.88022467  1
  O  O204  1  0.87762844  0.38494487  0.37832556  1
  O  O205  1  0.88014137  0.37910564  0.87918903  1
  O  O206  1  0.87273397  0.88484842  0.38117061  1
  O  O207  1  0.88103581  0.87986032  0.88140582  1
  O  O208  1  0.25581024  0.00423796  0.36918510  1
  O  O209  1  0.26024942  0.00682639  0.87473181  1
  O  O210  1  0.25589155  0.50235913  0.36887982  1
  O  O211  1  0.25313710  0.51098134  0.87103636  1
  O  O212  1  0.75648986  0.00483605  0.37082199  1
  O  O213  1  0.75711595  0.00117681  0.86516607  1
  O  O214  1  0.75490780  0.50723508  0.36992308  1
  O  O215  1  0.75513952  0.50443837  0.86886557  1
  O  O216  1  0.24817190  0.49864420  0.13924436  1
  O  O217  1  0.24450392  0.49033660  0.62594345  1
  O  O218  1  0.24471234  0.99522791  0.13003364  1
  O  O219  1  0.24351188  0.99322775  0.62508728  1
  O  O220  1  0.74337303  0.50050265  0.13175825  1
  O  O221  1  0.74593934  0.49529691  0.63067205  1
  O  O222  1  0.74334226  0.99829313  0.13248410  1
  O  O223  1  0.75086130  0.99476929  0.63485232  1
  O  O224  1  0.00850556  0.36971466  0.25189322  1
  O  O225  1  0.00553519  0.36877883  0.75528244  1
  O  O226  1  0.00174270  0.86559380  0.25385517  1
  O  O227  1  0.00028621  0.86773019  0.75813044  1
  O  O228  1  0.50450376  0.37015445  0.25540349  1
  O  O229  1  0.50678681  0.36863891  0.74740961  1
  O  O230  1  0.50458913  0.86938236  0.25532288  1
  O  O231  1  0.50237024  0.86709986  0.75251423  1
  O  O232  1  0.49552064  0.12923438  0.24587215  1
  O  O233  1  0.49420487  0.13010023  0.74355250  1
  O  O234  1  0.49741954  0.63198606  0.24287520  1
  O  O235  1  0.49583578  0.63195376  0.74290586  1
  O  O236  1  0.99741342  0.13258763  0.24257929  1
  O  O237  1  0.99575441  0.13076913  0.74442595  1
  O  O238  1  0.99373508  0.63043831  0.24615922  1
  O  O239  1  0.99351769  0.63184669  0.75023726  1
  O  O240  1  0.37659589  0.26251429  0.00005004  1
  O  O241  1  0.37103862  0.25120399  0.50826062  1
  O  O242  1  0.36896531  0.75543075  0.00515076  1
  O  O243  1  0.37025869  0.75402023  0.50411890  1
  O  O244  1  0.86681239  0.25405474  0.00433954  1
  O  O245  1  0.86948410  0.25091377  0.50722792  1
  O  O246  1  0.87002855  0.75444219  0.00536822  1
  O  O247  1  0.86883192  0.75404882  0.50490564  1
  O  O248  1  0.12622567  0.24284019  0.49235346  1
  O  O249  1  0.12564737  0.24457544  0.99288327  1
  O  O250  1  0.13098120  0.74377412  0.49588792  1
  O  O251  1  0.13091119  0.74468267  0.99546374  1
  O  O252  1  0.63243674  0.24260800  0.49927497  1
  O  O253  1  0.63312963  0.24245826  1.00284154  1
  O  O254  1  0.63082051  0.74517076  0.49387972  1
  O  O255  1  0.63076234  0.74840338  0.99017968  1
  O  O256  1  0.49840413  0.24240467  0.13299942  1
  O  O257  1  0.49359383  0.24356419  0.62944819  1
  O  O258  1  0.49414166  0.74570771  0.12885837  1
  O  O259  1  0.49547771  0.74469562  0.62908064  1
  O  O260  1  0.99414371  0.24449169  0.13047065  1
  O  O261  1  0.99598384  0.24476648  0.63091522  1
  O  O262  1  0.99375488  0.74367381  0.13200938  1
  O  O263  1  0.99345656  0.74870641  0.63175630  1
  O  O264  1  0.00564932  0.24990665  0.36797416  1
  O  O265  1  0.00544813  0.25539615  0.86882401  1
  O  O266  1  0.00617598  0.74933197  0.36966957  1
  O  O267  1  0.00497503  0.75522928  0.87055691  1
  O  O268  1  0.50152643  0.25651333  0.36832985  1
  O  O269  1  0.50389099  0.25234923  0.86400595  1
  O  O270  1  0.50453237  0.75454188  0.36931940  1
  O  O271  1  0.51007221  0.74966130  0.86900649  1
  O  O272  1  0.24304118  0.12527036  0.49154467  1
  O  O273  1  0.24338392  0.12785571  0.99301776  1
  O  O274  1  0.24531971  0.62931776  0.49539974  1
  O  O275  1  0.24542463  0.63143260  0.99556579  1
  O  O276  1  0.74422808  0.12998187  0.49612367  1
  O  O277  1  0.74141681  0.13367056  1.00121840  1
  O  O278  1  0.74506614  0.63140790  0.49434565  1
  O  O279  1  0.74911600  0.63126246  0.99203979  1
  O  O280  1  0.26157060  0.37750793  0.00125307  1
  O  O281  1  0.24988132  0.37222382  0.51286131  1
  O  O282  1  0.25545573  0.86930255  0.00619029  1
  O  O283  1  0.25690387  0.86821322  0.50440072  1
  O  O284  1  0.75465146  0.36514637  0.00099996  1
  O  O285  1  0.75157931  0.36885433  0.50699790  1
  O  O286  1  0.75789624  0.86719678  0.00154010  1
  O  O287  1  0.75470356  0.86918545  0.50535657  1
  O  O288  1  0.13241238  0.49145298  0.25355113  1
  O  O289  1  0.12588871  0.49331082  0.74367262  1
  O  O290  1  0.13201638  0.99911031  0.24363677  1
  O  O291  1  0.12828011  0.99756674  0.74041823  1
  O  O292  1  0.62962923  0.49622053  0.24480703  1
  O  O293  1  0.63144531  0.49578524  0.74340709  1
  O  O294  1  0.62908480  0.99431983  0.24596041  1
  O  O295  1  0.63667384  1.00001496  0.75016823  1
  O  O296  1  0.37009807  0.00477748  0.25505179  1
  O  O297  1  0.37283074  0.00633837  0.75966485  1
  O  O298  1  0.36491923  0.49865489  0.25961399  1
  O  O299  1  0.37422877  0.51036386  0.75082015  1
  O  O300  1  0.86764379  0.00040090  0.25983298  1
  O  O301  1  0.86783883  0.00496353  0.75478654  1
  O  O302  1  0.86957084  0.50656937  0.25550307  1
  O  O303  1  0.86969478  0.50430405  0.75523546  1
  O  O304  1  0.12294527  0.36810243  0.36487274  1
  O  O305  1  0.12016966  0.37050305  0.86995100  1
  O  O306  1  0.12371034  0.86619872  0.37351737  1
  O  O307  1  0.11926488  0.86892094  0.87594278  1
  O  O308  1  0.61763573  0.37556277  0.36814506  1
  O  O309  1  0.62262088  0.37210698  0.86432598  1
  O  O310  1  0.61873517  0.86894840  0.36989394  1
  O  O311  1  0.62490183  0.86309253  0.87299892  1
  O  O312  1  0.38230990  0.12400652  0.13128315  1
  O  O313  1  0.37892033  0.12910484  0.63021538  1
  O  O314  1  0.38037317  0.63206403  0.12682659  1
  O  O315  1  0.38084966  0.63088892  0.62846561  1
  O  O316  1  0.88101839  0.13182670  0.12657806  1
  O  O317  1  0.88138976  0.13043757  0.63048757  1
  O  O318  1  0.88010441  0.63042688  0.13110337  1
  O  O319  1  0.87611278  0.63227934  0.63275828  1
  O  O320  1  0.25517690  0.25477828  0.12063544  1
  O  O321  1  0.25472469  0.25866000  0.62519747  1
  O  O322  1  0.25465954  0.75480401  0.12022456  1
  O  O323  1  0.25612977  0.75430176  0.61799874  1
  O  O324  1  0.75540287  0.25137740  0.11530260  1
  O  O325  1  0.75639529  0.25452658  0.61985424  1
  O  O326  1  0.75634327  0.75004222  0.11865061  1
  O  O327  1  0.75605098  0.75501307  0.61985564  1
  O  O328  1  0.24244484  0.24177230  0.37417593  1
  O  O329  1  0.24338727  0.24479791  0.87657398  1
  O  O330  1  0.24589646  0.74339307  0.38059014  1
  O  O331  1  0.24490215  0.74570500  0.88164995  1
  O  O332  1  0.74956490  0.24354941  0.38189786  1
  O  O333  1  0.74823074  0.24662102  0.88760064  1
  O  O334  1  0.74407261  0.74493584  0.37994141  1
  O  O335  1  0.74396134  0.74501355  0.87873318  1
  O  O336  1  0.00703516  0.12426788  0.00727400  1
  O  O337  1  0.00676597  0.12290619  0.50733951  1
  O  O338  1  0.00645646  0.62459816  0.00699102  1
  O  O339  1  0.00645217  0.61497470  0.50282851  1
  O  O340  1  0.51135459  0.12568489  0.00614829  1
  O  O341  1  0.50379678  0.11895637  0.50434573  1
  O  O342  1  0.50017830  0.61587506  0.00544412  1
  O  O343  1  0.50778591  0.62384298  0.50592684  1
  O  O344  1  0.49810110  0.37794616  0.49124043  1
  O  O345  1  0.49382946  0.38512136  0.99970348  1
  O  O346  1  0.49456995  0.87888402  0.49411288  1
  O  O347  1  0.49100707  0.87800080  0.99565225  1
  O  O348  1  0.99963420  0.38735229  0.49881787  1
  O  O349  1  0.99294020  0.37514107  0.99283855  1
  O  O350  1  0.99014736  0.87752960  0.49663299  1
  O  O351  1  0.99296721  0.87540011  0.99390165  1
  O  O352  1  0.48973744  0.49446552  0.37331823  1
  O  O353  1  0.49972123  0.50071573  0.88633382  1
  O  O354  1  0.49391265  0.99344501  0.37986520  1
  O  O355  1  0.48750849  0.99984110  0.87648801  1
  O  O356  1  0.99465853  0.50061368  0.38521150  1
  O  O357  1  0.99276801  0.49263161  0.87580866  1
  O  O358  1  0.98694836  0.99965244  0.37568591  1
  O  O359  1  0.99367082  0.99353405  0.87641184  1
  O  O360  1  0.00580221  0.00660870  0.12484833  1
  O  O361  1  0.00691218  0.00645804  0.62408924  1
  O  O362  1  0.00185384  0.50910833  0.12382128  1
  O  O363  1  0.00613047  0.50130291  0.61694784  1
  O  O364  1  0.50774931  0.00704488  0.12305849  1
  O  O365  1  0.49816811  0.00593502  0.61832668  1
  O  O366  1  0.50435575  0.50575630  0.11724791  1
  O  O367  1  0.50783682  0.50749322  0.62254316  1
  O  O368  1  0.24050552  0.38296277  0.25144011  1
  O  O369  1  0.24458541  0.37617614  0.73990282  1
  O  O370  1  0.24919049  0.88188415  0.24281708  1
  O  O371  1  0.24795623  0.87602177  0.74018015  1
  O  O372  1  0.74295505  0.38323425  0.24950123  1
  O  O373  1  0.74515345  0.37970773  0.74378873  1
  O  O374  1  0.74127613  0.88110376  0.24898156  1
  O  O375  1  0.75159212  0.88535795  0.74483541  1
  O  O376  1  0.25553503  0.11853569  0.25472118  1
  O  O377  1  0.25752935  0.12423947  0.75796661  1
  O  O378  1  0.24903168  0.61400836  0.25756563  1
  O  O379  1  0.25746723  0.62678930  0.75607784  1
  O  O380  1  0.75009085  0.11838993  0.25718587  1
  O  O381  1  0.75649151  0.11619473  0.74945432  1
  O  O382  1  0.75473220  0.62063093  0.25592746  1
  O  O383  1  0.75653636  0.61860621  0.75540901  1
  O  O384  1  0.36984443  0.11811244  0.36888573  1
  O  O385  1  0.37114636  0.11833414  0.87135080  1
  O  O386  1  0.36872267  0.61454942  0.37296031  1
  O  O387  1  0.36883665  0.62684826  0.86786275  1
  O  O388  1  0.86771446  0.11473170  0.37473461  1
  O  O389  1  0.87418286  0.11876824  0.86813536  1
  O  O390  1  0.86860506  0.62075783  0.36976921  1
  O  O391  1  0.86994770  0.61935943  0.86965489  1
  O  O392  1  0.12537624  0.37664111  0.13850044  1
  O  O393  1  0.13252466  0.37860908  0.63091081  1
  O  O394  1  0.13159717  0.88144453  0.12623647  1
  O  O395  1  0.13159941  0.88184690  0.62412532  1
  O  O396  1  0.62592753  0.38318350  0.13287042  1
  O  O397  1  0.63163969  0.38117728  0.62948752  1
  O  O398  1  0.62555075  0.88106713  0.13102194  1
  O  O399  1  0.63377216  0.87765458  0.62826461  1
  O  O400  1  0.11935283  0.25689314  0.25432400  1
  O  O401  1  0.11907800  0.25552269  0.75589852  1
  O  O402  1  0.11858447  0.74976324  0.25773145  1
  O  O403  1  0.11824071  0.75188740  0.75754733  1
  O  O404  1  0.61891228  0.25701673  0.25209354  1
  O  O405  1  0.61938230  0.25548310  0.74780513  1
  O  O406  1  0.61882519  0.75485723  0.25510052  1
  O  O407  1  0.62144091  0.75072007  0.75906353  1
  O  O408  1  0.38222837  0.24217987  0.24946126  1
  O  O409  1  0.38115098  0.24441668  0.74401146  1
  O  O410  1  0.38069967  0.74866026  0.24299514  1
  O  O411  1  0.38147836  0.74520290  0.74307168  1
  O  O412  1  0.88022187  0.24999414  0.24392490  1
  O  O413  1  0.88057620  0.24442808  0.74511660  1
  O  O414  1  0.87871867  0.74390065  0.24601488  1
  O  O415  1  0.87972716  0.74471121  0.74576028  1
  O  O416  1  0.37555646  0.49729023  0.48682352  1
  O  O417  1  0.38510031  0.49363868  0.99978483  1
  O  O418  1  0.37994172  0.99351832  0.49312704  1
  O  O419  1  0.37589619  0.99551444  0.99050257  1
  O  O420  1  0.88389628  0.50132132  0.49588294  1
  O  O421  1  0.87498720  0.49273735  0.99255126  1
  O  O422  1  0.87355367  0.99454554  0.49072301  1
  O  O423  1  0.87550852  0.99361993  0.99402968  1
  O  O424  1  0.12354443  0.00787997  0.00760322  1
  O  O425  1  0.12305852  0.00665528  0.50670481  1
  O  O426  1  0.12281461  0.50857503  0.00274165  1
  O  O427  1  0.11815219  0.50417141  0.50484942  1
  O  O428  1  0.62680938  0.00959662  0.00503636  1
  O  O429  1  0.61709453  0.00557951  0.50143937  1
  O  O430  1  0.61575437  0.50033571  0.00489921  1
  O  O431  1  0.62593965  0.50798594  0.50631318  1
  O  O432  1  0.37443347  0.37416908  0.11319225  1
  O  O433  1  0.36585030  0.36965619  0.62487600  1
  O  O434  1  0.36885433  0.87010434  0.11900743  1
  O  O435  1  0.37029536  0.86850202  0.61810168  1
  O  O436  1  0.87304193  0.36819466  0.11784066  1
  O  O437  1  0.86876865  0.36784832  0.62458646  1
  O  O438  1  0.87383235  0.86734744  0.11932609  1
  O  O439  1  0.86940224  0.86927285  0.61944935  1
  O  O440  1  0.12961599  0.12831714  0.37894423  1
  O  O441  1  0.12999126  0.13043712  0.87990918  1
  O  O442  1  0.13099388  0.62965145  0.38261453  1
  O  O443  1  0.13067817  0.63216447  0.88106578  1
  O  O444  1  0.63122304  0.12586625  0.38272539  1
  O  O445  1  0.62757271  0.12720529  0.88788832  1
  O  O446  1  0.62973487  0.63066818  0.37926693  1
  O  O447  1  0.63204807  0.63546260  0.87491984  1
