# generated using pymatgen
data_V3Zn3O8
_symmetry_space_group_name_H-M   'P 1'
_cell_length_a   17.08890788
_cell_length_b   17.08824014
_cell_length_c   17.08737681
_cell_angle_alpha   90.00504974
_cell_angle_beta   89.99149410
_cell_angle_gamma   89.99983822
_symmetry_Int_Tables_number   1
_chemical_formula_structural   V3Zn3O8
_chemical_formula_sum   'V96 Zn96 O256'
_cell_volume   4989.84479272
_cell_formula_units_Z   32
loop_
 _symmetry_equiv_pos_site_id
 _symmetry_equiv_pos_as_xyz
  1  'x, y, z'
loop_
 _atom_site_type_symbol
 _atom_site_label
 _atom_site_symmetry_multiplicity
 _atom_site_fract_x
 _atom_site_fract_y
 _atom_site_fract_z
 _atom_site_occupancy
  V  V0  1  0.62562931  0.12568975  -0.00180670  1
  V  V1  1  0.37558011  0.12593776  0.24880104  1
  V  V2  1  0.12471092  0.62424313  0.00126456  1
  V  V3  1  0.12506268  0.87317102  0.75020436  1
  V  V4  1  0.74943647  0.37580714  0.62523743  1
  V  V5  1  0.75135093  0.37494542  0.12519223  1
  V  V6  1  0.87398116  0.37483985  0.50100036  1
  V  V7  1  0.37452967  0.87461667  0.00041169  1
  V  V8  1  0.49919967  0.37477127  0.87606242  1
  V  V9  1  0.62399894  0.62686271  0.50167900  1
  V  V10  1  -0.00050850  -0.00064641  -0.00131959  1
  V  V11  1  0.87422611  0.25151486  0.12446027  1
  V  V12  1  -0.00056559  0.12472703  0.12397277  1
  V  V13  1  0.75003255  0.12426848  0.87316369  1
  V  V14  1  -0.00166952  0.37489830  0.87584680  1
  V  V15  1  0.12618070  -0.00059630  0.62392376  1
  V  V16  1  -0.00012367  -0.00071335  0.49876338  1
  V  V17  1  0.12435751  0.24909907  0.87420449  1
  V  V18  1  0.62542865  0.62519847  0.00084197  1
  V  V19  1  0.87568531  0.12480471  0.74791132  1
  V  V20  1  0.87396333  0.50103712  0.37583769  1
  V  V21  1  0.12424034  0.62435741  0.50021318  1
  V  V22  1  0.25057821  0.24955307  0.49968042  1
  V  V23  1  0.62264174  0.87451247  0.25096283  1
  V  V24  1  0.24934368  0.62281107  0.87591248  1
  V  V25  1  0.87624961  0.00056891  0.37457581  1
  V  V26  1  -0.00052992  0.49939140  0.50009119  1
  V  V27  1  0.37612547  0.24958201  0.62685231  1
  V  V28  1  0.00064598  0.37424894  0.37512425  1
  V  V29  1  0.25081481  -0.00127205  0.75003051  1
  V  V30  1  0.75015105  0.12632117  0.37448554  1
  V  V31  1  0.12534932  0.49838324  0.62628876  1
  V  V32  1  0.12544193  0.87499552  0.25013826  1
  V  V33  1  0.37664195  -0.00093540  0.37543605  1
  V  V34  1  0.24954368  0.12298001  0.87451651  1
  V  V35  1  0.62559042  0.00133668  0.12324486  1
  V  V36  1  0.24996114  0.62438349  0.37548008  1
  V  V37  1  0.87571205  0.87508431  -0.00255658  1
  V  V38  1  0.12448052  0.49727836  0.12717047  1
  V  V39  1  0.49886565  0.50001654  0.00180846  1
  V  V40  1  0.00005095  0.75096336  0.24982208  1
  V  V41  1  0.62495140  0.25000982  0.87467339  1
  V  V42  1  -0.00037401  0.62529315  0.12563707  1
  V  V43  1  0.00052090  0.24846877  0.74910789  1
  V  V44  1  0.75066355  0.75044115  -0.00069299  1
  V  V45  1  0.25074768  0.87354741  0.62478519  1
  V  V46  1  0.00086324  0.25064294  0.25139302  1
  V  V47  1  0.37397524  -0.00093786  0.87431265  1
  V  V48  1  0.75078642  0.00182389  0.24847891  1
  V  V49  1  0.37536181  0.62346642  0.75220765  1
  V  V50  1  0.25071911  0.12519052  0.37481848  1
  V  V51  1  0.62481690  0.37622224  0.25083673  1
  V  V52  1  0.49956353  -0.00112972  0.49810527  1
  V  V53  1  0.74967060  0.50108338  0.25122812  1
  V  V54  1  0.24993214  0.74925722  0.00118986  1
  V  V55  1  0.62518394  -0.00029296  0.62472587  1
  V  V56  1  0.49960495  0.00055098  -0.00093598  1
  V  V57  1  0.87618359  0.49875999  0.87588259  1
  V  V58  1  0.50009305  0.12521689  0.62556888  1
  V  V59  1  0.87516815  0.12560633  0.24888679  1
  V  V60  1  0.25066946  0.25153731  0.00177991  1
  V  V61  1  0.74844146  0.62857735  0.37573805  1
  V  V62  1  0.62514647  0.75038451  0.87484184  1
  V  V63  1  0.37614471  0.74935120  0.12710017  1
  V  V64  1  0.00007708  0.87391408  0.87426737  1
  V  V65  1  0.12440780  0.75017839  0.37466369  1
  V  V66  1  0.37429060  0.50028511  0.37563233  1
  V  V67  1  0.37588218  0.62591530  0.24989866  1
  V  V68  1  0.50001073  0.37570148  0.37553155  1
  V  V69  1  0.12571572  0.37467011  0.74931799  1
  V  V70  1  0.87598288  0.74979105  0.12489243  1
  V  V71  1  0.74979966  0.49922314  0.75017428  1
  V  V72  1  0.87290814  0.75314244  0.62182095  1
  V  V73  1  0.87526228  0.62461627  0.74981773  1
  V  V74  1  0.50028313  0.87389824  0.87532498  1
  V  V75  1  0.00098874  0.74995655  0.74985792  1
  V  V76  1  0.37470366  0.37519697  0.50099582  1
  V  V77  1  -0.00019336  0.62481612  0.62489009  1
  V  V78  1  0.62658377  0.87554155  0.74814817  1
  V  V79  1  0.12311976  0.12375593  -0.00039722  1
  V  V80  1  0.62567544  0.50086153  0.12581509  1
  V  V81  1  0.37606025  0.74813831  0.62546381  1
  V  V82  1  0.24973873  0.74934291  0.50039015  1
  V  V83  1  0.62555585  0.37603915  0.75062914  1
  V  V84  1  0.75052185  0.87610289  0.12290038  1
  V  V85  1  0.74991744  0.25161466  0.50055428  1
  V  V86  1  0.49991092  0.50141067  0.50168566  1
  V  V87  1  0.62483002  0.25099496  0.37539938  1
  V  V88  1  0.62504860  0.12528084  0.50012907  1
  V  V89  1  0.49965765  0.25011416  0.24922558  1
  V  V90  1  0.49991713  0.12676899  0.12428047  1
  V  V91  1  0.12715461  0.12445828  0.49960259  1
  V  V92  1  0.24942868  0.49872060  0.25027336  1
  V  V93  1  0.75075399  0.62434742  0.87498205  1
  V  V94  1  0.24983681  0.87561038  0.12544349  1
  V  V95  1  0.24996205  0.00034915  0.24933139  1
  Zn  Zn96  1  0.49872514  0.87276951  0.37516842  1
  Zn  Zn97  1  0.12434390  0.74863014  0.87574023  1
  Zn  Zn98  1  -0.00199295  0.87426401  0.37391901  1
  Zn  Zn99  1  0.12447217  -0.00057194  0.12499364  1
  Zn  Zn100  1  0.25042790  0.49700689  0.75021512  1
  Zn  Zn101  1  0.49987962  0.24847091  0.75120253  1
  Zn  Zn102  1  0.37482263  0.25289764  0.12439778  1
  Zn  Zn103  1  0.25140266  0.37369941  0.12713958  1
  Zn  Zn104  1  0.37695740  0.87343852  0.49804007  1
  Zn  Zn105  1  0.75237678  -0.00038626  0.74599898  1
  Zn  Zn106  1  0.74837833  0.75450640  0.49869483  1
  Zn  Zn107  1  0.37378662  0.49783319  0.87587699  1
  Zn  Zn108  1  0.50115973  0.74808329  0.75057008  1
  Zn  Zn109  1  0.50089069  0.74867766  0.25126238  1
  Zn  Zn110  1  0.87678082  0.24992231  0.62355573  1
  Zn  Zn111  1  0.25064464  0.37582772  0.62727751  1
  Zn  Zn112  1  0.12590708  0.25100100  0.37459792  1
  Zn  Zn113  1  0.75134873  0.25172444  0.00022205  1
  Zn  Zn114  1  0.87445746  -0.00168056  0.87207425  1
  Zn  Zn115  1  0.87444727  0.62676814  0.25076206  1
  Zn  Zn116  1  0.62369485  0.50156401  0.62688146  1
  Zn  Zn117  1  0.62256927  0.75339242  0.37626102  1
  Zn  Zn118  1  0.37632360  0.12435293  0.75074158  1
  Zn  Zn119  1  0.50159521  0.62366627  0.62821076  1
  Zn  Zn120  1  0.50110395  0.62695277  0.12745054  1
  Zn  Zn121  1  0.75013720  0.87718038  0.62106665  1
  Zn  Zn122  1  0.12673087  0.37244635  0.25220624  1
  Zn  Zn123  1  0.87138823  0.87608402  0.49739348  1
  Zn  Zn124  1  0.37225039  0.37599730  0.00153996  1
  Zn  Zn125  1  -0.00183334  0.49823742  0.00178032  1
  Zn  Zn126  1  0.87484517  0.37493431  0.00039808  1
  Zn  Zn127  1  0.00088637  0.12581874  0.62464134  1
  Zn  Zn128  1  0.18483639  0.18625626  0.18706807  1
  Zn  Zn129  1  0.18892469  0.18612570  0.68661799  1
  Zn  Zn130  1  0.18778665  0.68657054  0.18812052  1
  Zn  Zn131  1  0.18801347  0.68581240  0.68819802  1
  Zn  Zn132  1  0.68703291  0.18929606  0.18691119  1
  Zn  Zn133  1  0.68705766  0.18988566  0.68750214  1
  Zn  Zn134  1  0.68804397  0.68877927  0.18698992  1
  Zn  Zn135  1  0.68876557  0.68807586  0.68732885  1
  Zn  Zn136  1  0.31248090  0.31283966  0.31231305  1
  Zn  Zn137  1  0.31216454  0.31214251  0.81345505  1
  Zn  Zn138  1  0.31282144  0.81295411  0.31269085  1
  Zn  Zn139  1  0.31146634  0.81017039  0.81305524  1
  Zn  Zn140  1  0.81382445  0.31346303  0.31243426  1
  Zn  Zn141  1  0.81327075  0.31073933  0.81172637  1
  Zn  Zn142  1  0.81253591  0.81448656  0.31149287  1
  Zn  Zn143  1  0.81267297  0.81140047  0.81032394  1
  Zn  Zn144  1  0.18712401  0.43543745  0.43880878  1
  Zn  Zn145  1  0.18367602  0.43721092  0.93812813  1
  Zn  Zn146  1  0.18899049  0.93614347  0.43637519  1
  Zn  Zn147  1  0.18551801  0.93637027  0.93744533  1
  Zn  Zn148  1  0.68695885  0.44056179  0.43905657  1
  Zn  Zn149  1  0.68817402  0.43704077  0.93907340  1
  Zn  Zn150  1  0.68945178  0.93861338  0.43748315  1
  Zn  Zn151  1  0.68796055  0.93901127  0.93485086  1
  Zn  Zn152  1  0.31237314  0.06377050  0.06289328  1
  Zn  Zn153  1  0.31418234  0.06208480  0.56194707  1
  Zn  Zn154  1  0.31257226  0.56256640  0.06465135  1
  Zn  Zn155  1  0.31078056  0.56173499  0.56426550  1
  Zn  Zn156  1  0.81404813  0.06311584  0.05988790  1
  Zn  Zn157  1  0.81178618  0.06257145  0.56288575  1
  Zn  Zn158  1  0.81395442  0.56160830  0.06217047  1
  Zn  Zn159  1  0.81097533  0.56292299  0.56295933  1
  Zn  Zn160  1  0.43474899  0.43605992  0.18597476  1
  Zn  Zn161  1  0.43847845  0.43881281  0.68806897  1
  Zn  Zn162  1  0.43734802  0.93917285  0.18659486  1
  Zn  Zn163  1  0.43897834  0.93611047  0.68708398  1
  Zn  Zn164  1  0.93678034  0.43754918  0.19022219  1
  Zn  Zn165  1  0.93758245  0.43579984  0.68836597  1
  Zn  Zn166  1  0.93865403  0.93724303  0.18606530  1
  Zn  Zn167  1  0.93916217  0.93844053  0.68650023  1
  Zn  Zn168  1  0.06400233  0.06339020  0.31252874  1
  Zn  Zn169  1  0.06221386  0.06023084  0.81257890  1
  Zn  Zn170  1  0.06149668  0.56310448  0.31163362  1
  Zn  Zn171  1  0.06209936  0.56093568  0.81235815  1
  Zn  Zn172  1  0.56230065  0.06209284  0.31203298  1
  Zn  Zn173  1  0.56157738  0.06149379  0.81033405  1
  Zn  Zn174  1  0.56114385  0.56382041  0.31409279  1
  Zn  Zn175  1  0.56270974  0.56152706  0.81433839  1
  Zn  Zn176  1  0.43744927  0.18659051  0.43760774  1
  Zn  Zn177  1  0.43563054  0.18734474  0.93735093  1
  Zn  Zn178  1  0.44004701  0.68933466  0.43535777  1
  Zn  Zn179  1  0.43784732  0.68756675  0.93884673  1
  Zn  Zn180  1  0.93807714  0.18729773  0.43745328  1
  Zn  Zn181  1  0.93575756  0.18869926  0.93727356  1
  Zn  Zn182  1  0.93754719  0.68776148  0.43713629  1
  Zn  Zn183  1  0.93904793  0.68657834  0.93792683  1
  Zn  Zn184  1  0.06124327  0.31264155  0.06196638  1
  Zn  Zn185  1  0.06274457  0.31110710  0.56314149  1
  Zn  Zn186  1  0.06362629  0.81213456  0.06273791  1
  Zn  Zn187  1  0.06129943  0.81353892  0.56221923  1
  Zn  Zn188  1  0.56544524  0.31234332  0.06242016  1
  Zn  Zn189  1  0.56269461  0.31386137  0.56383645  1
  Zn  Zn190  1  0.56161168  0.81217886  0.06399574  1
  Zn  Zn191  1  0.56009562  0.81207450  0.56208030  1
  O  O192  1  0.11639191  0.12243933  0.11743929  1
  O  O193  1  0.12579338  0.11622207  0.61786190  1
  O  O194  1  0.12032041  0.61676565  0.12136190  1
  O  O195  1  0.11890075  0.61987507  0.61964131  1
  O  O196  1  0.62031271  0.12026913  0.11892156  1
  O  O197  1  0.61993259  0.12086144  0.61933697  1
  O  O198  1  0.62490090  0.61891331  0.11842054  1
  O  O199  1  0.62396110  0.62396059  0.61515789  1
  O  O200  1  0.38119423  0.38079341  0.38093899  1
  O  O201  1  0.38664469  0.37667724  0.87812452  1
  O  O202  1  0.37606132  0.88411621  0.37668627  1
  O  O203  1  0.37962093  0.87855000  0.88093918  1
  O  O204  1  0.87943957  0.38179058  0.38173042  1
  O  O205  1  0.88080443  0.38077652  0.87402084  1
  O  O206  1  0.87752805  0.88498220  0.37585622  1
  O  O207  1  0.88103475  0.87504740  0.87951880  1
  O  O208  1  0.25652774  0.00559821  0.36934557  1
  O  O209  1  0.25475518  0.00299039  0.87014828  1
  O  O210  1  0.25506977  0.50547897  0.37151074  1
  O  O211  1  0.25183296  0.51186896  0.87662028  1
  O  O212  1  0.75576539  0.00838869  0.36830185  1
  O  O213  1  0.75067143  0.01316015  0.87074782  1
  O  O214  1  0.75397244  0.50871499  0.37107927  1
  O  O215  1  0.75523343  0.50543947  0.86974057  1
  O  O216  1  0.23948224  0.50067034  0.13100450  1
  O  O217  1  0.24086759  0.49733702  0.62786340  1
  O  O218  1  0.24930092  0.99362681  0.13123209  1
  O  O219  1  0.24624595  0.99325378  0.62976446  1
  O  O220  1  0.74494285  0.49582453  0.13169649  1
  O  O221  1  0.74882758  0.49400573  0.63279378  1
  O  O222  1  0.74542803  0.99616275  0.12847205  1
  O  O223  1  0.74047838  0.99839477  0.62671544  1
  O  O224  1  0.00007811  0.36831202  0.25811733  1
  O  O225  1  0.00537438  0.36780509  0.75570088  1
  O  O226  1  0.00718410  0.86869585  0.24996834  1
  O  O227  1  0.00594095  0.86977338  0.75424994  1
  O  O228  1  0.50530350  0.37087176  0.25632149  1
  O  O229  1  0.50575825  0.37674207  0.76224649  1
  O  O230  1  0.51330159  0.87764536  0.24840258  1
  O  O231  1  0.51010224  0.87270851  0.75666736  1
  O  O232  1  0.49611414  0.13061123  0.24399646  1
  O  O233  1  0.49695833  0.12756182  0.74190984  1
  O  O234  1  0.49158338  0.62567334  0.24792511  1
  O  O235  1  0.48906687  0.62683823  0.75146529  1
  O  O236  1  0.99405574  0.12958702  0.24451222  1
  O  O237  1  0.99131328  0.12927267  0.75067977  1
  O  O238  1  0.99792838  0.63317584  0.24409746  1
  O  O239  1  0.99456084  0.62992914  0.74420277  1
  O  O240  1  0.36176166  0.24977116  0.00027842  1
  O  O241  1  0.37159742  0.25479380  0.50767283  1
  O  O242  1  0.36953825  0.75545907  0.00618781  1
  O  O243  1  0.36844684  0.74749915  0.51031593  1
  O  O244  1  0.87197667  0.25191125  0.00918760  1
  O  O245  1  0.86757575  0.25634263  0.50004952  1
  O  O246  1  0.86954492  0.75542380  0.00464117  1
  O  O247  1  0.87604952  0.75157971  0.51112675  1
  O  O248  1  0.13263216  0.24254018  0.49942044  1
  O  O249  1  0.13113106  0.24354316  0.99360414  1
  O  O250  1  0.12921189  0.74377298  0.49559216  1
  O  O251  1  0.13261628  0.74211908  0.99994918  1
  O  O252  1  0.62961307  0.24535252  0.49407647  1
  O  O253  1  0.62745129  0.24249166  0.99274521  1
  O  O254  1  0.62626050  0.73896488  0.49884316  1
  O  O255  1  0.63143792  0.74595079  0.99526382  1
  O  O256  1  0.50113675  0.24398329  0.13130100  1
  O  O257  1  0.49090347  0.24476119  0.62423960  1
  O  O258  1  0.49157108  0.74784373  0.12749222  1
  O  O259  1  0.48681408  0.74622129  0.62747844  1
  O  O260  1  0.99424054  0.24430396  0.13083989  1
  O  O261  1  0.99791318  0.24557649  0.63283279  1
  O  O262  1  0.99516920  0.74511740  0.13015748  1
  O  O263  1  0.99279134  0.74448208  0.62958049  1
  O  O264  1  0.00013412  0.25606291  0.36914280  1
  O  O265  1  0.00581974  0.25419527  0.86910935  1
  O  O266  1  0.00658063  0.75081213  0.36894329  1
  O  O267  1  0.00139375  0.75524434  0.86744948  1
  O  O268  1  0.50575910  0.25565140  0.37002761  1
  O  O269  1  0.50505224  0.25980651  0.87588400  1
  O  O270  1  0.50457222  0.75526189  0.36903994  1
  O  O271  1  0.50717361  0.75662827  0.87580529  1
  O  O272  1  0.24654882  0.12924005  0.49408905  1
  O  O273  1  0.24347424  0.13104479  0.99426377  1
  O  O274  1  0.24346387  0.62964846  0.49480661  1
  O  O275  1  0.24602998  0.62932134  0.99362343  1
  O  O276  1  0.74444180  0.13120129  0.49364792  1
  O  O277  1  0.74423124  0.12537394  0.98931990  1
  O  O278  1  0.74111642  0.62482729  0.49146088  1
  O  O279  1  0.74507092  0.63077099  0.99435828  1
  O  O280  1  0.24822009  0.36226263  -0.00113519  1
  O  O281  1  0.25810943  0.36823789  0.50164656  1
  O  O282  1  0.25533927  0.86962467  0.00483989  1
  O  O283  1  0.25171563  0.86680131  0.50718661  1
  O  O284  1  0.75153836  0.37277998  0.00952184  1
  O  O285  1  0.75429165  0.37141248  0.50446571  1
  O  O286  1  0.75470315  0.87044843  0.00320909  1
  O  O287  1  0.75316503  0.87153659  0.50306413  1
  O  O288  1  0.13077026  0.50096698  0.24149310  1
  O  O289  1  0.12490723  0.49303911  0.74336233  1
  O  O290  1  0.13228326  0.99400400  0.24862884  1
  O  O291  1  0.13083327  0.99315241  0.74406226  1
  O  O292  1  0.62956484  0.49500600  0.24619700  1
  O  O293  1  0.63240543  0.49448347  0.75057808  1
  O  O294  1  0.63152065  0.99527661  0.24267519  1
  O  O295  1  0.62466738  0.99013333  0.74377676  1
  O  O296  1  0.36978303  0.00668257  0.25453790  1
  O  O297  1  0.36840737  -0.00116900  0.75633066  1
  O  O298  1  0.36947231  0.50515846  0.25648839  1
  O  O299  1  0.37244259  0.51138040  0.75297075  1
  O  O300  1  0.86984982  0.00632515  0.25326678  1
  O  O301  1  0.87380953  0.01075113  0.75119995  1
  O  O302  1  0.86737794  0.50326895  0.25817848  1
  O  O303  1  0.86983155  0.50596369  0.75536535  1
  O  O304  1  0.11567321  0.37286794  0.37452056  1
  O  O305  1  0.11829781  0.36878684  0.86907532  1
  O  O306  1  0.12460390  0.86734633  0.36793210  1
  O  O307  1  0.11894530  0.87115956  0.86790593  1
  O  O308  1  0.61983430  0.37090532  0.37075799  1
  O  O309  1  0.61837977  0.37018047  0.87085375  1
  O  O310  1  0.62636107  0.87721738  0.36110649  1
  O  O311  1  0.62040369  0.87048997  0.86809879  1
  O  O312  1  0.38274039  0.12712062  0.13074388  1
  O  O313  1  0.38078455  0.13454308  0.62458112  1
  O  O314  1  0.37562454  0.63163209  0.13204443  1
  O  O315  1  0.37241625  0.63308798  0.63524660  1
  O  O316  1  0.87942205  0.13048194  0.13034158  1
  O  O317  1  0.87549841  0.12746610  0.63647128  1
  O  O318  1  0.88058669  0.63238932  0.12640235  1
  O  O319  1  0.88039147  0.63197425  0.62985002  1
  O  O320  1  0.24845285  0.24939925  0.11275181  1
  O  O321  1  0.26131502  0.24979321  0.61890641  1
  O  O322  1  0.25604784  0.75556847  0.12047352  1
  O  O323  1  0.25714679  0.75300287  0.62044232  1
  O  O324  1  0.75607956  0.25690878  0.12598754  1
  O  O325  1  0.75070828  0.25759572  0.61723692  1
  O  O326  1  0.75573883  0.75621876  0.11810819  1
  O  O327  1  0.76305954  0.75015164  0.62384580  1
  O  O328  1  0.25109823  0.24267164  0.38202138  1
  O  O329  1  0.24403817  0.24308853  0.88207473  1
  O  O330  1  0.24449887  0.74352430  0.38062432  1
  O  O331  1  0.24866751  0.73880860  0.88221541  1
  O  O332  1  0.74412551  0.24595003  0.37982555  1
  O  O333  1  0.74406562  0.23913965  0.87530322  1
  O  O334  1  0.74834472  0.73888250  0.37514873  1
  O  O335  1  0.74536770  0.74402899  0.88022940  1
  O  O336  1  0.00384305  0.11996133  0.00363530  1
  O  O337  1  0.00670245  0.11453765  0.49995221  1
  O  O338  1  0.00706323  0.62357586  0.00764872  1
  O  O339  1  0.00528918  0.61885493  0.50504915  1
  O  O340  1  0.50570291  0.11962497  0.00354685  1
  O  O341  1  0.50689552  0.11981818  0.50501761  1
  O  O342  1  0.50671121  0.61489038  -0.00005307  1
  O  O343  1  0.50914614  0.61944610  0.49959110  1
  O  O344  1  0.49507501  0.38081584  0.49411135  1
  O  O345  1  0.50336217  0.38379060  0.99158677  1
  O  O346  1  0.49792011  0.88395111  0.49722985  1
  O  O347  1  0.49466202  0.88107721  0.99526297  1
  O  O348  1  0.99378306  0.38043631  0.49565880  1
  O  O349  1  0.99764543  0.37680375  0.99079339  1
  O  O350  1  0.99943855  0.88882096  0.49760670  1
  O  O351  1  0.99503974  0.87842342  0.99462255  1
  O  O352  1  0.49363812  0.49444055  0.38126098  1
  O  O353  1  0.50151532  0.49122191  0.88585205  1
  O  O354  1  0.49397222  1.00049759  0.38079191  1
  O  O355  1  0.49444342  0.99406776  0.88055533  1
  O  O356  1  0.99389395  0.49645832  0.38109844  1
  O  O357  1  0.99345418  0.49328149  0.87547727  1
  O  O358  1  0.99486849  1.00030908  0.38301333  1
  O  O359  1  0.99838566  0.99160834  0.88090269  1
  O  O360  1  0.00036493  0.00707411  0.11703762  1
  O  O361  1  0.00752725  0.00178253  0.61521425  1
  O  O362  1  0.00851178  0.50623756  0.12705611  1
  O  O363  1  0.00420047  0.50555312  0.61946823  1
  O  O364  1  0.50563403  0.00680285  0.11790846  1
  O  O365  1  0.50489684  0.00545921  0.61855252  1
  O  O366  1  0.50719434  0.49965172  0.11579324  1
  O  O367  1  0.50208524  0.50369754  0.61716138  1
  O  O368  1  0.24716999  0.38309920  0.24896866  1
  O  O369  1  0.24170915  0.37682865  0.74983667  1
  O  O370  1  0.24508632  0.88062256  0.24445338  1
  O  O371  1  0.24479652  0.87871798  0.74502048  1
  O  O372  1  0.74367415  0.38144916  0.24669475  1
  O  O373  1  0.74513807  0.37979902  0.74570680  1
  O  O374  1  0.74315278  0.88243011  0.24217293  1
  O  O375  1  0.73722924  0.87656486  0.74940696  1
  O  O376  1  0.25562842  0.12019839  0.25450104  1
  O  O377  1  0.25120083  0.11654900  0.75716727  1
  O  O378  1  0.25542032  0.61904691  0.25697672  1
  O  O379  1  0.25731593  0.62448998  0.76029898  1
  O  O380  1  0.75482894  0.12095702  0.25450644  1
  O  O381  1  0.75756173  0.12587449  0.75730799  1
  O  O382  1  0.74879469  0.61987533  0.26033428  1
  O  O383  1  0.75559204  0.61970244  0.75613608  1
  O  O384  1  0.37036396  0.11936670  0.36865694  1
  O  O385  1  0.36818266  0.11672972  0.87410362  1
  O  O386  1  0.36859199  0.61918537  0.37115262  1
  O  O387  1  0.36675474  0.62552870  0.86835191  1
  O  O388  1  0.86898029  0.12075871  0.36804363  1
  O  O389  1  0.86631871  0.12477755  0.86581240  1
  O  O390  1  0.86403132  0.61980956  0.37615141  1
  O  O391  1  0.86986284  0.62060243  0.86906031  1
  O  O392  1  0.12531599  0.38729618  0.12694252  1
  O  O393  1  0.12563700  0.38073596  0.63151073  1
  O  O394  1  0.13261892  0.87587221  0.13165371  1
  O  O395  1  0.13115109  0.87929209  0.63041025  1
  O  O396  1  0.63080957  0.38094588  0.13225008  1
  O  O397  1  0.63104227  0.37764931  0.63213781  1
  O  O398  1  0.63140102  0.88223569  0.12964820  1
  O  O399  1  0.62364301  0.87909719  0.63459225  1
  O  O400  1  0.11637934  0.25121524  0.25281202  1
  O  O401  1  0.12069765  0.25335294  0.75538529  1
  O  O402  1  0.12070992  0.75465388  0.25552843  1
  O  O403  1  0.11851034  0.75535485  0.74965941  1
  O  O404  1  0.61957588  0.25636545  0.25638147  1
  O  O405  1  0.62177179  0.25784104  0.75689673  1
  O  O406  1  0.62578892  0.76398437  0.24841504  1
  O  O407  1  0.62398700  0.75786900  0.75596724  1
  O  O408  1  0.38251734  0.24329369  0.24951199  1
  O  O409  1  0.37668545  0.24882603  0.73848421  1
  O  O410  1  0.37407110  0.74359924  0.24379876  1
  O  O411  1  0.37450184  0.74072977  0.74254617  1
  O  O412  1  0.88029466  0.24400577  0.24507058  1
  O  O413  1  0.88147912  0.24022554  0.74881266  1
  O  O414  1  0.88088535  0.74999845  0.24229375  1
  O  O415  1  0.88066665  0.74376813  0.74171857  1
  O  O416  1  0.37922149  0.49580581  0.49504509  1
  O  O417  1  0.38726514  0.49971060  0.99915148  1
  O  O418  1  0.38195508  0.99909671  0.49348204  1
  O  O419  1  0.37991282  0.99400843  0.99438771  1
  O  O420  1  0.88008807  0.49521622  0.49544403  1
  O  O421  1  0.87745462  0.49761146  0.99134377  1
  O  O422  1  0.88485064  1.00251036  0.49448962  1
  O  O423  1  0.88105638  0.99269540  0.99646311  1
  O  O424  1  0.11779606  0.00595702  0.00100744  1
  O  O425  1  0.11935901  0.00408945  0.50379315  1
  O  O426  1  0.12340070  0.50613766  0.01130183  1
  O  O427  1  0.11854387  0.50542844  0.50546089  1
  O  O428  1  0.61921755  0.00538630  0.00373772  1
  O  O429  1  0.61996209  0.00713488  0.50445448  1
  O  O430  1  0.61851331  0.50561101  0.00553545  1
  O  O431  1  0.61867045  0.51032571  0.50112716  1
  O  O432  1  0.37001031  0.37049326  0.11928188  1
  O  O433  1  0.37583264  0.36541097  0.61980676  1
  O  O434  1  0.36939622  0.87079992  0.11938285  1
  O  O435  1  0.36928590  0.86309869  0.62577246  1
  O  O436  1  0.86848595  0.36929275  0.12644462  1
  O  O437  1  0.86790874  0.37397880  0.61843426  1
  O  O438  1  0.86945973  0.86982964  0.11777921  1
  O  O439  1  0.87457839  0.86390925  0.62543884  1
  O  O440  1  0.13384670  0.12595547  0.38175863  1
  O  O441  1  0.12978183  0.12949619  0.87974704  1
  O  O442  1  0.13019126  0.62975060  0.38086882  1
  O  O443  1  0.13389743  0.62523165  0.88069999  1
  O  O444  1  0.63071728  0.13114048  0.37946305  1
  O  O445  1  0.63122498  0.12928737  0.87775913  1
  O  O446  1  0.63371608  0.62496243  0.38348322  1
  O  O447  1  0.63157688  0.63055339  0.88059939  1
