# generated using pymatgen
data_V3Zn3O8
_symmetry_space_group_name_H-M   'P 1'
_cell_length_a   17.08384419
_cell_length_b   17.08569492
_cell_length_c   17.08399705
_cell_angle_alpha   89.99204675
_cell_angle_beta   89.99274417
_cell_angle_gamma   89.99758966
_symmetry_Int_Tables_number   1
_chemical_formula_structural   V3Zn3O8
_chemical_formula_sum   'V96 Zn96 O256'
_cell_volume   4986.63670098
_cell_formula_units_Z   32
loop_
 _symmetry_equiv_pos_site_id
 _symmetry_equiv_pos_as_xyz
  1  'x, y, z'
loop_
 _atom_site_type_symbol
 _atom_site_label
 _atom_site_symmetry_multiplicity
 _atom_site_fract_x
 _atom_site_fract_y
 _atom_site_fract_z
 _atom_site_occupancy
  V  V0  1  0.50028570  -0.00037872  0.00090747  1
  V  V1  1  0.25036751  0.12539844  0.87482545  1
  V  V2  1  0.12486044  0.74876258  0.87364948  1
  V  V3  1  0.49928102  0.74954378  0.75059159  1
  V  V4  1  0.62520933  0.25058971  0.87566787  1
  V  V5  1  0.87498216  0.62586073  0.25101706  1
  V  V6  1  0.62559091  0.37559144  0.74986250  1
  V  V7  1  0.00050811  0.37544976  0.37638108  1
  V  V8  1  0.87425572  0.62524865  0.75030743  1
  V  V9  1  0.62454958  0.74995892  0.87605327  1
  V  V10  1  0.00038295  0.75089070  0.24990903  1
  V  V11  1  0.62516551  0.37528507  0.25116240  1
  V  V12  1  0.24935231  0.87412132  0.62382753  1
  V  V13  1  0.25020605  0.37479842  0.12307523  1
  V  V14  1  0.37535405  0.12494407  0.24924003  1
  V  V15  1  0.87453485  0.37720846  0.00083486  1
  V  V16  1  0.75083076  0.87600224  0.12517779  1
  V  V17  1  0.12579967  0.24948154  0.37367826  1
  V  V18  1  0.49981283  0.74968142  0.24880069  1
  V  V19  1  0.24945658  0.49764214  0.74955855  1
  V  V20  1  0.25135937  -0.00021889  0.74944199  1
  V  V21  1  0.87568043  0.12593133  0.24987732  1
  V  V22  1  0.87521356  0.87614787  -0.00041613  1
  V  V23  1  0.12530105  0.12408735  0.49985214  1
  V  V24  1  0.49908800  0.87579152  0.87669312  1
  V  V25  1  0.49967120  0.24865012  0.75002800  1
  V  V26  1  0.49948970  0.87485390  0.37414567  1
  V  V27  1  0.62620375  0.24966567  0.37699732  1
  V  V28  1  0.37554914  -0.00081930  0.37381726  1
  V  V29  1  0.25076746  0.24904338  0.49922683  1
  V  V30  1  0.75035349  0.25009861  0.50132910  1
  V  V31  1  0.75024275  0.50091330  0.25115217  1
  V  V32  1  0.25016482  0.12462355  0.37345038  1
  V  V33  1  0.87503626  0.75079307  0.62432834  1
  V  V34  1  0.24884090  0.37391816  0.62486039  1
  V  V35  1  0.37587478  0.74871641  0.62615859  1
  V  V36  1  0.25054838  0.75012722  0.49974165  1
  V  V37  1  0.62516901  0.87477484  0.25001455  1
  V  V38  1  0.37494028  0.25101523  0.12436466  1
  V  V39  1  0.25070778  0.75017843  -0.00069857  1
  V  V40  1  0.50193680  0.00027192  0.50095701  1
  V  V41  1  0.50044629  0.49981018  0.50145904  1
  V  V42  1  0.24947445  0.62296209  0.87270113  1
  V  V43  1  0.87265789  0.50198354  0.87489862  1
  V  V44  1  0.87530048  -0.00040268  0.37449899  1
  V  V45  1  0.87527815  0.12556400  0.75029807  1
  V  V46  1  0.87500919  0.25113695  0.12650056  1
  V  V47  1  0.12453364  0.87429282  0.74845647  1
  V  V48  1  0.12569798  -0.00005093  0.62396837  1
  V  V49  1  0.00031159  0.62467952  0.62308169  1
  V  V50  1  0.50032905  0.25019320  0.25074786  1
  V  V51  1  0.74885991  0.87607919  0.62588037  1
  V  V52  1  0.74929156  0.74955047  0.00012987  1
  V  V53  1  0.12492121  0.37413201  0.24946166  1
  V  V54  1  0.49987771  0.37452675  0.37562062  1
  V  V55  1  0.49753914  0.49876001  -0.00091338  1
  V  V56  1  0.62462321  0.50001623  0.62578643  1
  V  V57  1  0.37589176  0.24766001  0.62490476  1
  V  V58  1  0.62462100  0.62437448  0.50056132  1
  V  V59  1  0.50116978  0.12523055  0.12550162  1
  V  V60  1  0.62405024  0.50030948  0.12520605  1
  V  V61  1  0.75040805  0.00017135  0.25100554  1
  V  V62  1  0.24969417  -0.00072526  0.24796391  1
  V  V63  1  0.37495223  0.37382155  0.49961636  1
  V  V64  1  0.37460827  0.74999594  0.12335691  1
  V  V65  1  0.12496972  0.49930759  0.62307454  1
  V  V66  1  0.74931773  0.62464056  0.37484290  1
  V  V67  1  0.75031951  0.37505628  0.62625160  1
  V  V68  1  0.00013443  0.12569426  0.62559702  1
  V  V69  1  0.25100303  0.62567197  0.37533493  1
  V  V70  1  0.87646565  0.37632966  0.50091423  1
  V  V71  1  0.75041214  0.12466694  0.87554939  1
  V  V72  1  -0.00105812  0.87485346  0.87449017  1
  V  V73  1  0.62549790  0.87540744  0.74973983  1
  V  V74  1  0.12469936  0.12641293  -0.00251990  1
  V  V75  1  0.87475861  0.87504311  0.49929652  1
  V  V76  1  0.37575353  0.12414728  0.74985340  1
  V  V77  1  0.75000931  0.37570771  0.12648059  1
  V  V78  1  0.62479794  0.00157902  0.12635068  1
  V  V79  1  0.12563431  0.62518574  0.49880049  1
  V  V80  1  0.37506702  0.50020987  0.37513231  1
  V  V81  1  0.74961553  0.25083844  0.00085765  1
  V  V82  1  0.00042405  0.62573282  0.12717790  1
  V  V83  1  -0.00026012  0.87591082  0.37370867  1
  V  V84  1  -0.00033082  0.37413613  0.87411977  1
  V  V85  1  0.75049985  0.12564028  0.37721476  1
  V  V86  1  0.62464715  0.74862289  0.37494808  1
  V  V87  1  -0.00005192  -0.00072434  -0.00175767  1
  V  V88  1  0.12342928  0.50181592  0.12571041  1
  V  V89  1  0.49889746  0.37476065  0.87570182  1
  V  V90  1  0.12556456  -0.00040875  0.12299018  1
  V  V91  1  0.12485893  0.87600203  0.24883176  1
  V  V92  1  -0.00015410  0.75007364  0.74889584  1
  V  V93  1  0.49991919  0.62444436  0.12404490  1
  V  V94  1  -0.00023887  0.24972301  0.24923473  1
  V  V95  1  0.37517437  0.62469448  0.25064878  1
  Zn  Zn96  1  0.37458301  0.87484953  0.49873214  1
  Zn  Zn97  1  0.37278015  0.37282965  -0.00247253  1
  Zn  Zn98  1  0.12259885  0.62602760  0.00123815  1
  Zn  Zn99  1  0.12604293  0.75128884  0.37476016  1
  Zn  Zn100  1  0.74834313  0.62572633  0.87445728  1
  Zn  Zn101  1  0.87619559  0.25089982  0.62656862  1
  Zn  Zn102  1  0.74909138  0.74894063  0.49968566  1
  Zn  Zn103  1  0.50316267  0.12279409  0.62610325  1
  Zn  Zn104  1  0.87640337  0.75071483  0.12489285  1
  Zn  Zn105  1  0.87696339  0.50192510  0.37590991  1
  Zn  Zn106  1  0.62514118  0.62427429  -0.00151727  1
  Zn  Zn107  1  0.25104298  0.50127028  0.25019273  1
  Zn  Zn108  1  0.00276630  0.24980003  0.75155861  1
  Zn  Zn109  1  0.12614238  0.25450701  0.87441439  1
  Zn  Zn110  1  0.50096032  0.62429821  0.62748876  1
  Zn  Zn111  1  0.74781982  0.50246847  0.75055874  1
  Zn  Zn112  1  0.37300084  0.49673811  0.87466330  1
  Zn  Zn113  1  0.62680344  0.12469974  0.50420739  1
  Zn  Zn114  1  -0.00176000  0.50396223  0.00079004  1
  Zn  Zn115  1  0.37450393  0.87648931  -0.00042003  1
  Zn  Zn116  1  0.12234991  0.37217303  0.74931203  1
  Zn  Zn117  1  -0.00025483  0.12598330  0.12295632  1
  Zn  Zn118  1  0.37629421  -0.00157426  0.87605438  1
  Zn  Zn119  1  0.62448450  0.00151589  0.62644857  1
  Zn  Zn120  1  0.00022995  -0.00011020  0.49832506  1
  Zn  Zn121  1  0.25089202  0.87482464  0.12324572  1
  Zn  Zn122  1  0.62539075  0.12596053  0.00165835  1
  Zn  Zn123  1  0.37773304  0.62168646  0.74988949  1
  Zn  Zn124  1  0.25094950  0.24982602  -0.00100520  1
  Zn  Zn125  1  0.00075181  0.50115155  0.49842251  1
  Zn  Zn126  1  0.87350378  -0.00016513  0.87482688  1
  Zn  Zn127  1  0.74758088  0.00125151  0.75060724  1
  Zn  Zn128  1  0.18732769  0.18692889  0.18475902  1
  Zn  Zn129  1  0.18579801  0.18949164  0.69028484  1
  Zn  Zn130  1  0.18776410  0.68846449  0.18940520  1
  Zn  Zn131  1  0.18762508  0.68559018  0.68619955  1
  Zn  Zn132  1  0.68812404  0.18762449  0.18970180  1
  Zn  Zn133  1  0.68665319  0.18777711  0.68613819  1
  Zn  Zn134  1  0.68706801  0.68672847  0.18608020  1
  Zn  Zn135  1  0.68758041  0.68785217  0.68833522  1
  Zn  Zn136  1  0.31229912  0.31296746  0.31032087  1
  Zn  Zn137  1  0.31365171  0.31146795  0.81237797  1
  Zn  Zn138  1  0.31239130  0.81307879  0.31144104  1
  Zn  Zn139  1  0.31431475  0.81335071  0.81255079  1
  Zn  Zn140  1  0.81338259  0.31321313  0.31477082  1
  Zn  Zn141  1  0.81344828  0.31190049  0.81123769  1
  Zn  Zn142  1  0.81265757  0.81064182  0.31251100  1
  Zn  Zn143  1  0.81248645  0.81262367  0.81281249  1
  Zn  Zn144  1  0.18841729  0.43851818  0.43735106  1
  Zn  Zn145  1  0.18384252  0.43985423  0.93987615  1
  Zn  Zn146  1  0.18690171  0.93744698  0.43660897  1
  Zn  Zn147  1  0.18709480  0.93740281  0.93544029  1
  Zn  Zn148  1  0.68853132  0.43818637  0.43845399  1
  Zn  Zn149  1  0.68632984  0.43738138  0.93800085  1
  Zn  Zn150  1  0.68739168  0.93612114  0.43820537  1
  Zn  Zn151  1  0.68565841  0.93827434  0.93802047  1
  Zn  Zn152  1  0.31389047  0.06168885  0.06182832  1
  Zn  Zn153  1  0.31474004  0.06172901  0.56179742  1
  Zn  Zn154  1  0.31211488  0.56295870  0.06187156  1
  Zn  Zn155  1  0.31287715  0.56327621  0.56250363  1
  Zn  Zn156  1  0.81343655  0.06311198  0.06250343  1
  Zn  Zn157  1  0.81385468  0.06040798  0.56192951  1
  Zn  Zn158  1  0.81346325  0.56450256  0.06384424  1
  Zn  Zn159  1  0.81076901  0.56177278  0.56282968  1
  Zn  Zn160  1  0.43631498  0.43763155  0.18755777  1
  Zn  Zn161  1  0.43691515  0.43532494  0.68725153  1
  Zn  Zn162  1  0.43599378  0.93588641  0.18523671  1
  Zn  Zn163  1  0.43698958  0.93573954  0.68799761  1
  Zn  Zn164  1  0.93748324  0.43883477  0.19039117  1
  Zn  Zn165  1  0.93732221  0.43975427  0.68848438  1
  Zn  Zn166  1  0.93835112  0.93841120  0.18500343  1
  Zn  Zn167  1  0.93582708  0.94023282  0.68765619  1
  Zn  Zn168  1  0.06150597  0.06206984  0.31071124  1
  Zn  Zn169  1  0.06300582  0.06044312  0.81215418  1
  Zn  Zn170  1  0.06318113  0.56236941  0.31348767  1
  Zn  Zn171  1  0.06188638  0.56074869  0.81013690  1
  Zn  Zn172  1  0.56391961  0.06349312  0.31471735  1
  Zn  Zn173  1  0.56368417  0.06142832  0.81320246  1
  Zn  Zn174  1  0.56209658  0.56226051  0.31303599  1
  Zn  Zn175  1  0.56310873  0.56411887  0.81367727  1
  Zn  Zn176  1  0.43847138  0.18493129  0.43798612  1
  Zn  Zn177  1  0.43671760  0.18699828  0.93926310  1
  Zn  Zn178  1  0.43824347  0.68696856  0.43940156  1
  Zn  Zn179  1  0.43582613  0.68562128  0.93587616  1
  Zn  Zn180  1  0.93762618  0.18868404  0.43798883  1
  Zn  Zn181  1  0.93654186  0.18933223  0.93847238  1
  Zn  Zn182  1  0.93750814  0.68961724  0.43674188  1
  Zn  Zn183  1  0.93728733  0.68743175  0.93948174  1
  Zn  Zn184  1  0.06102930  0.31298229  0.06006667  1
  Zn  Zn185  1  0.06319678  0.31078929  0.56213750  1
  Zn  Zn186  1  0.06354459  0.81211343  0.06269219  1
  Zn  Zn187  1  0.06187459  0.81193746  0.55973947  1
  Zn  Zn188  1  0.56291673  0.31280235  0.06240695  1
  Zn  Zn189  1  0.56312672  0.31183590  0.56385353  1
  Zn  Zn190  1  0.56294884  0.81385350  0.06210992  1
  Zn  Zn191  1  0.56207331  0.81279727  0.56153842  1
  O  O192  1  0.12499603  0.11940863  0.11277833  1
  O  O193  1  0.11898348  0.11995310  0.62049221  1
  O  O194  1  0.11996958  0.61556920  0.12824159  1
  O  O195  1  0.12016057  0.61960346  0.61882106  1
  O  O196  1  0.61930880  0.11965406  0.12662879  1
  O  O197  1  0.62176809  0.11968876  0.62198692  1
  O  O198  1  0.61732139  0.61773260  0.12362944  1
  O  O199  1  0.62416964  0.61870472  0.61894767  1
  O  O200  1  0.37998423  0.37918351  0.38002355  1
  O  O201  1  0.38225727  0.37653371  0.87794805  1
  O  O202  1  0.38205862  0.88158180  0.37427719  1
  O  O203  1  0.38354209  0.87703062  0.87713746  1
  O  O204  1  0.88103042  0.37588136  0.38479962  1
  O  O205  1  0.87977862  0.38320571  0.87990362  1
  O  O206  1  0.87907802  0.88030389  0.37883983  1
  O  O207  1  0.88160067  0.87675209  0.88056353  1
  O  O208  1  0.25531778  0.00601255  0.36848722  1
  O  O209  1  0.25070938  0.00920403  0.86819061  1
  O  O210  1  0.25784868  0.50622949  0.37337044  1
  O  O211  1  0.24760730  0.50643173  0.86755894  1
  O  O212  1  0.75523791  0.00467269  0.36959312  1
  O  O213  1  0.75080951  0.01275720  0.87496650  1
  O  O214  1  0.74983809  0.50669074  0.36796790  1
  O  O215  1  0.76150356  0.50128032  0.87513141  1
  O  O216  1  0.24187689  0.49247917  0.12642939  1
  O  O217  1  0.24586091  0.49456748  0.63123859  1
  O  O218  1  0.24414827  0.99878335  0.13037277  1
  O  O219  1  0.24523567  0.99442966  0.62949876  1
  O  O220  1  0.74414388  0.49515310  0.13074252  1
  O  O221  1  0.74232049  0.49248642  0.62681243  1
  O  O222  1  0.74506550  0.99593144  0.13146223  1
  O  O223  1  0.74985947  0.98635761  0.62615660  1
  O  O224  1  0.00550547  0.36878028  0.25593688  1
  O  O225  1  -0.00132433  0.37380571  0.76120674  1
  O  O226  1  0.00479286  0.87111857  0.25387524  1
  O  O227  1  0.00482191  0.86990977  0.75363334  1
  O  O228  1  0.50521732  0.36968727  0.25581584  1
  O  O229  1  0.50499141  0.36855738  0.75591100  1
  O  O230  1  0.50582726  0.86953417  0.25398755  1
  O  O231  1  0.50542640  0.86883601  0.75637637  1
  O  O232  1  0.49495067  0.13068530  0.24594034  1
  O  O233  1  0.49357736  0.13139439  0.75098881  1
  O  O234  1  0.49495883  0.63034712  0.24436555  1
  O  O235  1  0.49666598  0.63319994  0.74817794  1
  O  O236  1  0.99363805  0.13237930  0.24791396  1
  O  O237  1  0.99299961  0.12427800  0.74320036  1
  O  O238  1  0.99520011  0.63091936  0.24654798  1
  O  O239  1  0.99481850  0.63101730  0.74335323  1
  O  O240  1  0.37227481  0.25218225  0.00945349  1
  O  O241  1  0.36996272  0.25415741  0.50373786  1
  O  O242  1  0.36509295  0.74840936  0.00437967  1
  O  O243  1  0.37032227  0.75137081  0.50973268  1
  O  O244  1  0.86888536  0.25715290  0.00687543  1
  O  O245  1  0.86994478  0.26086245  0.50123461  1
  O  O246  1  0.86525771  0.75725440  0.00123961  1
  O  O247  1  0.87260495  0.75704143  0.50696437  1
  O  O248  1  0.13177659  0.24383099  0.49323499  1
  O  O249  1  0.12665460  0.23779593  0.99741813  1
  O  O250  1  0.13288266  0.74326446  0.49855324  1
  O  O251  1  0.13448932  0.74809258  0.99251587  1
  O  O252  1  0.63231586  0.25051099  0.49360284  1
  O  O253  1  0.63202137  0.24922559  0.99421397  1
  O  O254  1  0.62464171  0.74299104  0.49238056  1
  O  O255  1  0.63444398  0.75099429  0.99536939  1
  O  O256  1  0.49590682  0.24590087  0.13192925  1
  O  O257  1  0.49307232  0.24928836  0.63175284  1
  O  O258  1  0.49558555  0.74448031  0.12940950  1
  O  O259  1  0.49069618  0.75074395  0.63070758  1
  O  O260  1  0.99297528  0.25002826  0.13122081  1
  O  O261  1  0.99986174  0.23594787  0.62679492  1
  O  O262  1  0.99994693  0.74379213  0.13195746  1
  O  O263  1  0.99500250  0.74506207  0.63021722  1
  O  O264  1  0.00703654  0.25482272  0.36938834  1
  O  O265  1  -0.00110245  0.26347919  0.87557639  1
  O  O266  1  0.00200865  0.75819680  0.36756339  1
  O  O267  1  0.00510915  0.75466534  0.86880466  1
  O  O268  1  0.50484460  0.25531951  0.37026582  1
  O  O269  1  0.50544669  0.25447691  0.87052897  1
  O  O270  1  0.50452909  0.75447006  0.36837668  1
  O  O271  1  0.50462576  0.75495097  0.87124281  1
  O  O272  1  0.24545851  0.12961965  0.49331256  1
  O  O273  1  0.24162679  0.12302939  0.99092079  1
  O  O274  1  0.24567378  0.63066529  0.49506494  1
  O  O275  1  0.24748153  0.63233229  0.99039869  1
  O  O276  1  0.75170303  0.13141161  0.49416658  1
  O  O277  1  0.75052765  0.13222965  0.99112435  1
  O  O278  1  0.74270155  0.62595096  0.49338347  1
  O  O279  1  0.74882874  0.63794906  0.99993674  1
  O  O280  1  0.24902671  0.37374148  0.01187760  1
  O  O281  1  0.25579415  0.36802857  0.50397102  1
  O  O282  1  0.25086733  0.86144987  -0.00214076  1
  O  O283  1  0.25134897  0.86912852  0.50615278  1
  O  O284  1  0.75459356  0.37043700  0.00679992  1
  O  O285  1  0.75838405  0.37053927  0.50484489  1
  O  O286  1  0.75432690  0.86883739  0.00524792  1
  O  O287  1  0.75549817  0.87239582  0.50860927  1
  O  O288  1  0.12709968  0.49329620  0.24034997  1
  O  O289  1  0.13530517  0.49794000  0.74257488  1
  O  O290  1  0.13037858  0.99671696  0.24288180  1
  O  O291  1  0.13124585  0.99359968  0.74355210  1
  O  O292  1  0.62930642  0.49420178  0.24496902  1
  O  O293  1  0.62518795  0.49301018  0.74468853  1
  O  O294  1  0.63084210  0.99463157  0.24641034  1
  O  O295  1  0.62712377  0.99023369  0.74761121  1
  O  O296  1  0.37035760  0.00587260  0.25380736  1
  O  O297  1  0.36841086  0.00588013  0.75106677  1
  O  O298  1  0.37515552  0.50664850  0.25721043  1
  O  O299  1  0.36140680  0.50036332  0.75000996  1
  O  O300  1  0.86918595  0.00556013  0.25450211  1
  O  O301  1  0.87187794  0.01317167  0.75305391  1
  O  O302  1  0.86756885  0.50684229  0.25243126  1
  O  O303  1  0.87278021  0.50657538  0.75968236  1
  O  O304  1  0.12211807  0.36846989  0.36983322  1
  O  O305  1  0.11154357  0.37759900  0.87583199  1
  O  O306  1  0.11790396  0.87588958  0.36720212  1
  O  O307  1  0.11952732  0.86868275  0.86734027  1
  O  O308  1  0.61951025  0.37008448  0.37034054  1
  O  O309  1  0.61979535  0.36957613  0.86985087  1
  O  O310  1  0.61999569  0.86885367  0.36831092  1
  O  O311  1  0.61943049  0.86923634  0.86976588  1
  O  O312  1  0.38067211  0.13049651  0.13126791  1
  O  O313  1  0.37615753  0.13110464  0.63188161  1
  O  O314  1  0.38059720  0.62978153  0.13056588  1
  O  O315  1  0.37594955  0.63730119  0.62677468  1
  O  O316  1  0.87538394  0.13309207  0.13194177  1
  O  O317  1  0.88338570  0.12463786  0.63216167  1
  O  O318  1  0.88218758  0.62665231  0.13319575  1
  O  O319  1  0.87992451  0.63042661  0.62935656  1
  O  O320  1  0.25495728  0.25915013  0.12418451  1
  O  O321  1  0.25519007  0.25372737  0.61854049  1
  O  O322  1  0.25461565  0.74820385  0.11397324  1
  O  O323  1  0.25682631  0.75432050  0.62086719  1
  O  O324  1  0.75460793  0.25672576  0.12160567  1
  O  O325  1  0.75211139  0.25750989  0.61883821  1
  O  O326  1  0.74979961  0.75726386  0.11610534  1
  O  O327  1  0.75636952  0.76091355  0.62452959  1
  O  O328  1  0.24563931  0.24425599  0.37872413  1
  O  O329  1  0.24875249  0.23747717  0.87697517  1
  O  O330  1  0.25081684  0.74370631  0.38174601  1
  O  O331  1  0.24517420  0.74167991  0.87900784  1
  O  O332  1  0.74544936  0.24544551  0.38084615  1
  O  O333  1  0.74578326  0.24387563  0.88081757  1
  O  O334  1  0.74174273  0.74309089  0.37516776  1
  O  O335  1  0.74433632  0.75193090  0.88585023  1
  O  O336  1  0.00949493  0.11938213  -0.00215340  1
  O  O337  1  0.00588629  0.12381712  0.50852260  1
  O  O338  1  0.00296629  0.62413631  0.00992237  1
  O  O339  1  0.00637087  0.62504988  0.50563169  1
  O  O340  1  0.50302260  0.11895881  0.00798549  1
  O  O341  1  0.50196128  0.11280887  0.50047774  1
  O  O342  1  0.50037241  0.61532885  0.00513510  1
  O  O343  1  0.50688664  0.61699653  0.50170295  1
  O  O344  1  0.49422883  0.37931826  0.49460653  1
  O  O345  1  0.49959533  0.38403527  0.99539059  1
  O  O346  1  0.49808244  0.88294245  0.49197521  1
  O  O347  1  0.49952670  0.88159343  0.99438709  1
  O  O348  1  0.99179194  0.37375623  0.49546218  1
  O  O349  1  0.99202860  0.37933303  0.99215067  1
  O  O350  1  0.99341233  0.87731475  0.49301052  1
  O  O351  1  0.99540068  0.87862710  0.99379136  1
  O  O352  1  0.49499086  0.49346365  0.38091021  1
  O  O353  1  0.49896033  0.49460243  0.88400067  1
  O  O354  1  0.49528939  0.99480457  0.38039028  1
  O  O355  1  0.50064400  0.99388837  0.88329307  1
  O  O356  1  0.99868853  0.49084281  0.37768409  1
  O  O357  1  0.98929049  0.49356526  0.87600431  1
  O  O358  1  0.99260467  0.99428043  0.37444022  1
  O  O359  1  0.99899999  0.99197339  0.88058485  1
  O  O360  1  0.00730648  0.00323118  0.11641939  1
  O  O361  1  0.00651038  0.01062152  0.62401474  1
  O  O362  1  0.00909526  0.50560965  0.12715374  1
  O  O363  1  0.00692874  0.50731952  0.62359863  1
  O  O364  1  0.50562967  0.00563385  0.12193983  1
  O  O365  1  0.49963970  -0.00196540  0.61276843  1
  O  O366  1  0.50423065  0.50370199  0.11808719  1
  O  O367  1  0.50567163  0.49963178  0.61879818  1
  O  O368  1  0.24376260  0.37594044  0.23933000  1
  O  O369  1  0.24896482  0.38308011  0.74429330  1
  O  O370  1  0.24339612  0.88214508  0.24834363  1
  O  O371  1  0.24348768  0.87932180  0.74414530  1
  O  O372  1  0.74487380  0.38021110  0.24586521  1
  O  O373  1  0.74340945  0.37584138  0.74425258  1
  O  O374  1  0.74473445  0.88049002  0.24544595  1
  O  O375  1  0.74513418  0.87571639  0.74159896  1
  O  O376  1  0.25534017  0.12005158  0.25425448  1
  O  O377  1  0.25429928  0.11966055  0.75727516  1
  O  O378  1  0.25817934  0.62472290  0.25665521  1
  O  O379  1  0.24926258  0.61520222  0.75701920  1
  O  O380  1  0.75624581  0.11996054  0.25689506  1
  O  O381  1  0.75787730  0.12621769  0.75877612  1
  O  O382  1  0.75423077  0.62018564  0.25463142  1
  O  O383  1  0.75880448  0.62406413  0.75349090  1
  O  O384  1  0.36939119  0.12001329  0.36806061  1
  O  O385  1  0.36514986  0.12372708  0.86940987  1
  O  O386  1  0.37153102  0.61934187  0.37067810  1
  O  O387  1  0.36050296  0.62137260  0.87171194  1
  O  O388  1  0.87027408  0.12034327  0.36962980  1
  O  O389  1  0.86659563  0.12636660  0.86804117  1
  O  O390  1  0.86776383  0.62420393  0.36948637  1
  O  O391  1  0.87582241  0.61663410  0.86990783  1
  O  O392  1  0.13051295  0.38135042  0.12931353  1
  O  O393  1  0.13201154  0.38070198  0.62424031  1
  O  O394  1  0.12753273  0.88222400  0.13053719  1
  O  O395  1  0.12917866  0.87965816  0.62945368  1
  O  O396  1  0.63050573  0.38008539  0.13218351  1
  O  O397  1  0.63006995  0.38031356  0.63043471  1
  O  O398  1  0.63038985  0.88138356  0.13194141  1
  O  O399  1  0.63471753  0.87341722  0.63038878  1
  O  O400  1  0.12004109  0.25400446  0.25433982  1
  O  O401  1  0.12089588  0.25446645  0.75662900  1
  O  O402  1  0.11888735  0.75784892  0.25163089  1
  O  O403  1  0.11942554  0.75458352  0.75337053  1
  O  O404  1  0.62001629  0.25634307  0.25663257  1
  O  O405  1  0.61925163  0.25627980  0.75616553  1
  O  O406  1  0.61876608  0.75515137  0.25412844  1
  O  O407  1  0.61948180  0.75610830  0.75614190  1
  O  O408  1  0.38109709  0.24445487  0.24509466  1
  O  O409  1  0.38007086  0.24398507  0.74396289  1
  O  O410  1  0.38113441  0.74431290  0.24400532  1
  O  O411  1  0.37976925  0.74886487  0.74045127  1
  O  O412  1  0.87988655  0.24595846  0.24599162  1
  O  O413  1  0.87809374  0.23735010  0.74788979  1
  O  O414  1  0.88167601  0.74390196  0.24752320  1
  O  O415  1  0.88148672  0.74570266  0.74443206  1
  O  O416  1  0.37993745  0.49341635  0.49540437  1
  O  O417  1  0.38654573  0.49728489  0.99954160  1
  O  O418  1  0.38350629  0.99795961  0.49208448  1
  O  O419  1  0.38458831  0.99773360  0.99837378  1
  O  O420  1  0.87666709  0.48757344  0.49887679  1
  O  O421  1  0.87503655  0.49560341  0.99189121  1
  O  O422  1  0.87713767  0.99297043  0.49197297  1
  O  O423  1  0.88166717  0.99417665  0.99848311  1
  O  O424  1  0.12033829  0.00702462  0.00270492  1
  O  O425  1  0.12408639  0.00693571  0.50604238  1
  O  O426  1  0.12147947  0.50354024  0.01488907  1
  O  O427  1  0.12511140  0.50689142  0.50622532  1
  O  O428  1  0.61897417  0.00296310  0.00915824  1
  O  O429  1  0.61337340  0.00037110  0.49937605  1
  O  O430  1  0.61470028  0.50008191  0.00638753  1
  O  O431  1  0.61915997  0.50381546  0.50546680  1
  O  O432  1  0.36504429  0.37032953  0.12559630  1
  O  O433  1  0.36861836  0.36788223  0.61845552  1
  O  O434  1  0.37136297  0.86528386  0.12180734  1
  O  O435  1  0.36769993  0.86404399  0.62420888  1
  O  O436  1  0.86906141  0.37123788  0.12175550  1
  O  O437  1  0.87084824  0.37396256  0.61704245  1
  O  O438  1  0.86806081  0.87414245  0.11838119  1
  O  O439  1  0.86857085  0.87077887  0.62085232  1
  O  O440  1  0.13059704  0.12986327  0.37890217  1
  O  O441  1  0.13386549  0.12309234  0.88253158  1
  O  O442  1  0.13290630  0.62636487  0.38069217  1
  O  O443  1  0.13402524  0.62921756  0.87440903  1
  O  O444  1  0.63321232  0.13246299  0.37652974  1
  O  O445  1  0.63574153  0.13233504  0.87555680  1
  O  O446  1  0.62922982  0.62942723  0.37977706  1
  O  O447  1  0.62835466  0.63374807  0.87864800  1
