# generated using pymatgen
data_V3Zn3O8
_symmetry_space_group_name_H-M   'P 1'
_cell_length_a   17.08697592
_cell_length_b   17.08850277
_cell_length_c   17.08931539
_cell_angle_alpha   89.99631181
_cell_angle_beta   89.99459641
_cell_angle_gamma   89.99898772
_symmetry_Int_Tables_number   1
_chemical_formula_structural   V3Zn3O8
_chemical_formula_sum   'V96 Zn96 O256'
_cell_volume   4989.92344331
_cell_formula_units_Z   32
loop_
 _symmetry_equiv_pos_site_id
 _symmetry_equiv_pos_as_xyz
  1  'x, y, z'
loop_
 _atom_site_type_symbol
 _atom_site_label
 _atom_site_symmetry_multiplicity
 _atom_site_fract_x
 _atom_site_fract_y
 _atom_site_fract_z
 _atom_site_occupancy
  V  V0  1  0.87448387  0.00099243  0.87525808  1
  V  V1  1  0.74949779  0.37479918  0.12534442  1
  V  V2  1  0.49992449  0.24963685  0.24970196  1
  V  V3  1  0.12533336  0.62522898  0.50022504  1
  V  V4  1  0.24982415  0.37529831  0.12561297  1
  V  V5  1  0.37507303  0.24927835  0.62427930  1
  V  V6  1  0.00041451  0.12428064  0.62395340  1
  V  V7  1  0.87541474  0.87546185  0.00074869  1
  V  V8  1  0.87509172  0.37582312  0.00073881  1
  V  V9  1  0.74966810  0.49970094  0.74984735  1
  V  V10  1  0.49960279  0.12384435  0.12361421  1
  V  V11  1  0.62377147  0.37426114  0.24978684  1
  V  V12  1  0.62581242  0.87506452  0.74977590  1
  V  V13  1  0.24926969  0.37489813  0.62470588  1
  V  V14  1  0.62551522  0.75002667  0.37614850  1
  V  V15  1  0.49963603  0.87524271  0.37459012  1
  V  V16  1  0.87580334  0.75046113  0.62717952  1
  V  V17  1  -0.00041004  0.25052860  0.25023108  1
  V  V18  1  0.12440725  0.37516868  0.75049302  1
  V  V19  1  0.00044655  0.87513729  0.87461669  1
  V  V20  1  0.37413336  0.12381651  0.24983284  1
  V  V21  1  0.12398807  0.87386519  0.74951511  1
  V  V22  1  0.62635004  0.87463605  0.24958159  1
  V  V23  1  0.37351962  0.12457560  0.74932117  1
  V  V24  1  0.00040071  0.62500530  0.12559263  1
  V  V25  1  0.49986660  0.12428563  0.62452246  1
  V  V26  1  0.62629571  0.74999643  0.87508376  1
  V  V27  1  0.50011385  0.87487368  0.87470102  1
  V  V28  1  0.25111585  0.50108960  0.74988212  1
  V  V29  1  0.37602335  0.74969640  0.62538795  1
  V  V30  1  0.12508604  0.50002861  0.62491246  1
  V  V31  1  0.62443629  0.25018890  0.87473509  1
  V  V32  1  0.50024699  0.00005929  -0.00041783  1
  V  V33  1  0.24959450  0.25007316  -0.00037541  1
  V  V34  1  0.25095328  0.49948462  0.25056095  1
  V  V35  1  0.62445447  0.00036105  0.62366729  1
  V  V36  1  0.75112528  0.75203833  0.50172359  1
  V  V37  1  0.12546117  0.37526452  0.25004251  1
  V  V38  1  0.74984915  0.12494974  0.37421018  1
  V  V39  1  0.12574617  -0.00054152  0.12433179  1
  V  V40  1  0.37507381  0.37536426  0.49965833  1
  V  V41  1  0.24879965  -0.00051413  0.74766888  1
  V  V42  1  0.74971715  0.12649537  0.87615527  1
  V  V43  1  0.62523237  0.62411035  0.50180574  1
  V  V44  1  -0.00057991  0.37536782  0.37592192  1
  V  V45  1  0.25075129  0.75037741  0.49966413  1
  V  V46  1  0.00077337  0.74899829  0.25058756  1
  V  V47  1  0.75051137  -0.00026896  0.25049512  1
  V  V48  1  0.12462854  0.75065968  0.37476099  1
  V  V49  1  0.37487937  0.37515307  -0.00088833  1
  V  V50  1  0.25017807  0.74950059  -0.00145881  1
  V  V51  1  0.87449501  0.50140951  0.87572035  1
  V  V52  1  0.12398501  0.25125899  0.87464269  1
  V  V53  1  0.74888626  0.24998022  -0.00018353  1
  V  V54  1  0.49958937  0.37450541  0.87474033  1
  V  V55  1  0.87276889  0.25072007  0.62496233  1
  V  V56  1  0.37507877  0.87331092  -0.00164080  1
  V  V57  1  0.87441578  0.37519106  0.50076026  1
  V  V58  1  0.74933258  0.00085389  0.75054521  1
  V  V59  1  0.12404007  0.12432177  0.50005312  1
  V  V60  1  0.62426094  0.24907023  0.37427849  1
  V  V61  1  0.75022342  0.87545174  0.12647504  1
  V  V62  1  0.62418790  0.50042620  0.12450176  1
  V  V63  1  0.50011182  0.74889417  0.24975313  1
  V  V64  1  0.25050014  0.12424661  0.37383730  1
  V  V65  1  0.87543134  0.12665380  0.75008967  1
  V  V66  1  -0.00065742  0.49927036  0.50023035  1
  V  V67  1  0.00044167  0.50092748  0.00183745  1
  V  V68  1  0.37552420  0.49972223  0.87469480  1
  V  V69  1  0.37566720  0.74850647  0.12538486  1
  V  V70  1  0.50059170  0.74942212  0.74920073  1
  V  V71  1  0.37492204  -0.00076132  0.37396502  1
  V  V72  1  0.37465809  0.24925378  0.12447974  1
  V  V73  1  0.87433115  0.25029410  0.12554604  1
  V  V74  1  0.25074634  0.62445690  0.37414892  1
  V  V75  1  0.87625364  0.74976515  0.12669654  1
  V  V76  1  0.50073213  0.49996046  0.50117004  1
  V  V77  1  0.00055803  0.37570517  0.87568975  1
  V  V78  1  0.12512315  0.24944800  0.37486393  1
  V  V79  1  0.12533766  0.62508474  0.00023888  1
  V  V80  1  -0.00002557  0.62547864  0.62656390  1
  V  V81  1  0.25043490  0.62455225  0.87500233  1
  V  V82  1  0.24922905  0.12545905  0.87358143  1
  V  V83  1  0.75007188  0.75094182  0.00052133  1
  V  V84  1  -0.00014910  0.00069807  -0.00025706  1
  V  V85  1  0.49999913  0.25019993  0.75026372  1
  V  V86  1  0.62436299  0.62488079  0.00066922  1
  V  V87  1  0.12461618  0.12504357  -0.00083256  1
  V  V88  1  0.25011447  0.24986965  0.49949823  1
  V  V89  1  0.37513803  0.87478115  0.49831300  1
  V  V90  1  0.87432247  0.12415066  0.25128750  1
  V  V91  1  0.12547470  0.87533009  0.24919581  1
  V  V92  1  -0.00004484  0.12582348  0.12498106  1
  V  V93  1  0.74869811  0.25026766  0.49938419  1
  V  V94  1  0.37453180  0.50019698  0.37536059  1
  V  V95  1  0.75130804  0.50226587  0.25295512  1
  Zn  Zn96  1  0.87516838  0.50206734  0.37640820  1
  Zn  Zn97  1  0.88044320  0.87759515  0.50012357  1
  Zn  Zn98  1  0.50002818  0.49978946  0.00029241  1
  Zn  Zn99  1  -0.00128875  0.87748744  0.37867247  1
  Zn  Zn100  1  0.24981228  0.87597543  0.12238047  1
  Zn  Zn101  1  0.62569456  0.49791509  0.62719371  1
  Zn  Zn102  1  0.62516415  0.12424218  0.00090296  1
  Zn  Zn103  1  0.12400017  0.74906801  0.87467130  1
  Zn  Zn104  1  0.74710543  0.37540386  0.62489053  1
  Zn  Zn105  1  0.25059926  -0.00110918  0.24732170  1
  Zn  Zn106  1  0.62588129  0.00073168  0.12477037  1
  Zn  Zn107  1  0.37681280  0.62488381  0.75028257  1
  Zn  Zn108  1  0.75284454  0.87686531  0.62576474  1
  Zn  Zn109  1  0.87543069  -0.00354190  0.37866590  1
  Zn  Zn110  1  0.87632620  0.62582197  0.75338874  1
  Zn  Zn111  1  0.24824069  0.87562479  0.62318794  1
  Zn  Zn112  1  0.49930391  0.37384127  0.37456103  1
  Zn  Zn113  1  0.75222305  0.62593876  0.87451527  1
  Zn  Zn114  1  0.12562374  0.50053462  0.12621225  1
  Zn  Zn115  1  0.37466889  -0.00088551  0.87340244  1
  Zn  Zn116  1  0.75373928  0.62523206  0.37599500  1
  Zn  Zn117  1  -0.00138248  0.25176571  0.75040233  1
  Zn  Zn118  1  0.37683368  0.62390603  0.24988307  1
  Zn  Zn119  1  0.87624095  0.62545110  0.25340317  1
  Zn  Zn120  1  0.50038483  0.00064997  0.49884547  1
  Zn  Zn121  1  0.50082561  0.62392098  0.62810024  1
  Zn  Zn122  1  -0.00036546  0.74796700  0.75242270  1
  Zn  Zn123  1  0.12295768  -0.00223247  0.62075948  1
  Zn  Zn124  1  0.62359472  0.12504550  0.49841102  1
  Zn  Zn125  1  -0.00172412  -0.00111055  0.49617308  1
  Zn  Zn126  1  0.49977427  0.62231920  0.12719249  1
  Zn  Zn127  1  0.62469056  0.37594086  0.74815785  1
  Zn  Zn128  1  0.18746724  0.18740112  0.18763089  1
  Zn  Zn129  1  0.18573154  0.18831092  0.68719930  1
  Zn  Zn130  1  0.18852780  0.68672621  0.18658161  1
  Zn  Zn131  1  0.18892151  0.68822235  0.68768549  1
  Zn  Zn132  1  0.68573236  0.18567670  0.18703371  1
  Zn  Zn133  1  0.68694931  0.18758922  0.68762814  1
  Zn  Zn134  1  0.68759589  0.68723631  0.18695722  1
  Zn  Zn135  1  0.68953968  0.68438586  0.68763227  1
  Zn  Zn136  1  0.31357226  0.31251501  0.31282102  1
  Zn  Zn137  1  0.31231812  0.31294453  0.81176501  1
  Zn  Zn138  1  0.31132875  0.81216296  0.31104265  1
  Zn  Zn139  1  0.31240895  0.81194916  0.81272149  1
  Zn  Zn140  1  0.81213754  0.31346159  0.31411972  1
  Zn  Zn141  1  0.81219079  0.31448777  0.81207612  1
  Zn  Zn142  1  0.81440255  0.81285660  0.31548947  1
  Zn  Zn143  1  0.81204227  0.81374675  0.81255127  1
  Zn  Zn144  1  0.18683374  0.43742206  0.43709299  1
  Zn  Zn145  1  0.18737537  0.43925066  0.93799969  1
  Zn  Zn146  1  0.18709750  0.93849680  0.43628434  1
  Zn  Zn147  1  0.18822539  0.93694773  0.93524833  1
  Zn  Zn148  1  0.68659515  0.43472680  0.43630951  1
  Zn  Zn149  1  0.68697692  0.43742962  0.93523134  1
  Zn  Zn150  1  0.68940721  0.93729023  0.43685704  1
  Zn  Zn151  1  0.68693764  0.93750399  0.93789743  1
  Zn  Zn152  1  0.31230347  0.06074887  0.06171211  1
  Zn  Zn153  1  0.31218525  0.06157100  0.56068820  1
  Zn  Zn154  1  0.31225227  0.56200928  0.06207903  1
  Zn  Zn155  1  0.31296393  0.56385260  0.56225636  1
  Zn  Zn156  1  0.81227641  0.06257723  0.06383902  1
  Zn  Zn157  1  0.81229366  0.06380699  0.56057292  1
  Zn  Zn158  1  0.81225597  0.56382164  0.06481244  1
  Zn  Zn159  1  0.81343002  0.56330107  0.56539995  1
  Zn  Zn160  1  0.43793229  0.43759990  0.18680616  1
  Zn  Zn161  1  0.43732273  0.43648776  0.68767871  1
  Zn  Zn162  1  0.43793038  0.93584153  0.18689986  1
  Zn  Zn163  1  0.43752402  0.93625183  0.68706010  1
  Zn  Zn164  1  0.93696739  0.43864199  0.18793737  1
  Zn  Zn165  1  0.93543559  0.43798032  0.68814704  1
  Zn  Zn166  1  0.93811578  0.93785472  0.18972570  1
  Zn  Zn167  1  0.93705496  0.93767982  0.68644605  1
  Zn  Zn168  1  0.06139626  0.06056950  0.31306079  1
  Zn  Zn169  1  0.06198037  0.06220317  0.81037882  1
  Zn  Zn170  1  0.06336426  0.56242577  0.31289975  1
  Zn  Zn171  1  0.06273026  0.56273390  0.81298233  1
  Zn  Zn172  1  0.56287304  0.06147945  0.31089736  1
  Zn  Zn173  1  0.56273233  0.06366330  0.81255379  1
  Zn  Zn174  1  0.56320246  0.56362856  0.31424078  1
  Zn  Zn175  1  0.56307284  0.56318834  0.81371250  1
  Zn  Zn176  1  0.43893261  0.18574219  0.43748387  1
  Zn  Zn177  1  0.43632260  0.18650242  0.93598452  1
  Zn  Zn178  1  0.43827032  0.68649241  0.43722854  1
  Zn  Zn179  1  0.43849318  0.68660737  0.93661802  1
  Zn  Zn180  1  0.93576700  0.18697153  0.43800613  1
  Zn  Zn181  1  0.93690038  0.18904606  0.93740939  1
  Zn  Zn182  1  0.93689475  0.68689659  0.43645792  1
  Zn  Zn183  1  0.93866274  0.68825130  0.93772450  1
  Zn  Zn184  1  0.06306741  0.31343744  0.06298038  1
  Zn  Zn185  1  0.06080230  0.31083290  0.56286842  1
  Zn  Zn186  1  0.06321019  0.81151877  0.06266251  1
  Zn  Zn187  1  0.06143027  0.81291453  0.56313479  1
  Zn  Zn188  1  0.56225983  0.31233590  0.06149026  1
  Zn  Zn189  1  0.56456317  0.31408289  0.56356918  1
  Zn  Zn190  1  0.56230421  0.81248204  0.06363185  1
  Zn  Zn191  1  0.56176153  0.81441173  0.56264614  1
  O  O192  1  0.11912759  0.12121808  0.11863812  1
  O  O193  1  0.11554504  0.12696323  0.61938661  1
  O  O194  1  0.11883954  0.62323973  0.11813337  1
  O  O195  1  0.12121640  0.61951723  0.61952857  1
  O  O196  1  0.61543036  0.12216429  0.12158545  1
  O  O197  1  0.61846482  0.11485278  0.62611098  1
  O  O198  1  0.62441829  0.62025062  0.11569325  1
  O  O199  1  0.62238866  0.62263390  0.61233297  1
  O  O200  1  0.37588492  0.38156729  0.38248506  1
  O  O201  1  0.37886871  0.37941538  0.88014120  1
  O  O202  1  0.37983439  0.87895880  0.37838907  1
  O  O203  1  0.38294597  0.87541806  0.88063158  1
  O  O204  1  0.88269790  0.37636251  0.38210601  1
  O  O205  1  0.88122490  0.38031377  0.88250570  1
  O  O206  1  0.87942386  0.87636233  0.38033724  1
  O  O207  1  0.87992227  0.88205935  0.88099843  1
  O  O208  1  0.25695561  0.00731239  0.37141956  1
  O  O209  1  0.25065644  0.00688361  0.86388878  1
  O  O210  1  0.25491154  0.50465882  0.37084676  1
  O  O211  1  0.25567748  0.50424227  0.86915690  1
  O  O212  1  0.75003692  0.00719504  0.36744920  1
  O  O213  1  0.75526307  0.00592895  0.87107424  1
  O  O214  1  0.74952442  0.49986532  0.36333173  1
  O  O215  1  0.75705346  0.50062245  0.86810130  1
  O  O216  1  0.24977163  0.49252986  0.13198273  1
  O  O217  1  0.24492434  0.49457403  0.62892184  1
  O  O218  1  0.24190548  0.99720740  0.12617214  1
  O  O219  1  0.24808942  0.99935088  0.63704002  1
  O  O220  1  0.74462207  0.49389470  0.13303319  1
  O  O221  1  0.75016457  0.49867584  0.63672564  1
  O  O222  1  0.74893815  0.99302470  0.13106788  1
  O  O223  1  0.74016613  1.00103418  0.63234981  1
  O  O224  1  0.00503316  0.36964102  0.25509587  1
  O  O225  1  0.00688156  0.37510514  0.75733576  1
  O  O226  1  0.01231079  0.86786432  0.24809908  1
  O  O227  1  0.00943638  0.87718290  0.75584201  1
  O  O228  1  0.50578612  0.36740678  0.25058590  1
  O  O229  1  0.49848190  0.36693029  0.75706881  1
  O  O230  1  0.50620213  0.86852876  0.25522975  1
  O  O231  1  0.50623051  0.86968910  0.75561066  1
  O  O232  1  0.49332299  0.12983351  0.24343139  1
  O  O233  1  0.49281497  0.13029318  0.74494195  1
  O  O234  1  0.49826446  0.63331981  0.24871889  1
  O  O235  1  0.49797969  0.63349756  0.74786457  1
  O  O236  1  0.99551186  0.13211167  0.24339790  1
  O  O237  1  0.99425687  0.12809659  0.74208808  1
  O  O238  1  1.00139175  0.63113146  0.24310330  1
  O  O239  1  0.99914373  0.62662299  0.74186577  1
  O  O240  1  0.36831395  0.25453973  0.00466001  1
  O  O241  1  0.36958279  0.25490155  0.50483155  1
  O  O242  1  0.37165585  0.75381253  0.00696851  1
  O  O243  1  0.37105270  0.75476974  0.50627062  1
  O  O244  1  0.86942950  0.25607560  0.00604320  1
  O  O245  1  0.86860909  0.25549786  0.50511621  1
  O  O246  1  0.87024079  0.75687263  0.00623767  1
  O  O247  1  0.86545788  0.74752027  0.50991026  1
  O  O248  1  0.13120163  0.24555452  0.49413364  1
  O  O249  1  0.13021762  0.24467161  0.99487810  1
  O  O250  1  0.13153455  0.74392726  0.49554920  1
  O  O251  1  0.13222730  0.74354930  0.99865200  1
  O  O252  1  0.63045345  0.24914214  0.49223914  1
  O  O253  1  0.63185178  0.24834794  0.99337712  1
  O  O254  1  0.63076589  0.74288596  0.49748227  1
  O  O255  1  0.63009316  0.74433499  0.99580720  1
  O  O256  1  0.49334818  0.24444264  0.12936995  1
  O  O257  1  0.49372797  0.24464357  0.63012499  1
  O  O258  1  0.49084083  0.74969936  0.13068055  1
  O  O259  1  0.49131487  0.75033732  0.63010654  1
  O  O260  1  0.99442872  0.24556813  0.12991537  1
  O  O261  1  0.99306016  0.24048178  0.62690352  1
  O  O262  1  0.99510936  0.74449019  0.12990929  1
  O  O263  1  0.99103401  0.74345540  0.62653144  1
  O  O264  1  0.00572149  0.25505859  0.36940347  1
  O  O265  1  0.00639409  0.25758902  0.87505545  1
  O  O266  1  0.00924545  0.74919199  0.36807968  1
  O  O267  1  0.00214645  0.75948297  0.87261784  1
  O  O268  1  0.50518083  0.24989766  0.36695554  1
  O  O269  1  0.50373652  0.25397895  0.86947145  1
  O  O270  1  0.50529701  0.75577644  0.37001604  1
  O  O271  1  0.50645977  0.75579181  0.86954242  1
  O  O272  1  0.24540116  0.13170036  0.49414625  1
  O  O273  1  0.24420484  0.13034235  0.99399871  1
  O  O274  1  0.24432929  0.63002801  0.49432529  1
  O  O275  1  0.24484816  0.62931160  0.99445439  1
  O  O276  1  0.74685878  0.13319334  0.49215494  1
  O  O277  1  0.75010330  0.13173109  0.99408323  1
  O  O278  1  0.74105734  0.63351319  0.50094275  1
  O  O279  1  0.73989345  0.63222110  1.00103965  1
  O  O280  1  0.25452097  0.36901967  0.00499153  1
  O  O281  1  0.25444365  0.36964400  0.50566116  1
  O  O282  1  0.25695671  0.86836839  -0.00117862  1
  O  O283  1  0.25634868  0.86792411  0.50048234  1
  O  O284  1  0.75564461  0.36994024  0.00590748  1
  O  O285  1  0.75689264  0.36816744  0.50010057  1
  O  O286  1  0.75600544  0.87100106  0.00561922  1
  O  O287  1  0.74719673  0.86005793  0.50405948  1
  O  O288  1  0.13265121  0.49205103  0.24975566  1
  O  O289  1  0.13136014  0.49408186  0.74409839  1
  O  O290  1  0.12540434  0.99127415  0.24295337  1
  O  O291  1  0.13332267  0.99265304  0.74861847  1
  O  O292  1  0.63181290  0.49465264  0.24538199  1
  O  O293  1  0.63533812  0.49948129  0.75028614  1
  O  O294  1  0.63171358  0.99194346  0.24756632  1
  O  O295  1  0.62928728  0.99558608  0.74313902  1
  O  O296  1  0.37375674  0.00554494  0.25516447  1
  O  O297  1  0.36542021  0.00483265  0.75019148  1
  O  O298  1  0.36901884  0.50042684  0.25692467  1
  O  O299  1  0.36813992  0.50090332  0.75557905  1
  O  O300  1  0.86772746  0.00777692  0.24932500  1
  O  O301  1  0.86922237  0.00603725  0.75602409  1
  O  O302  1  0.86259593  0.50008269  0.25067136  1
  O  O303  1  0.86747340  0.50092079  0.75769210  1
  O  O304  1  0.12007767  0.36815300  0.37012061  1
  O  O305  1  0.12032989  0.37083105  0.87054461  1
  O  O306  1  0.12572509  0.86849880  0.36417354  1
  O  O307  1  0.11862625  0.87522839  0.86574845  1
  O  O308  1  0.62198719  0.36690371  0.36702632  1
  O  O309  1  0.61725592  0.36744827  0.87368058  1
  O  O310  1  0.61988620  0.86910310  0.36960225  1
  O  O311  1  0.61982765  0.86954657  0.86961581  1
  O  O312  1  0.37907276  0.13051221  0.12948814  1
  O  O313  1  0.37907139  0.13031325  0.62970926  1
  O  O314  1  0.37729608  0.63686042  0.12504107  1
  O  O315  1  0.37683005  0.63854609  0.62503626  1
  O  O316  1  0.88076137  0.13141815  0.13024287  1
  O  O317  1  0.88197258  0.13131616  0.63052971  1
  O  O318  1  0.88224790  0.63252057  0.12704465  1
  O  O319  1  0.88224207  0.63473131  0.62654451  1
  O  O320  1  0.25514980  0.25465185  0.11897160  1
  O  O321  1  0.25519042  0.25504368  0.61929541  1
  O  O322  1  0.26027016  0.75079893  0.11800239  1
  O  O323  1  0.25976148  0.75152767  0.61868756  1
  O  O324  1  0.75509959  0.25523214  0.12049718  1
  O  O325  1  0.75615597  0.24936525  0.61812605  1
  O  O326  1  0.75619224  0.75629273  0.12026392  1
  O  O327  1  0.75802150  0.74984959  0.61834762  1
  O  O328  1  0.24514470  0.24482636  0.38038493  1
  O  O329  1  0.24386825  0.24552146  0.88022991  1
  O  O330  1  0.24504501  0.74395475  0.38017690  1
  O  O331  1  0.24947663  0.74238994  0.88124585  1
  O  O332  1  0.74359878  0.24482264  0.37859494  1
  O  O333  1  0.74552884  0.24572870  0.88058028  1
  O  O334  1  0.74313054  0.74824168  0.38549784  1
  O  O335  1  0.74404018  0.75050661  0.88290268  1
  O  O336  1  0.00476971  0.12064070  0.00505839  1
  O  O337  1  0.00596229  0.12781216  0.50951764  1
  O  O338  1  0.00556655  0.62004483  0.00596391  1
  O  O339  1  0.00711976  0.61945688  0.50622381  1
  O  O340  1  0.49820023  0.11532118  0.00418854  1
  O  O341  1  0.50258335  0.12133256  0.50859783  1
  O  O342  1  0.51389714  0.62474390  0.00170553  1
  O  O343  1  0.50853010  0.61709094  0.50064385  1
  O  O344  1  0.49348796  0.38404062  0.49868391  1
  O  O345  1  0.49181380  0.37445318  0.99293997  1
  O  O346  1  0.49336904  0.87633982  0.49176185  1
  O  O347  1  0.49568957  0.88148425  0.99464864  1
  O  O348  1  0.99548530  0.37939096  0.49515237  1
  O  O349  1  0.99483076  0.38055031  0.99609033  1
  O  O350  1  1.00039673  0.87968676  0.49810641  1
  O  O351  1  0.99483996  0.88168240  0.99554829  1
  O  O352  1  0.49436376  0.49903697  0.38624227  1
  O  O353  1  0.49339455  0.49280338  0.87690245  1
  O  O354  1  0.49337976  0.99290298  0.37494104  1
  O  O355  1  0.49872469  0.99428829  0.88297733  1
  O  O356  1  1.00134709  0.49247750  0.38256686  1
  O  O357  1  0.99498529  0.49440117  0.88221356  1
  O  O358  1  0.99493464  0.99808753  0.37675667  1
  O  O359  1  0.99370379  0.99656956  0.88080791  1
  O  O360  1  0.00486453  0.00686827  0.11878492  1
  O  O361  1  0.00038365  0.01571771  0.62557329  1
  O  O362  1  0.00143771  0.50590440  0.11918977  1
  O  O363  1  0.00630365  0.50466316  0.61968382  1
  O  O364  1  0.49975435  0.00408287  0.11482212  1
  O  O365  1  0.50908550  0.00506140  0.62569565  1
  O  O366  1  0.50793667  0.50167196  0.12135511  1
  O  O367  1  0.49862170  0.50213617  0.61193820  1
  O  O368  1  0.24510178  0.37880874  0.24537897  1
  O  O369  1  0.24456551  0.38064439  0.74372664  1
  O  O370  1  0.23684149  0.87486020  0.24630401  1
  O  O371  1  0.24204314  0.88391328  0.75121149  1
  O  O372  1  0.74437185  0.38184943  0.24440578  1
  O  O373  1  0.74883686  0.38669265  0.74948243  1
  O  O374  1  0.74529389  0.87933196  0.24515271  1
  O  O375  1  0.74300802  0.88342764  0.74959940  1
  O  O376  1  0.25653848  0.12504577  0.25623047  1
  O  O377  1  0.25288452  0.11816854  0.75350446  1
  O  O378  1  0.25158287  0.61804297  0.25690654  1
  O  O379  1  0.25146487  0.61809130  0.75625266  1
  O  O380  1  0.75507761  0.12011150  0.25370217  1
  O  O381  1  0.75598067  0.12008468  0.75684526  1
  O  O382  1  0.74948461  0.61323892  0.25071645  1
  O  O383  1  0.75307602  0.61396953  0.75383354  1
  O  O384  1  0.37005380  0.11974804  0.36928372  1
  O  O385  1  0.36658950  0.12403750  0.86690282  1
  O  O386  1  0.36785081  0.61835836  0.37489368  1
  O  O387  1  0.36864560  0.61790758  0.87438859  1
  O  O388  1  0.86669084  0.12752175  0.36646542  1
  O  O389  1  0.87013446  0.12031707  0.87053302  1
  O  O390  1  0.87137871  0.61992466  0.37136976  1
  O  O391  1  0.87333815  0.61689378  0.87551627  1
  O  O392  1  0.13213716  0.37514861  0.13214384  1
  O  O393  1  0.12996356  0.37987570  0.62947901  1
  O  O394  1  0.12553840  0.88070333  0.13229384  1
  O  O395  1  0.12722592  0.87765577  0.63674551  1
  O  O396  1  0.63079574  0.37961416  0.12977479  1
  O  O397  1  0.62862422  0.37962835  0.62979893  1
  O  O398  1  0.63257896  0.87472582  0.13187624  1
  O  O399  1  0.62544322  0.88479637  0.63181753  1
  O  O400  1  0.11921519  0.25512356  0.25526250  1
  O  O401  1  0.12435565  0.25778956  0.75717869  1
  O  O402  1  0.12128148  0.75691120  0.25377758  1
  O  O403  1  0.12505967  0.76242725  0.75164631  1
  O  O404  1  0.61933042  0.25511302  0.25374253  1
  O  O405  1  0.61740112  0.24993254  0.75712478  1
  O  O406  1  0.62115332  0.75507708  0.25607865  1
  O  O407  1  0.62147319  0.75500084  0.75465031  1
  O  O408  1  0.37968256  0.24431441  0.24389596  1
  O  O409  1  0.37856401  0.24430654  0.74325602  1
  O  O410  1  0.38016262  0.74992999  0.24057450  1
  O  O411  1  0.38059580  0.75080311  0.74043924  1
  O  O412  1  0.88016070  0.24568866  0.24405979  1
  O  O413  1  0.87561427  0.24399785  0.74442655  1
  O  O414  1  0.88225040  0.74960228  0.24298485  1
  O  O415  1  0.87499643  0.74852196  0.73965546  1
  O  O416  1  0.38155866  0.49561238  0.49578544  1
  O  O417  1  0.37556322  0.49245295  0.99324926  1
  O  O418  1  0.37579040  0.99267870  0.49259281  1
  O  O419  1  0.38439322  0.99339416  0.99743910  1
  O  O420  1  0.88219835  0.49355834  0.50073361  1
  O  O421  1  0.87971367  0.49426149  0.99678519  1
  O  O422  1  0.87663532  0.99674344  0.49850650  1
  O  O423  1  0.88039083  0.99519255  0.99514906  1
  O  O424  1  0.11920565  0.00588456  0.00336159  1
  O  O425  1  0.12479681  0.01042146  0.50240242  1
  O  O426  1  0.11826994  0.50615787  0.00246595  1
  O  O427  1  0.12029543  0.50493932  0.50607701  1
  O  O428  1  0.61229777  0.00057129  0.00160293  1
  O  O429  1  0.62450327  0.00024420  0.51249887  1
  O  O430  1  0.62653731  0.50916983  0.00525997  1
  O  O431  1  0.61726116  0.50741836  0.49846686  1
  O  O432  1  0.36908831  0.36819206  0.11950601  1
  O  O433  1  0.36835346  0.36874044  0.61924851  1
  O  O434  1  0.37417070  0.86384086  0.11832997  1
  O  O435  1  0.37395629  0.86470095  0.61869964  1
  O  O436  1  0.86961795  0.36919613  0.12009479  1
  O  O437  1  0.87473465  0.36745390  0.61801914  1
  O  O438  1  0.87072868  0.87002336  0.11955291  1
  O  O439  1  0.87323777  0.86324596  0.62376294  1
  O  O440  1  0.13060264  0.13177980  0.37906916  1
  O  O441  1  0.12907409  0.13069827  0.87994351  1
  O  O442  1  0.13144326  0.63020016  0.38128530  1
  O  O443  1  0.13203564  0.62559391  0.88212725  1
  O  O444  1  0.63137013  0.13151830  0.37390267  1
  O  O445  1  0.63199509  0.13168950  0.87683931  1
  O  O446  1  0.62685402  0.63136919  0.38714289  1
  O  O447  1  0.62748148  0.63198798  0.88563049  1
