# generated using pymatgen
data_V3Zn3O8
_symmetry_space_group_name_H-M   'P 1'
_cell_length_a   17.08907097
_cell_length_b   17.08864769
_cell_length_c   17.08752173
_cell_angle_alpha   89.99382334
_cell_angle_beta   90.01149008
_cell_angle_gamma   89.99651071
_symmetry_Int_Tables_number   1
_chemical_formula_structural   V3Zn3O8
_chemical_formula_sum   'V96 Zn96 O256'
_cell_volume   4990.05368025
_cell_formula_units_Z   32
loop_
 _symmetry_equiv_pos_site_id
 _symmetry_equiv_pos_as_xyz
  1  'x, y, z'
loop_
 _atom_site_type_symbol
 _atom_site_label
 _atom_site_symmetry_multiplicity
 _atom_site_fract_x
 _atom_site_fract_y
 _atom_site_fract_z
 _atom_site_occupancy
  V  V0  1  0.24967823  0.62568332  0.87608921  1
  V  V1  1  0.37491331  0.87591465  -0.00005302  1
  V  V2  1  -0.00007691  0.24976071  0.24999844  1
  V  V3  1  0.00034746  0.24970193  0.75085252  1
  V  V4  1  0.12663985  0.50007290  0.62497472  1
  V  V5  1  0.00037964  0.62451162  0.12583161  1
  V  V6  1  0.87434910  0.25041134  0.62572789  1
  V  V7  1  0.00124552  0.87311755  0.37304357  1
  V  V8  1  0.75091283  0.50114231  0.75208510  1
  V  V9  1  0.62440432  0.12515781  0.49990502  1
  V  V10  1  0.12540229  0.24892722  0.87341009  1
  V  V11  1  0.75053264  0.87295842  0.12440480  1
  V  V12  1  0.12621455  0.62513388  -0.00043865  1
  V  V13  1  0.75035658  0.25047732  0.00141267  1
  V  V14  1  0.49871608  -0.00093750  0.50006456  1
  V  V15  1  0.74991970  0.00002770  0.74986071  1
  V  V16  1  0.12557520  0.62492844  0.49907670  1
  V  V17  1  0.00058229  -0.00016657  0.00106678  1
  V  V18  1  0.49904248  0.25001307  0.25039653  1
  V  V19  1  0.87456734  0.87398993  0.00119189  1
  V  V20  1  0.74926627  -0.00054723  0.25134251  1
  V  V21  1  0.37620404  0.49983420  0.87547597  1
  V  V22  1  0.75082185  0.62433231  0.37573625  1
  V  V23  1  0.75038424  0.37489766  0.62579112  1
  V  V24  1  0.62596466  0.62523277  0.50062464  1
  V  V25  1  0.50022715  0.75102655  0.75098263  1
  V  V26  1  0.62494352  0.24921737  0.37603773  1
  V  V27  1  0.00036272  0.49921047  -0.00126134  1
  V  V28  1  0.00013670  0.37499863  0.87510818  1
  V  V29  1  0.50065078  0.50097446  0.00044896  1
  V  V30  1  0.49938662  0.37604399  0.37593802  1
  V  V31  1  0.62544169  0.37552036  0.75014521  1
  V  V32  1  0.24952839  -0.00005492  0.24954242  1
  V  V33  1  0.62513651  -0.00061007  0.62617303  1
  V  V34  1  0.87627837  0.74909464  0.62596132  1
  V  V35  1  -0.00062751  0.12401713  0.12421862  1
  V  V36  1  0.37504845  0.75130739  0.12490689  1
  V  V37  1  0.00036850  0.62552037  0.62524819  1
  V  V38  1  0.12609003  0.49947480  0.12473966  1
  V  V39  1  0.37376714  0.12549670  0.24967542  1
  V  V40  1  0.37463302  0.12519188  0.74968188  1
  V  V41  1  0.00088753  0.87425944  0.87523661  1
  V  V42  1  0.87475997  0.87479613  0.50066498  1
  V  V43  1  0.12419388  -0.00077956  0.12409422  1
  V  V44  1  0.87585994  0.62439826  0.75029710  1
  V  V45  1  0.87438623  0.24972381  0.12468435  1
  V  V46  1  0.75016597  0.50017036  0.25042693  1
  V  V47  1  0.37440344  0.00080618  0.87424496  1
  V  V48  1  0.50081263  0.75063012  0.25027548  1
  V  V49  1  0.62441288  0.50098367  0.12486203  1
  V  V50  1  0.50087044  0.12454362  0.12415220  1
  V  V51  1  0.87552210  0.50046925  0.87486794  1
  V  V52  1  0.74992556  0.37423802  0.12537905  1
  V  V53  1  0.37508955  0.62507922  0.75015873  1
  V  V54  1  0.25011796  0.49997688  0.24990993  1
  V  V55  1  0.37471866  0.62455501  0.25071501  1
  V  V56  1  0.12441548  0.12574019  0.49885455  1
  V  V57  1  0.62489292  0.37504860  0.25088989  1
  V  V58  1  0.24890541  0.74998584  0.49858803  1
  V  V59  1  0.25052736  0.49994599  0.74884458  1
  V  V60  1  0.00011560  0.49885490  0.50034428  1
  V  V61  1  0.87531730  0.37563065  0.49983266  1
  V  V62  1  0.50141966  0.87466836  0.87457142  1
  V  V63  1  0.87523796  -0.00013363  0.87588792  1
  V  V64  1  0.49978142  0.87477681  0.37518341  1
  V  V65  1  0.49998206  0.12479317  0.62450397  1
  V  V66  1  0.25113584  0.25182061  -0.00069769  1
  V  V67  1  0.87532374  0.12531672  0.75060113  1
  V  V68  1  0.50101239  0.62482024  0.12491669  1
  V  V69  1  0.62426749  0.12529953  0.00070909  1
  V  V70  1  0.12494111  0.87434784  0.74987202  1
  V  V71  1  0.49942605  0.49949888  0.49932437  1
  V  V72  1  0.62509605  0.25052941  0.87496778  1
  V  V73  1  -0.00094502  0.12456583  0.62470675  1
  V  V74  1  0.24976211  0.62525121  0.37449394  1
  V  V75  1  0.74879114  0.12429339  0.37544625  1
  V  V76  1  0.87706870  0.62477785  0.24965112  1
  V  V77  1  0.87311256  0.00050753  0.37557657  1
  V  V78  1  0.37491467  0.25073843  0.62303670  1
  V  V79  1  0.50003584  0.62546547  0.62516007  1
  V  V80  1  0.24881221  0.87579582  0.62498290  1
  V  V81  1  0.12629102  0.37563885  0.74827292  1
  V  V82  1  0.50024456  0.25030680  0.74936617  1
  V  V83  1  0.75027150  0.87555454  0.62569859  1
  V  V84  1  0.25071591  0.87550333  0.12403327  1
  V  V85  1  0.37467604  0.87565419  0.49986111  1
  V  V86  1  0.37466369  0.75019544  0.62479627  1
  V  V87  1  0.12576809  0.37382388  0.24912216  1
  V  V88  1  0.62491490  0.87455851  0.25037412  1
  V  V89  1  0.62502774  0.50020599  0.62604622  1
  V  V90  1  -0.00085102  0.00090959  0.50017105  1
  V  V91  1  0.74976813  0.12509442  0.87590228  1
  V  V92  1  0.24979692  0.25098306  0.49864031  1
  V  V93  1  0.74980765  0.74887634  0.50074160  1
  V  V94  1  0.25042467  0.12529506  0.87268556  1
  V  V95  1  0.49951959  0.37616468  0.87559625  1
  Zn  Zn96  1  0.37555864  0.37604471  0.00309717  1
  Zn  Zn97  1  0.74960771  0.24986696  0.50037357  1
  Zn  Zn98  1  0.25225468  0.37681341  0.62284880  1
  Zn  Zn99  1  0.25339359  0.37440448  0.12461924  1
  Zn  Zn100  1  0.62635819  0.87338086  0.75125975  1
  Zn  Zn101  1  0.12535721  -0.00048369  0.62510522  1
  Zn  Zn102  1  0.87515718  0.37522685  -0.00020587  1
  Zn  Zn103  1  0.00249281  0.74968329  0.24891869  1
  Zn  Zn104  1  0.37478244  0.49874120  0.37571526  1
  Zn  Zn105  1  0.37388048  0.37639619  0.49857154  1
  Zn  Zn106  1  0.87657440  0.74827318  0.12265983  1
  Zn  Zn107  1  0.62811065  0.74761582  0.87545426  1
  Zn  Zn108  1  0.12480731  0.25010060  0.37366780  1
  Zn  Zn109  1  0.24864767  0.12491913  0.37341091  1
  Zn  Zn110  1  0.00081764  0.74870512  0.75188961  1
  Zn  Zn111  1  0.87660336  0.49830528  0.37482014  1
  Zn  Zn112  1  0.37326411  0.00019523  0.37624487  1
  Zn  Zn113  1  0.62538034  0.74936474  0.37547425  1
  Zn  Zn114  1  -0.00066496  0.37451811  0.37523986  1
  Zn  Zn115  1  0.12538580  0.74999088  0.87705496  1
  Zn  Zn116  1  0.12534813  0.12420373  -0.00228857  1
  Zn  Zn117  1  0.37395448  0.25244455  0.12346102  1
  Zn  Zn118  1  0.87394799  0.12518123  0.25115253  1
  Zn  Zn119  1  0.62865280  0.62842041  -0.00142577  1
  Zn  Zn120  1  0.24922962  0.74999048  -0.00011153  1
  Zn  Zn121  1  0.74955575  0.62821740  0.87772485  1
  Zn  Zn122  1  0.24929175  0.00083466  0.74824325  1
  Zn  Zn123  1  0.50108814  0.00065618  -0.00062614  1
  Zn  Zn124  1  0.12435052  0.74977939  0.37282637  1
  Zn  Zn125  1  0.62519785  -0.00056906  0.12378128  1
  Zn  Zn126  1  0.74963296  0.74880984  -0.00411474  1
  Zn  Zn127  1  0.12444391  0.87219890  0.24937679  1
  Zn  Zn128  1  0.18566286  0.18599395  0.18208020  1
  Zn  Zn129  1  0.18800098  0.18836792  0.68514098  1
  Zn  Zn130  1  0.18631976  0.68949752  0.18853009  1
  Zn  Zn131  1  0.18751152  0.68872336  0.68768773  1
  Zn  Zn132  1  0.68669965  0.18710133  0.18910673  1
  Zn  Zn133  1  0.68800767  0.18728516  0.68751870  1
  Zn  Zn134  1  0.68745122  0.68816870  0.18706316  1
  Zn  Zn135  1  0.68774926  0.68833549  0.69054326  1
  Zn  Zn136  1  0.31243771  0.31210946  0.31455282  1
  Zn  Zn137  1  0.31311970  0.31365120  0.81213520  1
  Zn  Zn138  1  0.31359131  0.81236916  0.31293903  1
  Zn  Zn139  1  0.31150568  0.81193442  0.81348255  1
  Zn  Zn140  1  0.81189097  0.31104641  0.31340927  1
  Zn  Zn141  1  0.81300995  0.31380798  0.81365273  1
  Zn  Zn142  1  0.81309090  0.81006449  0.31242964  1
  Zn  Zn143  1  0.81387915  0.81150652  0.81233901  1
  Zn  Zn144  1  0.18654893  0.43736193  0.43455642  1
  Zn  Zn145  1  0.18774592  0.43747105  0.93557766  1
  Zn  Zn146  1  0.18669787  0.93898085  0.43685108  1
  Zn  Zn147  1  0.18838167  0.93804108  0.93682851  1
  Zn  Zn148  1  0.68808897  0.43839269  0.43763689  1
  Zn  Zn149  1  0.68747529  0.43943002  0.93895547  1
  Zn  Zn150  1  0.68537354  0.93655292  0.43786428  1
  Zn  Zn151  1  0.68604558  0.93807462  0.93951890  1
  Zn  Zn152  1  0.31289497  0.06374190  0.06035602  1
  Zn  Zn153  1  0.31110412  0.06206730  0.56417929  1
  Zn  Zn154  1  0.31322468  0.56240778  0.06291698  1
  Zn  Zn155  1  0.31346398  0.56284528  0.56083881  1
  Zn  Zn156  1  0.81286839  0.06148504  0.06446194  1
  Zn  Zn157  1  0.81153153  0.06250654  0.56174921  1
  Zn  Zn158  1  0.81266451  0.56230550  0.06123922  1
  Zn  Zn159  1  0.81275178  0.56177893  0.56468502  1
  Zn  Zn160  1  0.43569325  0.43735870  0.18688813  1
  Zn  Zn161  1  0.43678497  0.43647413  0.68609399  1
  Zn  Zn162  1  0.43755559  0.93861426  0.18713555  1
  Zn  Zn163  1  0.43596918  0.93770285  0.68858514  1
  Zn  Zn164  1  0.93730949  0.43768541  0.18505509  1
  Zn  Zn165  1  0.93866093  0.43842179  0.68744836  1
  Zn  Zn166  1  0.93476189  0.93851917  0.18890419  1
  Zn  Zn167  1  0.93860323  0.93751152  0.68787892  1
  Zn  Zn168  1  0.06206605  0.06183319  0.31274706  1
  Zn  Zn169  1  0.06363112  0.06056436  0.81276214  1
  Zn  Zn170  1  0.06224363  0.55955959  0.31511781  1
  Zn  Zn171  1  0.06314401  0.56252375  0.81265675  1
  Zn  Zn172  1  0.56268253  0.05995766  0.31287100  1
  Zn  Zn173  1  0.56218294  0.06162132  0.81234251  1
  Zn  Zn174  1  0.56312463  0.56311830  0.31348642  1
  Zn  Zn175  1  0.56396577  0.56445879  0.81445672  1
  Zn  Zn176  1  0.43635195  0.18687693  0.43603209  1
  Zn  Zn177  1  0.43631155  0.18858113  0.93692445  1
  Zn  Zn178  1  0.43700799  0.68794180  0.43658215  1
  Zn  Zn179  1  0.43803960  0.68849971  0.93946631  1
  Zn  Zn180  1  0.93623047  0.18892602  0.43622571  1
  Zn  Zn181  1  0.93741696  0.18736588  0.93914102  1
  Zn  Zn182  1  0.93684140  0.68680285  0.43738428  1
  Zn  Zn183  1  0.93749497  0.68891594  0.93748717  1
  Zn  Zn184  1  0.06434403  0.31205117  0.06176052  1
  Zn  Zn185  1  0.06245180  0.31244742  0.56459950  1
  Zn  Zn186  1  0.06308181  0.81040512  0.06389588  1
  Zn  Zn187  1  0.06290272  0.81147316  0.56184432  1
  Zn  Zn188  1  0.56241236  0.31321515  0.06265553  1
  Zn  Zn189  1  0.56234820  0.31307949  0.56140832  1
  Zn  Zn190  1  0.56420536  0.81104142  0.06056247  1
  Zn  Zn191  1  0.56323452  0.81253428  0.56319456  1
  O  O192  1  0.11685156  0.11668562  0.12085916  1
  O  O193  1  0.11780533  0.12489799  0.61475609  1
  O  O194  1  0.12016457  0.61791092  0.12023878  1
  O  O195  1  0.12055241  0.61962410  0.61926446  1
  O  O196  1  0.61589067  0.12535174  0.12020705  1
  O  O197  1  0.61947290  0.11957754  0.62036406  1
  O  O198  1  0.61782625  0.61761269  0.12683292  1
  O  O199  1  0.61966055  0.61922202  0.62089710  1
  O  O200  1  0.38417528  0.37703940  0.37704712  1
  O  O201  1  0.38287523  0.38248949  0.87414340  1
  O  O202  1  0.38155882  0.87693447  0.38239529  1
  O  O203  1  0.38171643  0.88057575  0.87932715  1
  O  O204  1  0.87515182  0.37534467  0.38802220  1
  O  O205  1  0.88306911  0.38124194  0.87573483  1
  O  O206  1  0.88112074  0.88008840  0.38165080  1
  O  O207  1  0.88095872  0.88242447  0.88016413  1
  O  O208  1  0.25129512  0.00296574  0.36268092  1
  O  O209  1  0.25696804  0.00751117  0.87241858  1
  O  O210  1  0.25092597  0.50710616  0.36763087  1
  O  O211  1  0.25612225  0.50560834  0.86813354  1
  O  O212  1  0.75389030  0.00425109  0.37129502  1
  O  O213  1  0.75545706  0.00600333  0.87017048  1
  O  O214  1  0.75227445  0.50607547  0.36815994  1
  O  O215  1  0.75809020  0.49810522  0.86778987  1
  O  O216  1  0.24292829  0.49859907  0.13202344  1
  O  O217  1  0.24436071  0.50022061  0.63089825  1
  O  O218  1  0.24546934  0.99643110  0.13147017  1
  O  O219  1  0.24662715  0.99147445  0.62748049  1
  O  O220  1  0.74448487  0.49331826  0.13156903  1
  O  O221  1  0.74426881  0.49399294  0.63174067  1
  O  O222  1  0.74942942  0.99003430  0.13235930  1
  O  O223  1  0.74544951  0.99550534  0.63014745  1
  O  O224  1  0.00787041  0.36617293  0.24778941  1
  O  O225  1  0.00606389  0.36919384  0.75461501  1
  O  O226  1  -0.00147985  0.87571262  0.26244555  1
  O  O227  1  0.00839250  0.87479443  0.75555788  1
  O  O228  1  0.50611933  0.36961874  0.25528204  1
  O  O229  1  0.50647241  0.36980801  0.75487840  1
  O  O230  1  0.50438104  0.87070848  0.25444176  1
  O  O231  1  0.49850322  0.86960209  0.75900068  1
  O  O232  1  0.49330428  0.12899680  0.24347129  1
  O  O233  1  0.49536393  0.13138469  0.74419523  1
  O  O234  1  0.49503337  0.63049228  0.24524334  1
  O  O235  1  0.49369610  0.62996695  0.74386815  1
  O  O236  1  0.99976198  0.13452281  0.24397635  1
  O  O237  1  0.99454214  0.12975323  0.74537892  1
  O  O238  1  0.99116275  0.62103394  0.24556258  1
  O  O239  1  0.99481087  0.62503883  0.74224514  1
  O  O240  1  0.36329810  0.25257602  -0.00156293  1
  O  O241  1  0.36503003  0.24816790  0.50426471  1
  O  O242  1  0.37378819  0.75759273  0.00820052  1
  O  O243  1  0.36940632  0.75542864  0.50619845  1
  O  O244  1  0.86777044  0.25171692  0.00640635  1
  O  O245  1  0.87433966  0.25928931  0.50706473  1
  O  O246  1  0.87332163  0.76049607  0.00302538  1
  O  O247  1  0.86903948  0.75476892  0.50657030  1
  O  O248  1  0.13115766  0.24237869  0.50027857  1
  O  O249  1  0.13332884  0.24798996  0.99157578  1
  O  O250  1  0.13189499  0.74263736  0.49824153  1
  O  O251  1  0.12835406  0.74021689  0.99896965  1
  O  O252  1  0.62572748  0.24279096  0.49405279  1
  O  O253  1  0.63064502  0.24507487  0.99394981  1
  O  O254  1  0.63215242  0.74265123  0.50095523  1
  O  O255  1  0.62927677  0.74780252  0.99553010  1
  O  O256  1  0.50014341  0.23957096  0.13146415  1
  O  O257  1  0.49610950  0.24411519  0.63002611  1
  O  O258  1  0.49430487  0.74547725  0.13147700  1
  O  O259  1  0.49361160  0.74494598  0.62974611  1
  O  O260  1  0.99543107  0.24530032  0.13141426  1
  O  O261  1  0.99379306  0.24418040  0.63202075  1
  O  O262  1  0.99707740  0.73999409  0.12847124  1
  O  O263  1  0.99314181  0.74284322  0.62464175  1
  O  O264  1  0.00094801  0.25200083  0.36202388  1
  O  O265  1  0.00487426  0.25421176  0.86942359  1
  O  O266  1  -0.00069660  0.76231912  0.37537248  1
  O  O267  1  0.00332167  0.75935356  0.87257487  1
  O  O268  1  0.50576720  0.25464276  0.36953259  1
  O  O269  1  0.50600849  0.25506860  0.86876037  1
  O  O270  1  0.50127758  0.75668237  0.36827592  1
  O  O271  1  0.49624374  0.76142427  0.86857474  1
  O  O272  1  0.24082805  0.13237430  0.49990118  1
  O  O273  1  0.24892060  0.13446886  0.99154088  1
  O  O274  1  0.24505350  0.63043149  0.49476073  1
  O  O275  1  0.24395104  0.62405426  0.99344994  1
  O  O276  1  0.74224256  0.12602824  0.49408552  1
  O  O277  1  0.74490963  0.13046263  0.99519648  1
  O  O278  1  0.74579070  0.62883649  0.49679120  1
  O  O279  1  0.74870023  0.62866980  0.99816362  1
  O  O280  1  0.25034327  0.36379800  -0.00129184  1
  O  O281  1  0.24929026  0.36309166  0.50010696  1
  O  O282  1  0.25736117  0.87481101  0.00671557  1
  O  O283  1  0.25444126  0.87033106  0.50435823  1
  O  O284  1  0.74982914  0.36762203  0.00759178  1
  O  O285  1  0.75880311  0.37477941  0.50734917  1
  O  O286  1  0.75616662  0.87848691  0.01047755  1
  O  O287  1  0.75537816  0.86992633  0.50571006  1
  O  O288  1  0.12902814  0.49156754  0.24468621  1
  O  O289  1  0.13121542  0.49528777  0.74447250  1
  O  O290  1  0.13520626  1.00027114  0.24390495  1
  O  O291  1  0.12619294  0.98774969  0.74709123  1
  O  O292  1  0.63031486  0.49411465  0.24494296  1
  O  O293  1  0.62980024  0.49407937  0.74455961  1
  O  O294  1  0.63166124  0.99230145  0.24872400  1
  O  O295  1  0.63236806  0.99992509  0.74338908  1
  O  O296  1  0.36571802  0.00927995  0.24856401  1
  O  O297  1  0.37339586  0.00831574  0.75559942  1
  O  O298  1  0.36813221  0.50736437  0.25127664  1
  O  O299  1  0.37087146  0.50605831  0.75451687  1
  O  O300  1  0.86721477  0.00249377  0.25854707  1
  O  O301  1  0.87009299  0.00649990  0.75565452  1
  O  O302  1  0.86921659  0.50821536  0.25075625  1
  O  O303  1  0.87064521  0.50449416  0.75435161  1
  O  O304  1  0.12146296  0.37253470  0.36085715  1
  O  O305  1  0.11923027  0.36944710  0.86704746  1
  O  O306  1  0.11192645  0.87605281  0.37466639  1
  O  O307  1  0.12020225  0.87505446  0.86624598  1
  O  O308  1  0.62043134  0.36946393  0.36994579  1
  O  O309  1  0.61993128  0.36986178  0.86900435  1
  O  O310  1  0.61802631  0.87213083  0.36928049  1
  O  O311  1  0.61086390  0.87754355  0.87312613  1
  O  O312  1  0.38339176  0.12699220  0.13351928  1
  O  O313  1  0.38144515  0.13066936  0.62960283  1
  O  O314  1  0.38086708  0.63079735  0.13161674  1
  O  O315  1  0.38049402  0.63088554  0.63029532  1
  O  O316  1  0.88090137  0.13158309  0.12816816  1
  O  O317  1  0.87916559  0.13031473  0.63069258  1
  O  O318  1  0.88161925  0.62268399  0.13522235  1
  O  O319  1  0.88121307  0.62918921  0.63001026  1
  O  O320  1  0.24986984  0.25006922  0.11122052  1
  O  O321  1  0.25580804  0.25085080  0.61404486  1
  O  O322  1  0.25809568  0.75779086  0.12560091  1
  O  O323  1  0.25596894  0.75503412  0.61850768  1
  O  O324  1  0.75405878  0.25434668  0.12144715  1
  O  O325  1  0.75668592  0.25674994  0.62481747  1
  O  O326  1  0.75306583  0.76451973  0.12673651  1
  O  O327  1  0.75638295  0.75545749  0.62031305  1
  O  O328  1  0.24670541  0.24554962  0.38550077  1
  O  O329  1  0.24497057  0.24529202  0.87978071  1
  O  O330  1  0.24928201  0.74410216  0.38185673  1
  O  O331  1  0.24850585  0.74043922  0.87783827  1
  O  O332  1  0.74245187  0.24305279  0.37684714  1
  O  O333  1  0.74479363  0.24484556  0.88003302  1
  O  O334  1  0.74936886  0.74268930  0.38339550  1
  O  O335  1  0.74737690  0.74842552  0.87571973  1
  O  O336  1  0.00083411  0.11773125  0.00602496  1
  O  O337  1  0.00589676  0.12230109  0.50459760  1
  O  O338  1  0.00555088  0.61787887  0.00533120  1
  O  O339  1  0.00498755  0.61883499  0.50558297  1
  O  O340  1  0.50462065  0.12734991  0.00881345  1
  O  O341  1  0.50456554  0.11940998  0.50531189  1
  O  O342  1  0.49965724  0.61795385  0.00868408  1
  O  O343  1  0.50564132  0.62085596  0.50604979  1
  O  O344  1  0.50056370  0.38176551  0.49341085  1
  O  O345  1  0.49983419  0.38120946  0.99259762  1
  O  O346  1  0.49435639  0.87934225  0.49609360  1
  O  O347  1  0.49339723  0.87732780  0.99066918  1
  O  O348  1  0.99064011  0.37921113  0.50156086  1
  O  O349  1  1.00077210  0.38088185  0.99273040  1
  O  O350  1  0.99410994  0.88067100  0.49326261  1
  O  O351  1  0.99497580  0.88140696  0.99585471  1
  O  O352  1  0.50091268  0.49376066  0.38169754  1
  O  O353  1  0.49513537  0.49499837  0.87968160  1
  O  O354  1  0.49792515  0.99289951  0.38237112  1
  O  O355  1  0.49291621  0.99155259  0.87445561  1
  O  O356  1  0.99664935  0.49484717  0.38488865  1
  O  O357  1  0.99580747  0.49380218  0.87926919  1
  O  O358  1  0.99310432  0.99331765  0.38070404  1
  O  O359  1  0.99395525  0.99523287  0.88090524  1
  O  O360  1  0.00383856  0.00426879  0.12092312  1
  O  O361  1  -0.00053549  0.00750082  0.61753824  1
  O  O362  1  0.00662631  0.50442759  0.11869566  1
  O  O363  1  0.00692936  0.50571011  0.61994115  1
  O  O364  1  0.50151376  0.01378712  0.12419467  1
  O  O365  1  0.50466747  0.00540417  0.62013724  1
  O  O366  1  0.50543996  0.50516038  0.12099214  1
  O  O367  1  0.50599297  0.50598202  0.62065657  1
  O  O368  1  0.23979158  0.37868907  0.24969971  1
  O  O369  1  0.24375254  0.38182891  0.74809345  1
  O  O370  1  0.25242263  0.88661394  0.24397720  1
  O  O371  1  0.24153497  0.87526267  0.74393711  1
  O  O372  1  0.74447151  0.37941992  0.24571637  1
  O  O373  1  0.74463467  0.38018604  0.74494651  1
  O  O374  1  0.74588238  0.87919421  0.24449565  1
  O  O375  1  0.75051153  0.88326478  0.74275845  1
  O  O376  1  0.25722985  0.11755012  0.24717540  1
  O  O377  1  0.25690855  0.12592805  0.75466554  1
  O  O378  1  0.25495313  0.61982117  0.25484536  1
  O  O379  1  0.25579037  0.61965477  0.75474807  1
  O  O380  1  0.74981105  0.11818073  0.25766681  1
  O  O381  1  0.75592320  0.12058476  0.75613233  1
  O  O382  1  0.75771559  0.61962342  0.25420202  1
  O  O383  1  0.75871243  0.61676374  0.74854832  1
  O  O384  1  0.37396543  0.12177424  0.36083436  1
  O  O385  1  0.37086539  0.12094132  0.86814754  1
  O  O386  1  0.36819513  0.62413416  0.36797913  1
  O  O387  1  0.37092028  0.61917246  0.86903761  1
  O  O388  1  0.86756249  0.11857692  0.37501205  1
  O  O389  1  0.86936394  0.12011850  0.87002191  1
  O  O390  1  0.86973113  0.62171444  0.36676101  1
  O  O391  1  0.87682301  0.61670521  0.86723040  1
  O  O392  1  0.12636882  0.38041490  0.13515910  1
  O  O393  1  0.12660856  0.38214439  0.63142550  1
  O  O394  1  0.13175637  0.88221434  0.12716480  1
  O  O395  1  0.12966760  0.87554020  0.63255972  1
  O  O396  1  0.62999039  0.37973031  0.13227772  1
  O  O397  1  0.62996856  0.38016070  0.63085823  1
  O  O398  1  0.63357340  0.87746419  0.13131974  1
  O  O399  1  0.63204171  0.88227793  0.62616867  1
  O  O400  1  0.11694397  0.25652082  0.24746500  1
  O  O401  1  0.11932184  0.25512129  0.75340744  1
  O  O402  1  0.12078311  0.75466598  0.25545366  1
  O  O403  1  0.12310174  0.76241715  0.75115845  1
  O  O404  1  0.61890680  0.25554775  0.25646506  1
  O  O405  1  0.61999323  0.25519103  0.75528306  1
  O  O406  1  0.61815308  0.75666717  0.25175938  1
  O  O407  1  0.61466955  0.75395335  0.75101119  1
  O  O408  1  0.37951433  0.23982003  0.24891581  1
  O  O409  1  0.38140415  0.24510178  0.74404261  1
  O  O410  1  0.38122508  0.74499617  0.24426610  1
  O  O411  1  0.37977199  0.74430039  0.74355783  1
  O  O412  1  0.88435708  0.24979814  0.24401109  1
  O  O413  1  0.88068099  0.24466677  0.74597217  1
  O  O414  1  0.87687168  0.73492929  0.24867454  1
  O  O415  1  0.87809791  0.74316853  0.74197872  1
  O  O416  1  0.38368322  0.49831415  0.49763856  1
  O  O417  1  0.38187863  0.49865940  0.99288531  1
  O  O418  1  0.38099397  0.99403954  0.49966598  1
  O  O419  1  0.37780590  0.99463872  0.99249994  1
  O  O420  1  0.88057361  0.48945173  0.50285228  1
  O  O421  1  0.88325193  0.49699975  0.99352455  1
  O  O422  1  0.87947142  0.99449500  0.49502378  1
  O  O423  1  0.88058587  0.99473281  0.99453288  1
  O  O424  1  0.11812305  0.00104550  0.00594520  1
  O  O425  1  0.11851554  0.01040775  0.50128327  1
  O  O426  1  0.12006944  0.50481118  0.00455924  1
  O  O427  1  0.12043813  0.50460195  0.50558007  1
  O  O428  1  0.62131577  0.01055309  0.00263627  1
  O  O429  1  0.61862965  0.00530216  0.50659738  1
  O  O430  1  0.61769775  0.50031323  0.00868825  1
  O  O431  1  0.62047897  0.50568021  0.50731884  1
  O  O432  1  0.37129220  0.36969293  0.12176147  1
  O  O433  1  0.37335725  0.36616462  0.62080829  1
  O  O434  1  0.37109662  0.87137165  0.11976355  1
  O  O435  1  0.36948351  0.86923823  0.61959943  1
  O  O436  1  0.86747449  0.36823895  0.12328609  1
  O  O437  1  0.87076946  0.37025162  0.61878768  1
  O  O438  1  0.86602992  0.87544487  0.12014152  1
  O  O439  1  0.87018397  0.87026032  0.61955908  1
  O  O440  1  0.12433665  0.12708911  0.38774104  1
  O  O441  1  0.13147641  0.13161559  0.87373213  1
  O  O442  1  0.13133395  0.62503536  0.38238151  1
  O  O443  1  0.13182439  0.62442718  0.88125304  1
  O  O444  1  0.62852191  0.12935871  0.38073205  1
  O  O445  1  0.63012401  0.13141437  0.87942727  1
  O  O446  1  0.63245436  0.62652880  0.38274035  1
  O  O447  1  0.62923609  0.62749783  0.87860365  1
