# generated using pymatgen
data_V3Zn3O8
_symmetry_space_group_name_H-M   'P 1'
_cell_length_a   17.08882179
_cell_length_b   17.08835305
_cell_length_c   17.08841531
_cell_angle_alpha   89.99470595
_cell_angle_beta   90.00511101
_cell_angle_gamma   90.00774104
_symmetry_Int_Tables_number   1
_chemical_formula_structural   V3Zn3O8
_chemical_formula_sum   'V96 Zn96 O256'
_cell_volume   4990.15587366
_cell_formula_units_Z   32
loop_
 _symmetry_equiv_pos_site_id
 _symmetry_equiv_pos_as_xyz
  1  'x, y, z'
loop_
 _atom_site_type_symbol
 _atom_site_label
 _atom_site_symmetry_multiplicity
 _atom_site_fract_x
 _atom_site_fract_y
 _atom_site_fract_z
 _atom_site_occupancy
  V  V0  1  -0.00117972  0.37561297  0.87575269  1
  V  V1  1  0.25016256  0.37455918  0.12397560  1
  V  V2  1  0.75000414  0.12455428  0.37599438  1
  V  V3  1  0.00009429  0.49955208  0.49972667  1
  V  V4  1  0.87461927  0.37439314  0.49980322  1
  V  V5  1  0.62471159  0.75096291  0.37572821  1
  V  V6  1  0.50068156  0.25031447  0.24945288  1
  V  V7  1  0.50025891  0.50033232  -0.00156935  1
  V  V8  1  0.87491495  0.50012842  0.37397506  1
  V  V9  1  0.50093722  0.37538676  0.37472235  1
  V  V10  1  -0.00035568  0.37457239  0.37449250  1
  V  V11  1  0.75003705  0.62570664  0.37475604  1
  V  V12  1  0.12360252  0.12435726  0.00076792  1
  V  V13  1  -0.00059527  0.62337629  0.62390389  1
  V  V14  1  0.62485949  0.00198853  0.62605053  1
  V  V15  1  0.24915548  0.87444683  0.62569429  1
  V  V16  1  0.74981241  0.25013013  0.50085561  1
  V  V17  1  0.25034293  0.62455899  0.87365103  1
  V  V18  1  0.87493512  0.87494203  0.49939275  1
  V  V19  1  0.87451582  0.00073617  0.37501170  1
  V  V20  1  0.87452710  0.75177003  0.12489366  1
  V  V21  1  -0.00211893  0.87593024  0.87573501  1
  V  V22  1  0.49980724  0.87677536  0.87490747  1
  V  V23  1  0.75056061  0.87553144  0.62567744  1
  V  V24  1  0.24901979  0.12497572  0.87503392  1
  V  V25  1  0.37539430  0.62325813  0.24905774  1
  V  V26  1  0.12559951  0.37452114  0.24874822  1
  V  V27  1  0.12511833  0.75009361  0.87470451  1
  V  V28  1  0.12423525  0.50052572  0.12248191  1
  V  V29  1  0.50066645  0.75065847  0.74990189  1
  V  V30  1  0.87439588  0.12338218  0.75164446  1
  V  V31  1  0.12548484  -0.00149460  0.12920073  1
  V  V32  1  0.62494829  0.50143559  0.12323557  1
  V  V33  1  0.49903260  0.87542177  0.37674514  1
  V  V34  1  0.87535926  0.24979245  0.12590490  1
  V  V35  1  0.87502208  0.62431232  0.74913695  1
  V  V36  1  0.62511727  0.87705632  0.75084170  1
  V  V37  1  0.12456413  0.24943145  0.87472911  1
  V  V38  1  0.62363512  0.87563003  0.25111947  1
  V  V39  1  0.25070505  0.75064082  0.00052944  1
  V  V40  1  0.37565846  0.74905516  0.12441997  1
  V  V41  1  -0.00049338  0.12577268  0.12577358  1
  V  V42  1  0.25067467  0.50019605  0.74983161  1
  V  V43  1  0.75015588  0.50058369  0.24913240  1
  V  V44  1  0.74953437  0.37516274  0.62610336  1
  V  V45  1  0.87633837  0.37594726  -0.00067068  1
  V  V46  1  0.37401073  0.00069966  0.87643958  1
  V  V47  1  0.62606888  0.25034790  0.87608478  1
  V  V48  1  0.37556022  0.49985085  0.87395628  1
  V  V49  1  0.74960819  0.75023976  0.50045804  1
  V  V50  1  0.74868797  0.62677448  0.87547268  1
  V  V51  1  0.24988217  0.37513806  0.62511466  1
  V  V52  1  0.12402787  0.62446998  0.00009812  1
  V  V53  1  0.25026060  0.24990610  -0.00058438  1
  V  V54  1  -0.00019130  0.25002537  0.24968220  1
  V  V55  1  0.75091261  0.37552106  0.12470718  1
  V  V56  1  0.50097883  0.50074675  0.50017412  1
  V  V57  1  0.37291180  0.12268459  0.25251947  1
  V  V58  1  0.50047021  0.12469278  0.12475827  1
  V  V59  1  0.50032825  0.12529004  0.62599377  1
  V  V60  1  0.12498432  0.12374563  0.50134265  1
  V  V61  1  0.87476581  0.24938991  0.62566307  1
  V  V62  1  0.00380022  0.87203472  0.37265767  1
  V  V63  1  0.87570885  0.74884897  0.62447780  1
  V  V64  1  0.50088495  0.25108440  0.75175391  1
  V  V65  1  0.74947990  0.24950487  0.00067312  1
  V  V66  1  0.25034109  0.24993714  0.49993874  1
  V  V67  1  0.12453255  0.37431178  0.74986497  1
  V  V68  1  0.62539010  0.49982917  0.62445295  1
  V  V69  1  0.37440418  0.12548957  0.75059025  1
  V  V70  1  0.37537794  0.37527285  0.49987093  1
  V  V71  1  0.74906275  0.87578860  0.12446628  1
  V  V72  1  0.62568195  0.37535446  0.24973636  1
  V  V73  1  0.37453376  0.74902379  0.62481598  1
  V  V74  1  0.37528145  0.25013074  0.62570981  1
  V  V75  1  0.24917993  -0.00084351  0.75000340  1
  V  V76  1  0.37393191  0.87481377  0.00158433  1
  V  V77  1  0.62474676  0.62465630  0.50039259  1
  V  V78  1  0.62578306  0.24990567  0.37526238  1
  V  V79  1  0.12404265  0.49991163  0.62370178  1
  V  V80  1  0.12593952  0.24976355  0.37521488  1
  V  V81  1  0.37513255  0.49989089  0.37390214  1
  V  V82  1  0.50052255  0.62471572  0.12375128  1
  V  V83  1  0.37557110  0.24975727  0.12444601  1
  V  V84  1  0.87553821  0.62701659  0.24822072  1
  V  V85  1  0.12559714  0.87355736  0.74940460  1
  V  V86  1  0.00030709  0.12350407  0.62495743  1
  V  V87  1  0.62375421  0.00011928  0.12566417  1
  V  V88  1  0.74987866  0.49968544  0.74937134  1
  V  V89  1  0.75177537  0.00084393  0.75216077  1
  V  V90  1  0.49922113  0.00100876  0.00113460  1
  V  V91  1  0.37428709  0.87564261  0.50026533  1
  V  V92  1  0.62408121  0.12564386  0.50169609  1
  V  V93  1  0.37591357  0.37536571  -0.00148492  1
  V  V94  1  0.25133144  0.49927361  0.24972140  1
  V  V95  1  -0.00031952  0.24907575  0.75005405  1
  Zn  Zn96  1  0.49942143  0.00154529  0.50133928  1
  Zn  Zn97  1  0.37324807  -0.00015905  0.37639679  1
  Zn  Zn98  1  0.75217763  0.12243299  0.87888039  1
  Zn  Zn99  1  0.00159255  -0.00216576  0.50094901  1
  Zn  Zn100  1  0.00109309  0.74825000  0.74879577  1
  Zn  Zn101  1  0.24977428  0.87516282  0.12817925  1
  Zn  Zn102  1  0.87359954  0.87689221  -0.00072668  1
  Zn  Zn103  1  0.62495887  0.62760693  -0.00142247  1
  Zn  Zn104  1  -0.00038182  0.62619672  0.12297558  1
  Zn  Zn105  1  0.12320270  -0.00339321  0.62458709  1
  Zn  Zn106  1  0.24445757  0.74712059  0.49620503  1
  Zn  Zn107  1  0.62639225  0.12500098  0.00134361  1
  Zn  Zn108  1  0.24917709  0.62476522  0.37747539  1
  Zn  Zn109  1  0.00472952  0.74928175  0.24767932  1
  Zn  Zn110  1  0.50084415  0.62457662  0.62542398  1
  Zn  Zn111  1  0.87337260  0.12612788  0.25067591  1
  Zn  Zn112  1  -0.00319183  -0.00047678  0.00171471  1
  Zn  Zn113  1  0.12982886  0.87057913  0.25117359  1
  Zn  Zn114  1  0.49910983  0.74864467  0.24934372  1
  Zn  Zn115  1  0.74822227  0.00305396  0.25011588  1
  Zn  Zn116  1  0.12662083  0.62524456  0.49609396  1
  Zn  Zn117  1  0.87416048  0.00038489  0.87860657  1
  Zn  Zn118  1  0.24962445  -0.00320759  0.25431761  1
  Zn  Zn119  1  0.37647648  0.62358981  0.74902741  1
  Zn  Zn120  1  0.62534325  0.75169527  0.87712024  1
  Zn  Zn121  1  0.62472543  0.37553146  0.75065979  1
  Zn  Zn122  1  0.74702665  0.75042485  -0.00176198  1
  Zn  Zn123  1  0.12887698  0.74264890  0.37099600  1
  Zn  Zn124  1  0.50142485  0.37672813  0.87316883  1
  Zn  Zn125  1  0.87561545  0.50087321  0.87614256  1
  Zn  Zn126  1  -0.00184751  0.50298138  -0.00122190  1
  Zn  Zn127  1  0.25111486  0.12224268  0.37647933  1
  Zn  Zn128  1  0.18778503  0.18597626  0.18696992  1
  Zn  Zn129  1  0.18738357  0.18700265  0.68658661  1
  Zn  Zn130  1  0.18810242  0.68683341  0.18859527  1
  Zn  Zn131  1  0.18665774  0.68620885  0.68616001  1
  Zn  Zn132  1  0.68847775  0.18651001  0.18834702  1
  Zn  Zn133  1  0.68811084  0.18696660  0.69051833  1
  Zn  Zn134  1  0.68617076  0.68936055  0.18827106  1
  Zn  Zn135  1  0.68734374  0.68740631  0.68805568  1
  Zn  Zn136  1  0.31215208  0.31109196  0.31267094  1
  Zn  Zn137  1  0.31244231  0.31361200  0.81312013  1
  Zn  Zn138  1  0.30912560  0.80909346  0.31012936  1
  Zn  Zn139  1  0.31261073  0.81280170  0.81336374  1
  Zn  Zn140  1  0.81259925  0.31222638  0.31197180  1
  Zn  Zn141  1  0.81177556  0.31205367  0.81381327  1
  Zn  Zn142  1  0.81233064  0.81428173  0.31078918  1
  Zn  Zn143  1  0.81409358  0.81073742  0.81052333  1
  Zn  Zn144  1  0.18737257  0.43871677  0.43681511  1
  Zn  Zn145  1  0.18727074  0.43802307  0.93678789  1
  Zn  Zn146  1  0.19062455  0.93819684  0.43609193  1
  Zn  Zn147  1  0.18487331  0.93735133  0.94036315  1
  Zn  Zn148  1  0.68822527  0.43796041  0.43756525  1
  Zn  Zn149  1  0.68851692  0.43845764  0.93690204  1
  Zn  Zn150  1  0.68709639  0.93927133  0.43942450  1
  Zn  Zn151  1  0.68621527  0.93864277  0.93850469  1
  Zn  Zn152  1  0.31053289  0.06241527  0.06453204  1
  Zn  Zn153  1  0.31150623  0.06084672  0.56403003  1
  Zn  Zn154  1  0.31220633  0.56281409  0.06122099  1
  Zn  Zn155  1  0.31226837  0.56398198  0.56213895  1
  Zn  Zn156  1  0.81373225  0.06194280  0.06130027  1
  Zn  Zn157  1  0.81265473  0.06220073  0.56284619  1
  Zn  Zn158  1  0.81299457  0.56338586  0.06019875  1
  Zn  Zn159  1  0.81234691  0.56204643  0.56213345  1
  Zn  Zn160  1  0.43843154  0.43798081  0.18531845  1
  Zn  Zn161  1  0.43925532  0.43661288  0.68814845  1
  Zn  Zn162  1  0.43752608  0.93627222  0.18779029  1
  Zn  Zn163  1  0.43703048  0.93823528  0.68776988  1
  Zn  Zn164  1  0.93946404  0.43895178  0.18525612  1
  Zn  Zn165  1  0.93638088  0.43812048  0.68875097  1
  Zn  Zn166  1  0.93827451  0.93900319  0.19054334  1
  Zn  Zn167  1  0.93904922  0.93783750  0.68882114  1
  Zn  Zn168  1  0.06025862  0.06263426  0.31329944  1
  Zn  Zn169  1  0.06212351  0.05961208  0.81173285  1
  Zn  Zn170  1  0.06222016  0.56354003  0.30928378  1
  Zn  Zn171  1  0.06184978  0.56164997  0.81248030  1
  Zn  Zn172  1  0.56086650  0.06095894  0.31329405  1
  Zn  Zn173  1  0.56376522  0.06492495  0.81410752  1
  Zn  Zn174  1  0.56212691  0.56309335  0.31156861  1
  Zn  Zn175  1  0.56351276  0.56330980  0.81123112  1
  Zn  Zn176  1  0.43890754  0.18846623  0.43746507  1
  Zn  Zn177  1  0.43904690  0.18756187  0.93733600  1
  Zn  Zn178  1  0.43652756  0.68702857  0.43678759  1
  Zn  Zn179  1  0.43701715  0.68634863  0.93697752  1
  Zn  Zn180  1  0.93847504  0.18698473  0.43802520  1
  Zn  Zn181  1  0.93703488  0.18710590  0.93841811  1
  Zn  Zn182  1  0.93940911  0.68790148  0.43716576  1
  Zn  Zn183  1  0.93627659  0.69036741  0.93845579  1
  Zn  Zn184  1  0.06168625  0.31275825  0.06160217  1
  Zn  Zn185  1  0.06164530  0.31167352  0.56268235  1
  Zn  Zn186  1  0.06177438  0.81306221  0.06165089  1
  Zn  Zn187  1  0.06283605  0.80885953  0.55837995  1
  Zn  Zn188  1  0.56245127  0.31406027  0.06121342  1
  Zn  Zn189  1  0.56260113  0.31329568  0.56342563  1
  Zn  Zn190  1  0.56287664  0.81072533  0.06079506  1
  Zn  Zn191  1  0.56281696  0.81404085  0.56317071  1
  O  O192  1  0.11946753  0.11988614  0.12010748  1
  O  O193  1  0.11953640  0.12645222  0.61590410  1
  O  O194  1  0.12491325  0.61789670  0.11737630  1
  O  O195  1  0.11700781  0.61584231  0.62478707  1
  O  O196  1  0.61744016  0.11905371  0.12573394  1
  O  O197  1  0.61987246  0.12174741  0.62113439  1
  O  O198  1  0.61940852  0.61781227  0.12527022  1
  O  O199  1  0.62472907  0.61858086  0.61740425  1
  O  O200  1  0.38209030  0.37855160  0.38011687  1
  O  O201  1  0.37561604  0.38153628  0.88160813  1
  O  O202  1  0.38439685  0.87229964  0.38517474  1
  O  O203  1  0.37990379  0.88221999  0.88090949  1
  O  O204  1  0.87959200  0.37984554  0.38016666  1
  O  O205  1  0.88131609  0.37432646  0.88155160  1
  O  O206  1  0.87957673  0.88265417  0.37970505  1
  O  O207  1  0.88621442  0.87389206  0.87424184  1
  O  O208  1  0.25667617  0.00559650  0.37195547  1
  O  O209  1  0.25459065  0.00589396  0.87062091  1
  O  O210  1  0.25924744  0.49574248  0.36655955  1
  O  O211  1  0.25522485  0.50453051  0.86882433  1
  O  O212  1  0.75803621  0.00568389  0.37613603  1
  O  O213  1  0.75110738  0.00134677  0.86694937  1
  O  O214  1  0.75539767  0.50524799  0.36932079  1
  O  O215  1  0.75162169  0.50872128  0.86772251  1
  O  O216  1  0.24547883  0.49251557  0.12909509  1
  O  O217  1  0.24521730  0.49300410  0.63018753  1
  O  O218  1  0.23792596  1.00049469  0.12739113  1
  O  O219  1  0.24944635  0.99218493  0.63331959  1
  O  O220  1  0.74512687  0.49457933  0.13032909  1
  O  O221  1  0.74489674  0.49453072  0.62864683  1
  O  O222  1  0.74337177  0.99156934  0.12758046  1
  O  O223  1  0.74460126  0.99474805  0.63090591  1
  O  O224  1  0.00614197  0.37016068  0.25528487  1
  O  O225  1  0.00511180  0.36813444  0.75420603  1
  O  O226  1  0.00090744  0.87418851  0.26221039  1
  O  O227  1  0.00723219  0.87206037  0.75787553  1
  O  O228  1  0.50602503  0.37000650  0.25455910  1
  O  O229  1  0.50339840  0.36610837  0.75218758  1
  O  O230  1  0.50401521  0.87303237  0.26157571  1
  O  O231  1  0.50455623  0.87000002  0.75498071  1
  O  O232  1  0.49336637  0.13165794  0.24515455  1
  O  O233  1  0.49327344  0.13096799  0.74551773  1
  O  O234  1  0.49369218  0.62439303  0.24211211  1
  O  O235  1  0.49853527  0.63807509  0.74729190  1
  O  O236  1  0.99756465  0.13391239  0.24467065  1
  O  O237  1  0.99584203  0.13043323  0.74464907  1
  O  O238  1  0.98816562  0.62617350  0.24554493  1
  O  O239  1  0.99298182  0.62442717  0.74244107  1
  O  O240  1  0.36967786  0.25455277  0.00473263  1
  O  O241  1  0.37090571  0.25572158  0.50612010  1
  O  O242  1  0.37049257  0.75538827  0.00379582  1
  O  O243  1  0.37894223  0.76014045  0.51113777  1
  O  O244  1  0.86934877  0.25613181  0.00681934  1
  O  O245  1  0.86960847  0.25504218  0.50556353  1
  O  O246  1  0.86909769  0.75440203  0.01256138  1
  O  O247  1  0.86757510  0.75474657  0.50474119  1
  O  O248  1  0.13018793  0.24335753  0.49580887  1
  O  O249  1  0.13135502  0.24500746  0.99427813  1
  O  O250  1  0.12652256  0.74416506  0.49289773  1
  O  O251  1  0.13138955  0.74458287  0.99464847  1
  O  O252  1  0.63031536  0.24574199  0.49474889  1
  O  O253  1  0.63052128  0.25025114  0.99296980  1
  O  O254  1  0.63064776  0.74520637  0.49590962  1
  O  O255  1  0.62817957  0.74565520  0.99462904  1
  O  O256  1  0.49498589  0.24581234  0.13021653  1
  O  O257  1  0.49450062  0.24496561  0.63072749  1
  O  O258  1  0.49333903  0.74250177  0.12538973  1
  O  O259  1  0.49225300  0.75284468  0.63415379  1
  O  O260  1  0.99525972  0.24610851  0.13081567  1
  O  O261  1  0.99383076  0.24503488  0.63100812  1
  O  O262  1  0.98596043  0.75119399  0.12627746  1
  O  O263  1  0.99215043  0.74184630  0.62505414  1
  O  O264  1  0.00540185  0.25610967  0.37033642  1
  O  O265  1  0.00628630  0.25483144  0.86887217  1
  O  O266  1  -0.00287670  0.76218501  0.37188177  1
  O  O267  1  0.00684355  0.75841135  0.87229279  1
  O  O268  1  0.50680285  0.25656234  0.36975998  1
  O  O269  1  0.50863089  0.25106241  0.87047462  1
  O  O270  1  0.50630027  0.76046902  0.37586265  1
  O  O271  1  0.49790130  0.75726121  0.86387686  1
  O  O272  1  0.24140967  0.13215043  0.50190989  1
  O  O273  1  0.24479973  0.13122853  0.99409137  1
  O  O274  1  0.24715464  0.62690507  0.49761360  1
  O  O275  1  0.24481687  0.63063880  0.99279798  1
  O  O276  1  0.74387070  0.13181418  0.49609228  1
  O  O277  1  0.74716192  0.13441374  0.99981485  1
  O  O278  1  0.74497720  0.63030811  0.49381066  1
  O  O279  1  0.74855172  0.62537774  0.98712300  1
  O  O280  1  0.25558011  0.36888538  0.00454473  1
  O  O281  1  0.25562709  0.37001649  0.50581402  1
  O  O282  1  0.25671516  0.86828317  0.00141545  1
  O  O283  1  0.26077585  0.87300662  0.50674470  1
  O  O284  1  0.75577365  0.36985970  0.00650088  1
  O  O285  1  0.75562107  0.36944522  0.50489942  1
  O  O286  1  0.74864579  0.87443998  0.01423611  1
  O  O287  1  0.75437480  0.86938870  0.50613960  1
  O  O288  1  0.13103681  0.49218487  0.24247539  1
  O  O289  1  0.13067204  0.49268935  0.74416906  1
  O  O290  1  0.12574565  1.00259570  0.23912645  1
  O  O291  1  0.13301587  0.99281106  0.74809064  1
  O  O292  1  0.63090348  0.49423816  0.24481608  1
  O  O293  1  0.63152624  0.49836032  0.74197691  1
  O  O294  1  0.62476617  0.99314382  0.24402206  1
  O  O295  1  0.63033712  0.99654734  0.74514131  1
  O  O296  1  0.37707731  0.01393214  0.24965460  1
  O  O297  1  0.36954412  0.00599464  0.75652543  1
  O  O298  1  0.37112512  0.50223874  0.25411431  1
  O  O299  1  0.36861100  0.50017303  0.75488833  1
  O  O300  1  0.87166534  0.00267564  0.26464931  1
  O  O301  1  0.86838295  0.00625606  0.75043034  1
  O  O302  1  0.86890196  0.50527266  0.25429297  1
  O  O303  1  0.86709223  0.50679482  0.75026269  1
  O  O304  1  0.11912085  0.36982343  0.36896425  1
  O  O305  1  0.12056936  0.36837776  0.86903273  1
  O  O306  1  0.11134438  0.87886602  0.37603427  1
  O  O307  1  0.11908402  0.86932827  0.86997066  1
  O  O308  1  0.62087809  0.36993970  0.36960785  1
  O  O309  1  0.62400792  0.36274076  0.87355430  1
  O  O310  1  0.61797763  0.87085717  0.37323307  1
  O  O311  1  0.61722589  0.87545674  0.86773404  1
  O  O312  1  0.38043807  0.13109436  0.13240880  1
  O  O313  1  0.37940413  0.13098961  0.63109018  1
  O  O314  1  0.38131873  0.62839973  0.12885140  1
  O  O315  1  0.37871109  0.63728479  0.62680807  1
  O  O316  1  0.88111448  0.13266385  0.12776598  1
  O  O317  1  0.88010839  0.13098099  0.62981026  1
  O  O318  1  0.87160079  0.63539529  0.13057919  1
  O  O319  1  0.87899427  0.62911320  0.62898137  1
  O  O320  1  0.25558433  0.25509597  0.11862891  1
  O  O321  1  0.25601934  0.25595014  0.62065855  1
  O  O322  1  0.25840745  0.74959274  0.11631188  1
  O  O323  1  0.26200795  0.75639960  0.62716300  1
  O  O324  1  0.75455464  0.25690204  0.12129329  1
  O  O325  1  0.75511908  0.25476833  0.61992313  1
  O  O326  1  0.75601595  0.76010844  0.12627723  1
  O  O327  1  0.75480727  0.75584241  0.61961855  1
  O  O328  1  0.24365737  0.24903414  0.38256149  1
  O  O329  1  0.24431934  0.24449008  0.87960521  1
  O  O330  1  0.24949122  0.74384061  0.37851243  1
  O  O331  1  0.24560373  0.74472834  0.88039989  1
  O  O332  1  0.74472722  0.24609517  0.38157704  1
  O  O333  1  0.74152714  0.24917286  0.88174916  1
  O  O334  1  0.74466319  0.74564396  0.38094829  1
  O  O335  1  0.74814254  0.73966878  0.87314105  1
  O  O336  1  0.00729348  0.12618319  0.00765508  1
  O  O337  1  0.01055512  0.12682581  0.50619919  1
  O  O338  1  0.00840247  0.62439348  0.00110579  1
  O  O339  1  -0.00271057  0.61490518  0.50658495  1
  O  O340  1  0.49937928  0.11844364  0.00773397  1
  O  O341  1  0.50629724  0.12538491  0.50789327  1
  O  O342  1  0.50041831  0.61706793  0.00566952  1
  O  O343  1  0.50713869  0.61856510  0.50073970  1
  O  O344  1  0.49509331  0.37971749  0.49427355  1
  O  O345  1  0.49259221  0.38216764  0.99875029  1
  O  O346  1  0.49304747  0.87636537  0.49355447  1
  O  O347  1  0.49364694  0.88153402  0.99408640  1
  O  O348  1  0.99339385  0.37852855  0.49431009  1
  O  O349  1  0.99376929  0.37403213  0.99251685  1
  O  O350  1  0.99185329  0.87672701  0.49094666  1
  O  O351  1  0.99937949  0.87576172  0.98688641  1
  O  O352  1  0.49622859  0.49325253  0.38011982  1
  O  O353  1  0.49408146  0.49925948  0.87975305  1
  O  O354  1  0.49752843  0.98733189  0.37911125  1
  O  O355  1  0.49348628  0.99678430  0.87997214  1
  O  O356  1  0.99301296  0.49259249  0.37885070  1
  O  O357  1  0.99760272  0.49054343  0.87651317  1
  O  O358  1  0.98970104  0.99352066  0.37822490  1
  O  O359  1  0.99985884  0.98762918  0.87563958  1
  O  O360  1  0.00764498  0.00765043  0.12550796  1
  O  O361  1  0.00247907  0.00782480  0.62135944  1
  O  O362  1  0.00935536  0.50218896  0.12080788  1
  O  O363  1  0.00412635  0.50263925  0.61921690  1
  O  O364  1  0.50428453  0.00488206  0.11984505  1
  O  O365  1  0.50662359  0.00809279  0.62652818  1
  O  O366  1  0.50550668  0.50454546  0.11848427  1
  O  O367  1  0.50641401  0.50067641  0.61760774  1
  O  O368  1  0.24525821  0.37818746  0.24308527  1
  O  O369  1  0.24417499  0.37934150  0.74444100  1
  O  O370  1  0.24839371  0.87990802  0.24503956  1
  O  O371  1  0.24559696  0.88028040  0.74628614  1
  O  O372  1  0.74491481  0.38072570  0.24500038  1
  O  O373  1  0.74959687  0.38098339  0.74280267  1
  O  O374  1  0.74185243  0.87762095  0.24096527  1
  O  O375  1  0.74495332  0.88026810  0.74396518  1
  O  O376  1  0.26330012  0.12752301  0.25159318  1
  O  O377  1  0.25494142  0.12037047  0.75539871  1
  O  O378  1  0.25970689  0.61417610  0.24811585  1
  O  O379  1  0.25173865  0.61758763  0.75574654  1
  O  O380  1  0.75251864  0.12401353  0.26026352  1
  O  O381  1  0.75733265  0.11830517  0.75103644  1
  O  O382  1  0.75481960  0.61947839  0.25599309  1
  O  O383  1  0.75510546  0.61962163  0.75533972  1
  O  O384  1  0.37666022  0.12540686  0.36489319  1
  O  O385  1  0.36865349  0.12053350  0.87004259  1
  O  O386  1  0.37742266  0.61567210  0.36716788  1
  O  O387  1  0.36786234  0.61806155  0.87223246  1
  O  O388  1  0.86936328  0.11666112  0.37775788  1
  O  O389  1  0.87410611  0.12361249  0.86614570  1
  O  O390  1  0.86864883  0.61958120  0.36933327  1
  O  O391  1  0.86588048  0.62515246  0.86803924  1
  O  O392  1  0.13138776  0.37867126  0.12927883  1
  O  O393  1  0.13007138  0.37859363  0.63068007  1
  O  O394  1  0.12423835  0.88762728  0.12524907  1
  O  O395  1  0.13165263  0.87404345  0.63042297  1
  O  O396  1  0.63082491  0.38058486  0.13104556  1
  O  O397  1  0.63274321  0.38150812  0.62465672  1
  O  O398  1  0.62997101  0.87953694  0.13097791  1
  O  O399  1  0.63098566  0.88197243  0.63051962  1
  O  O400  1  0.12037273  0.25549046  0.25482890  1
  O  O401  1  0.11993456  0.25473124  0.75491396  1
  O  O402  1  0.12118839  0.75276964  0.25224977  1
  O  O403  1  0.12506413  0.75606968  0.75690173  1
  O  O404  1  0.62029187  0.25613038  0.25569748  1
  O  O405  1  0.62000075  0.25051419  0.75924061  1
  O  O406  1  0.62201602  0.75713772  0.25861889  1
  O  O407  1  0.61474111  0.75837145  0.74869002  1
  O  O408  1  0.38156854  0.24409808  0.24447009  1
  O  O409  1  0.37901612  0.24461051  0.74522918  1
  O  O410  1  0.37770084  0.74087665  0.24175662  1
  O  O411  1  0.38452063  0.75305444  0.74098583  1
  O  O412  1  0.88218061  0.25112323  0.24378269  1
  O  O413  1  0.88040703  0.24455691  0.74410146  1
  O  O414  1  0.87254310  0.74377450  0.24084088  1
  O  O415  1  0.87615496  0.74179364  0.74029116  1
  O  O416  1  0.38145751  0.49325359  0.49512611  1
  O  O417  1  0.37954956  0.49437574  0.99387187  1
  O  O418  1  0.37839317  0.98717326  0.50216102  1
  O  O419  1  0.37923930  0.99567462  0.99544285  1
  O  O420  1  0.87885917  0.49318264  0.49359055  1
  O  O421  1  0.87708506  0.49055822  0.99821393  1
  O  O422  1  0.87448697  0.99400506  0.49036465  1
  O  O423  1  0.87923180  0.99481008  0.99691572  1
  O  O424  1  0.12247000  0.00771974  0.00979013  1
  O  O425  1  0.12567721  0.01370067  0.50253793  1
  O  O426  1  0.12553323  0.50637424  0.00529474  1
  O  O427  1  0.11650414  0.49632076  0.50745069  1
  O  O428  1  0.61640530  0.00189739  0.00753619  1
  O  O429  1  0.62387577  0.00789529  0.50855374  1
  O  O430  1  0.61860696  0.50101527  0.00647342  1
  O  O431  1  0.62080008  0.50520410  0.50388304  1
  O  O432  1  0.36991727  0.36894702  0.11907024  1
  O  O433  1  0.36950508  0.36946525  0.61926239  1
  O  O434  1  0.37594870  0.86779074  0.11772632  1
  O  O435  1  0.37114911  0.86824241  0.61897477  1
  O  O436  1  0.86976704  0.36953736  0.12037870  1
  O  O437  1  0.86981596  0.36869253  0.61922924  1
  O  O438  1  0.86469627  0.86897795  0.12928225  1
  O  O439  1  0.86968110  0.86951320  0.61970632  1
  O  O440  1  0.12467957  0.13184624  0.38594242  1
  O  O441  1  0.13007160  0.13033395  0.87930872  1
  O  O442  1  0.12887055  0.62161789  0.37700532  1
  O  O443  1  0.13111305  0.63001916  0.87923617  1
  O  O444  1  0.62863004  0.13084428  0.38136047  1
  O  O445  1  0.62702664  0.13790900  0.87843371  1
  O  O446  1  0.63073112  0.63003116  0.38011397  1
  O  O447  1  0.63702977  0.62761662  0.87316521  1
