# generated using pymatgen
data_V3Zn3O8
_symmetry_space_group_name_H-M   'P 1'
_cell_length_a   17.08747794
_cell_length_b   17.08777941
_cell_length_c   17.08672570
_cell_angle_alpha   90.00316020
_cell_angle_beta   89.99386482
_cell_angle_gamma   90.00612153
_symmetry_Int_Tables_number   1
_chemical_formula_structural   V3Zn3O8
_chemical_formula_sum   'V96 Zn96 O256'
_cell_volume   4989.10263071
_cell_formula_units_Z   32
loop_
 _symmetry_equiv_pos_site_id
 _symmetry_equiv_pos_as_xyz
  1  'x, y, z'
loop_
 _atom_site_type_symbol
 _atom_site_label
 _atom_site_symmetry_multiplicity
 _atom_site_fract_x
 _atom_site_fract_y
 _atom_site_fract_z
 _atom_site_occupancy
  V  V0  1  0.00035414  0.50039041  0.50153602  1
  V  V1  1  0.87471340  0.12593193  0.24970756  1
  V  V2  1  -0.00041594  0.12515529  0.12441765  1
  V  V3  1  0.49932984  0.62591027  0.12452224  1
  V  V4  1  0.24993490  0.37500592  0.62504249  1
  V  V5  1  0.75061708  0.24881240  0.50054500  1
  V  V6  1  0.37512354  0.24947175  0.62393745  1
  V  V7  1  0.00021676  0.24933550  0.74991953  1
  V  V8  1  0.75059469  0.25113443  0.00033973  1
  V  V9  1  0.37364837  -0.00000625  0.37444965  1
  V  V10  1  0.50041901  0.49977183  0.00099899  1
  V  V11  1  0.37490485  0.74982971  0.12469340  1
  V  V12  1  0.25111317  0.62422332  0.87413773  1
  V  V13  1  0.62304729  0.87784856  0.24937600  1
  V  V14  1  0.12450113  0.12365338  0.49900300  1
  V  V15  1  0.74897319  0.00199521  0.25006100  1
  V  V16  1  0.62602305  0.12559468  0.50002007  1
  V  V17  1  0.24932502  0.87526581  0.12517643  1
  V  V18  1  0.62480900  0.37680570  0.25054990  1
  V  V19  1  0.00006631  0.12347178  0.62571582  1
  V  V20  1  0.12408058  0.37440303  0.25025529  1
  V  V21  1  0.75058362  0.62446364  0.87648153  1
  V  V22  1  0.12540265  0.75027885  0.87565857  1
  V  V23  1  0.49811556  0.25032028  0.24907250  1
  V  V24  1  0.87401387  0.49991022  0.37596464  1
  V  V25  1  0.87541761  0.74921513  0.62463224  1
  V  V26  1  0.12567554  0.37476945  0.74915141  1
  V  V27  1  0.62494167  0.62439188  0.00130452  1
  V  V28  1  -0.00050151  0.87485683  0.37480054  1
  V  V29  1  0.50111618  0.50001021  0.50032733  1
  V  V30  1  0.62382197  0.00160165  0.12369727  1
  V  V31  1  0.50002315  0.00080833  -0.00011142  1
  V  V32  1  0.25013101  0.87440034  0.62500842  1
  V  V33  1  0.24932902  0.12486526  0.37394965  1
  V  V34  1  0.62584003  0.75000038  0.87530234  1
  V  V35  1  0.37484798  0.49940513  0.87424749  1
  V  V36  1  0.12485313  0.62416811  0.00033430  1
  V  V37  1  0.87439661  0.87435403  -0.00013246  1
  V  V38  1  -0.00110186  0.75118527  0.25104106  1
  V  V39  1  0.87500595  -0.00041307  0.37501716  1
  V  V40  1  0.74925019  0.87559820  0.12397268  1
  V  V41  1  0.37415701  0.37368487  -0.00036721  1
  V  V42  1  0.12511939  0.24978202  0.87445951  1
  V  V43  1  0.00032214  0.49976304  0.00028944  1
  V  V44  1  0.12478327  0.25041934  0.37409883  1
  V  V45  1  0.25011081  0.62434315  0.37515216  1
  V  V46  1  0.74991159  0.00076438  0.75038066  1
  V  V47  1  0.62563428  0.25080068  0.87553425  1
  V  V48  1  0.75116795  0.49924552  0.75055749  1
  V  V49  1  0.87593752  0.37497412  0.50095282  1
  V  V50  1  0.49947432  0.00040895  0.49995471  1
  V  V51  1  0.12450061  0.49962236  0.12443612  1
  V  V52  1  0.25011304  0.74901095  0.49900683  1
  V  V53  1  0.62421647  0.12533582  0.00005861  1
  V  V54  1  0.62556256  -0.00012045  0.62544485  1
  V  V55  1  0.75081710  0.12468905  0.87507052  1
  V  V56  1  0.12425355  0.87410399  0.24941364  1
  V  V57  1  0.25034185  0.24936217  0.49916889  1
  V  V58  1  -0.00045669  -0.00143257  0.49985332  1
  V  V59  1  0.12529147  0.12393123  -0.00028086  1
  V  V60  1  0.62557084  0.75144456  0.37597557  1
  V  V61  1  0.25049201  0.75004530  -0.00022940  1
  V  V62  1  0.12598535  0.50046291  0.62511399  1
  V  V63  1  0.49995232  0.37465571  0.87571275  1
  V  V64  1  0.87510789  0.37585808  0.00106567  1
  V  V65  1  0.50007320  0.25018901  0.74937947  1
  V  V66  1  0.62529548  0.50008251  0.62444487  1
  V  V67  1  0.37485224  0.50097361  0.37427619  1
  V  V68  1  0.37495051  0.00063678  0.87359703  1
  V  V69  1  0.37567105  0.37493354  0.49950903  1
  V  V70  1  0.37404483  0.12411215  0.74902841  1
  V  V71  1  0.50006347  0.37567139  0.37477049  1
  V  V72  1  0.87595792  0.50015980  0.87613926  1
  V  V73  1  0.24960586  0.37459124  0.12320155  1
  V  V74  1  0.87594042  0.62492088  0.74951278  1
  V  V75  1  0.87409486  0.62535022  0.25213517  1
  V  V76  1  0.50140143  0.74947501  0.74944712  1
  V  V77  1  0.75011175  0.37636399  0.12723022  1
  V  V78  1  0.87396304  0.75065418  0.12597418  1
  V  V79  1  0.75146230  0.37476468  0.62578792  1
  V  V80  1  0.62601742  0.37523400  0.75063347  1
  V  V81  1  0.37378689  0.62531342  0.24942201  1
  V  V82  1  0.75001433  0.87446513  0.62402793  1
  V  V83  1  0.87439571  -0.00082929  0.87544039  1
  V  V84  1  0.37370857  0.87452373  0.49927142  1
  V  V85  1  0.37586198  0.87570100  -0.00089154  1
  V  V86  1  0.24991720  0.25001645  -0.00100169  1
  V  V87  1  0.50143385  0.62368217  0.62437060  1
  V  V88  1  0.49963811  0.12467431  0.62401491  1
  V  V89  1  0.24902191  -0.00072787  0.24888048  1
  V  V90  1  -0.00007432  0.87497356  0.87610956  1
  V  V91  1  0.12605815  0.62429397  0.50051553  1
  V  V92  1  0.49926917  0.87650406  0.37407760  1
  V  V93  1  0.37475995  0.12616215  0.24908127  1
  V  V94  1  0.37631183  0.62375647  0.75044507  1
  V  V95  1  0.12593003  0.87523472  0.75072977  1
  Zn  Zn96  1  0.00019075  0.74881048  0.75002405  1
  Zn  Zn97  1  -0.00013317  -0.00042561  -0.00040235  1
  Zn  Zn98  1  0.24917825  0.50037043  0.24941420  1
  Zn  Zn99  1  0.74962459  0.50126651  0.25191471  1
  Zn  Zn100  1  0.74908303  0.74753392  0.49992866  1
  Zn  Zn101  1  0.87512552  0.12556522  0.75163249  1
  Zn  Zn102  1  0.62528898  0.62493597  0.49752085  1
  Zn  Zn103  1  0.75035131  0.74866680  0.00127706  1
  Zn  Zn104  1  0.12491053  -0.00191602  0.62490812  1
  Zn  Zn105  1  0.12437164  -0.00126545  0.12360566  1
  Zn  Zn106  1  0.25063394  0.00083151  0.74881630  1
  Zn  Zn107  1  0.87594112  0.25032973  0.62645324  1
  Zn  Zn108  1  0.00002187  0.37497845  0.87543738  1
  Zn  Zn109  1  0.74948137  0.12493704  0.37581739  1
  Zn  Zn110  1  0.24993503  0.50000958  0.74961966  1
  Zn  Zn111  1  0.50129952  0.87580514  0.87293963  1
  Zn  Zn112  1  0.74698846  0.62598680  0.37683306  1
  Zn  Zn113  1  0.62391563  0.87584137  0.75033688  1
  Zn  Zn114  1  0.62544796  0.24781357  0.37477353  1
  Zn  Zn115  1  0.49865840  0.12640848  0.12417772  1
  Zn  Zn116  1  0.49936488  0.75139150  0.24910317  1
  Zn  Zn117  1  0.87580512  0.25142453  0.12686087  1
  Zn  Zn118  1  0.00200997  0.62632121  0.62645142  1
  Zn  Zn119  1  0.37473132  0.24888121  0.12266317  1
  Zn  Zn120  1  0.00006209  0.62554763  0.12552446  1
  Zn  Zn121  1  0.12322772  0.74817616  0.37554035  1
  Zn  Zn122  1  0.37724119  0.74874302  0.62406346  1
  Zn  Zn123  1  0.00024962  0.37313026  0.37577850  1
  Zn  Zn124  1  0.24932815  0.12464343  0.87227572  1
  Zn  Zn125  1  0.62508698  0.50399510  0.12723441  1
  Zn  Zn126  1  -0.00091316  0.24941621  0.25219474  1
  Zn  Zn127  1  0.87507229  0.87345242  0.49928253  1
  Zn  Zn128  1  0.18787710  0.18878083  0.18573680  1
  Zn  Zn129  1  0.18756692  0.18668817  0.68676923  1
  Zn  Zn130  1  0.18677002  0.68717463  0.18796672  1
  Zn  Zn131  1  0.18934679  0.68784861  0.68772747  1
  Zn  Zn132  1  0.68640455  0.18909123  0.18632580  1
  Zn  Zn133  1  0.68770930  0.18689017  0.68745487  1
  Zn  Zn134  1  0.68738819  0.69040925  0.19018884  1
  Zn  Zn135  1  0.68853053  0.68528163  0.68763018  1
  Zn  Zn136  1  0.31141239  0.31355010  0.31153209  1
  Zn  Zn137  1  0.31093810  0.31084099  0.81197375  1
  Zn  Zn138  1  0.31102525  0.81079745  0.31229481  1
  Zn  Zn139  1  0.31410522  0.81167680  0.81287666  1
  Zn  Zn140  1  0.81243114  0.31126876  0.31487013  1
  Zn  Zn141  1  0.81465029  0.31231355  0.81402456  1
  Zn  Zn142  1  0.81059102  0.81503175  0.31164157  1
  Zn  Zn143  1  0.81192124  0.81243585  0.81040502  1
  Zn  Zn144  1  0.18842929  0.43832975  0.43748917  1
  Zn  Zn145  1  0.18649864  0.43687668  0.93599901  1
  Zn  Zn146  1  0.18502584  0.93640148  0.43627196  1
  Zn  Zn147  1  0.18920883  0.93881942  0.93758863  1
  Zn  Zn148  1  0.68811502  0.43589241  0.43788728  1
  Zn  Zn149  1  0.68746975  0.43882172  0.93914603  1
  Zn  Zn150  1  0.68829398  0.93807503  0.43753211  1
  Zn  Zn151  1  0.68772751  0.93638507  0.93766427  1
  Zn  Zn152  1  0.31274671  0.06343782  0.06372808  1
  Zn  Zn153  1  0.31140663  0.06081835  0.56258196  1
  Zn  Zn154  1  0.31175564  0.56097106  0.06246324  1
  Zn  Zn155  1  0.31348791  0.56254400  0.56334287  1
  Zn  Zn156  1  0.81205956  0.06139568  0.06153572  1
  Zn  Zn157  1  0.81525051  0.06208437  0.56371787  1
  Zn  Zn158  1  0.81292205  0.56243175  0.06434086  1
  Zn  Zn159  1  0.80951182  0.56507704  0.56050688  1
  Zn  Zn160  1  0.43532906  0.43903198  0.18592810  1
  Zn  Zn161  1  0.43783747  0.43744548  0.68778747  1
  Zn  Zn162  1  0.43704302  0.93903151  0.18624641  1
  Zn  Zn163  1  0.43792456  0.93605014  0.68707493  1
  Zn  Zn164  1  0.93947845  0.43895055  0.18787526  1
  Zn  Zn165  1  0.93941894  0.43771721  0.68653828  1
  Zn  Zn166  1  0.93747708  0.93864834  0.18640915  1
  Zn  Zn167  1  0.93713356  0.93694201  0.68976584  1
  Zn  Zn168  1  0.06216772  0.06040961  0.31140963  1
  Zn  Zn169  1  0.06244367  0.06035402  0.81352136  1
  Zn  Zn170  1  0.06099871  0.56168497  0.31369867  1
  Zn  Zn171  1  0.06166124  0.56247119  0.81157100  1
  Zn  Zn172  1  0.56263222  0.06455719  0.31423520  1
  Zn  Zn173  1  0.56227124  0.06384502  0.81206254  1
  Zn  Zn174  1  0.55967114  0.56463524  0.31135860  1
  Zn  Zn175  1  0.56303603  0.56226095  0.81343710  1
  Zn  Zn176  1  0.43813706  0.18752229  0.43547289  1
  Zn  Zn177  1  0.43774782  0.18674816  0.93636365  1
  Zn  Zn178  1  0.43889117  0.68848723  0.43675133  1
  Zn  Zn179  1  0.43800124  0.68626941  0.93737595  1
  Zn  Zn180  1  0.93828495  0.18782515  0.43695114  1
  Zn  Zn181  1  0.93667879  0.18863986  0.93795555  1
  Zn  Zn182  1  0.93786471  0.68707398  0.43919889  1
  Zn  Zn183  1  0.93875814  0.68837099  0.93791410  1
  Zn  Zn184  1  0.06105569  0.31131876  0.06303771  1
  Zn  Zn185  1  0.06333730  0.31258655  0.56216423  1
  Zn  Zn186  1  0.06091210  0.81170375  0.06348688  1
  Zn  Zn187  1  0.06220679  0.81079465  0.56167806  1
  Zn  Zn188  1  0.56308281  0.31308157  0.06413319  1
  Zn  Zn189  1  0.56398664  0.31276248  0.56303007  1
  Zn  Zn190  1  0.56106127  0.81286540  0.06097903  1
  Zn  Zn191  1  0.56275591  0.81360306  0.56165290  1
  O  O192  1  0.11732203  0.12503004  0.11643409  1
  O  O193  1  0.11529777  0.12285714  0.61890991  1
  O  O194  1  0.12418171  0.61832429  0.11815210  1
  O  O195  1  0.12675064  0.61897729  0.61881170  1
  O  O196  1  0.62379473  0.11959465  0.11751274  1
  O  O197  1  0.61863129  0.11975824  0.61977282  1
  O  O198  1  0.61914502  0.62593309  0.12017609  1
  O  O199  1  0.61901084  0.61681571  0.62483770  1
  O  O200  1  0.37985289  0.38014964  0.38029301  1
  O  O201  1  0.38092488  0.37866666  0.87918147  1
  O  O202  1  0.37850547  0.88081528  0.37977337  1
  O  O203  1  0.37715737  0.88402602  0.88016850  1
  O  O204  1  0.87616591  0.38388447  0.38109248  1
  O  O205  1  0.87559019  0.38268552  0.88282634  1
  O  O206  1  0.88098956  0.88232199  0.37542841  1
  O  O207  1  0.87919250  0.87845510  0.87952435  1
  O  O208  1  0.25473452  0.00529501  0.36952580  1
  O  O209  1  0.26392653  0.00201490  0.87298175  1
  O  O210  1  0.25820828  0.50634207  0.37469574  1
  O  O211  1  0.25707211  0.50627681  0.87361785  1
  O  O212  1  0.75637411  0.00214564  0.36808403  1
  O  O213  1  0.75364175  0.00524453  0.86984737  1
  O  O214  1  0.76331697  0.49998666  0.37424746  1
  O  O215  1  0.75554214  0.50509955  0.87008012  1
  O  O216  1  0.24227462  0.49228768  0.12486291  1
  O  O217  1  0.24462941  0.49229057  0.62597421  1
  O  O218  1  0.24980558  0.99251998  0.13155722  1
  O  O219  1  0.24731872  0.98675323  0.62534930  1
  O  O220  1  0.74812497  0.48741440  0.12865376  1
  O  O221  1  0.74505977  0.49388905  0.63150157  1
  O  O222  1  0.74301983  0.99501670  0.12987203  1
  O  O223  1  0.74620743  0.99358575  0.63013333  1
  O  O224  1  0.01237013  0.37178085  0.25101113  1
  O  O225  1  0.00652401  0.36387331  0.74919209  1
  O  O226  1  0.00414676  0.87104319  0.25445434  1
  O  O227  1  0.01091059  0.87305502  0.75600141  1
  O  O228  1  0.50575861  0.36948111  0.25372325  1
  O  O229  1  0.50586398  0.36933569  0.75557279  1
  O  O230  1  0.50527999  0.87652056  0.25629089  1
  O  O231  1  0.50264704  0.86256682  0.75053193  1
  O  O232  1  0.49450506  0.13548450  0.25110919  1
  O  O233  1  0.49492832  0.13166519  0.74320451  1
  O  O234  1  0.49155075  0.62770995  0.24218044  1
  O  O235  1  0.49669628  0.63139986  0.74566926  1
  O  O236  1  0.99174719  0.12387986  0.24180394  1
  O  O237  1  1.00289626  0.13298990  0.74224646  1
  O  O238  1  0.98879213  0.63079090  0.25053150  1
  O  O239  1  0.99219208  0.62816021  0.74724889  1
  O  O240  1  0.36920876  0.25617049  -0.00083166  1
  O  O241  1  0.37061273  0.25514237  0.50430128  1
  O  O242  1  0.36974631  0.75514967  0.00366301  1
  O  O243  1  0.36923942  0.75723928  0.50133314  1
  O  O244  1  0.86753644  0.25723215  0.00212363  1
  O  O245  1  0.86671191  0.25504183  0.50217019  1
  O  O246  1  0.87290377  0.75594001  0.00716177  1
  O  O247  1  0.87130229  0.75187993  0.51178215  1
  O  O248  1  0.13156727  0.24404923  0.49437506  1
  O  O249  1  0.12881949  0.24211703  0.99484708  1
  O  O250  1  0.13210951  0.74251403  0.49871523  1
  O  O251  1  0.13117347  0.74488034  0.99515244  1
  O  O252  1  0.63453132  0.24529127  0.50066862  1
  O  O253  1  0.63027673  0.24638767  0.99443395  1
  O  O254  1  0.62413412  0.75090869  0.48754829  1
  O  O255  1  0.62485285  0.74362227  0.98968134  1
  O  O256  1  0.49781980  0.24988034  0.13769238  1
  O  O257  1  0.49475908  0.24484891  0.62962965  1
  O  O258  1  0.49220441  0.74412235  0.12488533  1
  O  O259  1  0.50145174  0.74417419  0.63476436  1
  O  O260  1  0.99724095  0.23681392  0.12772649  1
  O  O261  1  1.00140434  0.24092380  0.63313187  1
  O  O262  1  0.99172455  0.74846103  0.13306797  1
  O  O263  1  0.98769155  0.74927694  0.62735115  1
  O  O264  1  0.00921988  0.25252144  0.37341263  1
  O  O265  1  0.00578948  0.25018533  0.86459543  1
  O  O266  1  -0.00037931  0.75711458  0.36875350  1
  O  O267  1  0.00786923  0.75732053  0.87404742  1
  O  O268  1  0.50113045  0.25701359  0.36514657  1
  O  O269  1  0.50599172  0.25537324  0.86892268  1
  O  O270  1  0.50787310  0.75887721  0.37276140  1
  O  O271  1  0.50931679  0.74823288  0.86605016  1
  O  O272  1  0.24516244  0.12975342  0.49410144  1
  O  O273  1  0.23970849  0.13087186  0.99995117  1
  O  O274  1  0.24654445  0.62965191  0.49524191  1
  O  O275  1  0.24507802  0.63059022  0.99388908  1
  O  O276  1  0.74574060  0.13386258  0.50295674  1
  O  O277  1  0.74389833  0.13102147  0.99503421  1
  O  O278  1  0.74257688  0.62923446  0.49478243  1
  O  O279  1  0.74372541  0.62551822  0.99427424  1
  O  O280  1  0.25420580  0.36912591  0.00340728  1
  O  O281  1  0.25626724  0.36848066  0.50498870  1
  O  O282  1  0.25586806  0.86941249  0.00488449  1
  O  O283  1  0.25294624  0.87000889  0.50628601  1
  O  O284  1  0.75373296  0.37157504  0.00876498  1
  O  O285  1  0.75480294  0.36698619  0.50642280  1
  O  O286  1  0.75592762  0.87289470  0.00672019  1
  O  O287  1  0.75206247  0.87542297  0.51410067  1
  O  O288  1  0.12555780  0.49085259  0.24465555  1
  O  O289  1  0.12649281  0.49296739  0.74354045  1
  O  O290  1  0.13202072  0.99312473  0.24752467  1
  O  O291  1  0.12862361  0.98654427  0.75013160  1
  O  O292  1  0.62581111  0.48805182  0.25009512  1
  O  O293  1  0.63096007  0.49400352  0.74593399  1
  O  O294  1  0.62901254  0.99744583  0.24421859  1
  O  O295  1  0.63053841  0.99905259  0.74342843  1
  O  O296  1  0.36891889  0.00551538  0.25584605  1
  O  O297  1  0.37687240  0.00495446  0.75801626  1
  O  O298  1  0.37274430  0.50617515  0.25676027  1
  O  O299  1  0.37510799  0.50563181  0.75681048  1
  O  O300  1  0.86921846  0.00824206  0.25398622  1
  O  O301  1  0.86818421  0.00191689  0.75795488  1
  O  O302  1  0.87652849  0.50777429  0.25933163  1
  O  O303  1  0.87001253  0.50402347  0.75540183  1
  O  O304  1  0.12638089  0.36998682  0.36593350  1
  O  O305  1  0.12287728  0.36759698  0.86774413  1
  O  O306  1  0.11760110  0.87253726  0.36731601  1
  O  O307  1  0.12250930  0.87019301  0.86884556  1
  O  O308  1  0.61933130  0.37318968  0.36562951  1
  O  O309  1  0.62011043  0.37043435  0.87030153  1
  O  O310  1  0.61869654  0.87203186  0.36965658  1
  O  O311  1  0.62343869  0.86290472  0.87258256  1
  O  O312  1  0.37795872  0.12821818  0.13339158  1
  O  O313  1  0.38021438  0.12991545  0.62819304  1
  O  O314  1  0.37859339  0.63045930  0.12851566  1
  O  O315  1  0.38322711  0.62587832  0.63197224  1
  O  O316  1  0.88144298  0.12467555  0.13289503  1
  O  O317  1  0.88899785  0.12706276  0.62812548  1
  O  O318  1  0.87559605  0.63005289  0.13634695  1
  O  O319  1  0.87281972  0.63420716  0.63111353  1
  O  O320  1  0.25145902  0.25727848  0.11681361  1
  O  O321  1  0.25582393  0.25452996  0.61835673  1
  O  O322  1  0.25542778  0.75549805  0.11873261  1
  O  O323  1  0.25318769  0.76016435  0.61906382  1
  O  O324  1  0.75001224  0.26185024  0.11938386  1
  O  O325  1  0.75192899  0.25525685  0.61702046  1
  O  O326  1  0.75598819  0.75824133  0.12474056  1
  O  O327  1  0.75622651  0.75870619  0.62663304  1
  O  O328  1  0.24560523  0.24400334  0.38019866  1
  O  O329  1  0.24278606  0.24724590  0.88087882  1
  O  O330  1  0.24812515  0.74234077  0.38186743  1
  O  O331  1  0.24596627  0.74448958  0.88112450  1
  O  O332  1  0.74814400  0.24788814  0.38925126  1
  O  O333  1  0.74434145  0.24570040  0.88038706  1
  O  O334  1  0.73706137  0.75425782  0.37639244  1
  O  O335  1  0.74049284  0.74343377  0.87453543  1
  O  O336  1  0.00837670  0.12538983  0.00704064  1
  O  O337  1  0.00491947  0.12022814  0.50766882  1
  O  O338  1  0.00725825  0.61843509  0.00168311  1
  O  O339  1  0.00779239  0.61834096  0.50266686  1
  O  O340  1  0.50702760  0.11988249  0.00077441  1
  O  O341  1  0.50428657  0.12022035  0.50506604  1
  O  O342  1  0.50485170  0.61925074  0.00476711  1
  O  O343  1  0.50149310  0.61765244  0.50623123  1
  O  O344  1  0.49498869  0.37882217  0.49487944  1
  O  O345  1  0.49512288  0.37878317  0.99453180  1
  O  O346  1  0.49345518  0.88182467  0.49510702  1
  O  O347  1  0.49292689  0.88236045  0.99720402  1
  O  O348  1  0.99392247  0.38151779  0.49962926  1
  O  O349  1  0.99315381  0.38072204  0.99942272  1
  O  O350  1  0.99868481  0.88117074  0.49387367  1
  O  O351  1  0.99341567  0.87675190  0.99437815  1
  O  O352  1  0.49414730  0.49461489  0.38042879  1
  O  O353  1  0.49535255  0.49389722  0.88062820  1
  O  O354  1  0.49309923  0.99623173  0.38083836  1
  O  O355  1  0.49092399  0.99931149  0.87961667  1
  O  O356  1  0.98860299  0.49817738  0.38184690  1
  O  O357  1  0.99345753  0.49787690  0.88179364  1
  O  O358  1  0.99467444  0.99443685  0.37965838  1
  O  O359  1  0.99284098  0.99240711  0.87650330  1
  O  O360  1  0.00167433  0.01290824  0.12199625  1
  O  O361  1  0.00135845  0.00811717  0.62080591  1
  O  O362  1  0.00691365  0.50213218  0.11808086  1
  O  O363  1  0.00800349  0.50207740  0.61869012  1
  O  O364  1  0.50634456  0.00273171  0.11788853  1
  O  O365  1  0.50461163  0.00526157  0.61931142  1
  O  O366  1  0.50060015  0.50738159  0.11780444  1
  O  O367  1  0.50585706  0.50363032  0.62036209  1
  O  O368  1  0.23986311  0.37631773  0.24335425  1
  O  O369  1  0.24362539  0.37453025  0.74238903  1
  O  O370  1  0.24464837  0.87953475  0.24486172  1
  O  O371  1  0.24363257  0.87372724  0.74178055  1
  O  O372  1  0.74129012  0.37302962  0.24398236  1
  O  O373  1  0.74534174  0.37923865  0.74603738  1
  O  O374  1  0.74317142  0.88333780  0.24332575  1
  O  O375  1  0.74740108  0.88098264  0.73926227  1
  O  O376  1  0.25442674  0.12036519  0.25494399  1
  O  O377  1  0.25756948  0.12131819  0.75007632  1
  O  O378  1  0.25582608  0.62288145  0.25634009  1
  O  O379  1  0.25814042  0.62455703  0.75666408  1
  O  O380  1  0.75890149  0.12100608  0.24924880  1
  O  O381  1  0.75148588  0.11965179  0.75672822  1
  O  O382  1  0.76209641  0.62371697  0.25336494  1
  O  O383  1  0.75553306  0.61777238  0.75654207  1
  O  O384  1  0.36865490  0.11950169  0.36983205  1
  O  O385  1  0.37479578  0.11618158  0.86828368  1
  O  O386  1  0.37064913  0.62010890  0.36982262  1
  O  O387  1  0.37079420  0.61886549  0.87033715  1
  O  O388  1  0.87526736  0.11898896  0.36435939  1
  O  O389  1  0.86783105  0.11850120  0.87563022  1
  O  O390  1  0.87411990  0.61764292  0.36803971  1
  O  O391  1  0.86991917  0.61997210  0.87045147  1
  O  O392  1  0.12938735  0.37886396  0.13159030  1
  O  O393  1  0.13127406  0.37967692  0.62913506  1
  O  O394  1  0.13162436  0.87590676  0.13027515  1
  O  O395  1  0.13303653  0.87366790  0.63353386  1
  O  O396  1  0.63257531  0.37666707  0.13416781  1
  O  O397  1  0.63088075  0.37986560  0.63190676  1
  O  O398  1  0.62870779  0.88152744  0.12890269  1
  O  O399  1  0.63386041  0.88122754  0.62570936  1
  O  O400  1  0.12521879  0.25869559  0.25520421  1
  O  O401  1  0.11771441  0.25386898  0.75351738  1
  O  O402  1  0.11732137  0.75587958  0.25144909  1
  O  O403  1  0.12592480  0.76028263  0.75640927  1
  O  O404  1  0.61655777  0.25967030  0.25162322  1
  O  O405  1  0.61982440  0.25561952  0.75545720  1
  O  O406  1  0.62234666  0.75978953  0.25860550  1
  O  O407  1  0.61703648  0.74723950  0.75899316  1
  O  O408  1  0.38353026  0.24601775  0.24991103  1
  O  O409  1  0.38082172  0.24471119  0.74367270  1
  O  O410  1  0.37563611  0.74394584  0.24236952  1
  O  O411  1  0.38712911  0.74337920  0.75065832  1
  O  O412  1  0.87615658  0.23846953  0.24948265  1
  O  O413  1  0.88740729  0.24826506  0.74906869  1
  O  O414  1  0.87873720  0.74370367  0.24683397  1
  O  O415  1  0.87479900  0.74422776  0.74069742  1
  O  O416  1  0.38164146  0.49362587  0.49493285  1
  O  O417  1  0.38083070  0.49377094  0.99312969  1
  O  O418  1  0.37967410  0.99493530  0.49363127  1
  O  O419  1  0.37979524  0.99674977  0.99199430  1
  O  O420  1  0.87938061  0.49574453  0.49376699  1
  O  O421  1  0.88016502  0.49572276  0.99559086  1
  O  O422  1  0.88238110  0.99930045  0.49315228  1
  O  O423  1  0.87530777  0.99258592  0.99269712  1
  O  O424  1  0.12406746  0.01171582  0.00087554  1
  O  O425  1  0.11777632  0.00652959  0.50050171  1
  O  O426  1  0.11996199  0.50442326  0.00441658  1
  O  O427  1  0.12079590  0.50434092  0.50568843  1
  O  O428  1  0.61962541  0.00559121  0.00337401  1
  O  O429  1  0.61892465  0.00565857  0.50592841  1
  O  O430  1  0.61787811  0.50659701  0.00158208  1
  O  O431  1  0.61774805  0.49805131  0.50635602  1
  O  O432  1  0.36796425  0.37420392  0.11681121  1
  O  O433  1  0.37101994  0.36893933  0.61934174  1
  O  O434  1  0.36920791  0.87013700  0.11883049  1
  O  O435  1  0.36592313  0.87391573  0.61864701  1
  O  O436  1  0.86602326  0.37454630  0.12182598  1
  O  O437  1  0.86863548  0.37390403  0.61917328  1
  O  O438  1  0.86899565  0.87085012  0.12061873  1
  O  O439  1  0.86642549  0.86692067  0.62655470  1
  O  O440  1  0.13046098  0.12960588  0.37900338  1
  O  O441  1  0.12508371  0.13004478  0.88453946  1
  O  O442  1  0.13167150  0.62422680  0.38214759  1
  O  O443  1  0.13103737  0.63025090  0.87999940  1
  O  O444  1  0.62848616  0.12782261  0.38393706  1
  O  O445  1  0.63035431  0.13176155  0.88025126  1
  O  O446  1  0.62432374  0.63785103  0.37247610  1
  O  O447  1  0.63027104  0.63146871  0.88032335  1
