# generated using pymatgen
data_V3Zn3O8
_symmetry_space_group_name_H-M   'P 1'
_cell_length_a   17.09224701
_cell_length_b   17.09149269
_cell_length_c   17.09091968
_cell_angle_alpha   90.01374401
_cell_angle_beta   89.98695758
_cell_angle_gamma   90.00064014
_symmetry_Int_Tables_number   1
_chemical_formula_structural   V3Zn3O8
_chemical_formula_sum   'V96 Zn96 O256'
_cell_volume   4992.80452898
_cell_formula_units_Z   32
loop_
 _symmetry_equiv_pos_site_id
 _symmetry_equiv_pos_as_xyz
  1  'x, y, z'
loop_
 _atom_site_type_symbol
 _atom_site_label
 _atom_site_symmetry_multiplicity
 _atom_site_fract_x
 _atom_site_fract_y
 _atom_site_fract_z
 _atom_site_occupancy
  V  V0  1  0.12618015  0.37500555  0.24936798  1
  V  V1  1  0.12601805  -0.00046004  0.62580660  1
  V  V2  1  0.00009605  0.00029177  0.49876902  1
  V  V3  1  0.00068359  0.50008700  -0.00034646  1
  V  V4  1  0.74928703  0.37564595  0.12490271  1
  V  V5  1  0.87530594  0.12457902  0.74942100  1
  V  V6  1  0.37427336  0.62413621  0.25096780  1
  V  V7  1  0.12535155  0.12461647  0.49974759  1
  V  V8  1  0.25143190  0.12400188  0.37446219  1
  V  V9  1  0.75031100  0.24964631  -0.00043286  1
  V  V10  1  0.37508505  0.49975377  0.87476510  1
  V  V11  1  0.62430805  0.00084269  0.62467959  1
  V  V12  1  0.74921008  0.74973104  0.00003762  1
  V  V13  1  0.12317689  0.75087798  0.87555056  1
  V  V14  1  0.37533062  0.87389390  0.00145354  1
  V  V15  1  0.87588262  0.25020080  0.12494697  1
  V  V16  1  0.12423541  0.62510652  0.49932089  1
  V  V17  1  0.87658317  0.87636302  0.49673599  1
  V  V18  1  0.50013285  0.75044063  0.75098276  1
  V  V19  1  0.24982369  0.74953584  0.00070921  1
  V  V20  1  0.62521309  0.25106514  0.37496427  1
  V  V21  1  0.00015746  0.75062250  0.24932669  1
  V  V22  1  0.24906484  0.62370851  0.37403653  1
  V  V23  1  0.12622912  0.37580019  0.74918065  1
  V  V24  1  0.62499519  0.87444256  0.75048033  1
  V  V25  1  0.74992271  0.24989499  0.49945512  1
  V  V26  1  0.75010741  0.12542676  0.87460139  1
  V  V27  1  0.25064475  0.25022405  -0.00018233  1
  V  V28  1  0.37539184  0.37472025  -0.00002756  1
  V  V29  1  -0.00021025  0.24976904  0.24938113  1
  V  V30  1  0.25000369  0.37500894  0.12569429  1
  V  V31  1  0.49874432  0.74893851  0.25083116  1
  V  V32  1  0.74960459  0.62506327  0.37418075  1
  V  V33  1  0.87494412  0.12571990  0.24900641  1
  V  V34  1  0.62512417  0.49924383  0.12591566  1
  V  V35  1  0.87523534  0.25043697  0.62366130  1
  V  V36  1  0.12573515  0.50016973  0.62614293  1
  V  V37  1  0.87415738  0.50128589  0.37384582  1
  V  V38  1  0.00046193  0.37478264  0.87486145  1
  V  V39  1  0.75094304  0.37458817  0.62427761  1
  V  V40  1  0.00089667  0.24953665  0.74934153  1
  V  V41  1  0.12430846  0.62513953  -0.00108225  1
  V  V42  1  0.62449710  0.12384278  0.00007209  1
  V  V43  1  0.49848089  0.87487840  0.37671912  1
  V  V44  1  0.37553811  0.12430624  0.25105193  1
  V  V45  1  0.75012751  -0.00105123  0.24946366  1
  V  V46  1  -0.00149707  0.87644949  0.87545463  1
  V  V47  1  0.12530156  0.87564839  0.75018771  1
  V  V48  1  0.50083647  0.25066487  0.25154147  1
  V  V49  1  0.50142294  0.62414756  0.62597891  1
  V  V50  1  0.75006371  0.12621606  0.37423955  1
  V  V51  1  0.50093003  0.12454615  0.12488501  1
  V  V52  1  0.74940294  -0.00001637  0.74846303  1
  V  V53  1  0.87420134  0.75069765  0.12388058  1
  V  V54  1  0.62466650  0.62555078  -0.00003761  1
  V  V55  1  0.37533920  0.25138332  0.62443894  1
  V  V56  1  0.49875249  0.62522573  0.12618039  1
  V  V57  1  0.12448495  0.12458588  0.00076911  1
  V  V58  1  -0.00079208  0.62483572  0.12305497  1
  V  V59  1  0.62621012  0.50055802  0.62442489  1
  V  V60  1  0.00072694  0.49999367  0.49900043  1
  V  V61  1  0.50118684  0.37403395  0.87508943  1
  V  V62  1  0.00068635  0.12570749  0.62450204  1
  V  V63  1  0.50001187  -0.00108393  0.50004111  1
  V  V64  1  0.37553892  0.24927530  0.12559714  1
  V  V65  1  -0.00132625  0.75074427  0.74960376  1
  V  V66  1  0.62419393  0.74968782  0.37608975  1
  V  V67  1  0.62437710  0.37500536  0.25017631  1
  V  V68  1  0.62416126  0.62512805  0.50141755  1
  V  V69  1  0.62487524  0.25025858  0.87436784  1
  V  V70  1  0.62569623  0.37460218  0.75059653  1
  V  V71  1  0.24923172  -0.00138130  0.75025365  1
  V  V72  1  0.87523147  0.37462646  -0.00045121  1
  V  V73  1  0.12563337  -0.00032138  0.12588849  1
  V  V74  1  0.75145681  0.50070495  0.75012937  1
  V  V75  1  0.12487001  0.75094587  0.37479766  1
  V  V76  1  0.87591969  0.74915374  0.62500727  1
  V  V77  1  0.37369784  0.62463437  0.75118801  1
  V  V78  1  0.49978360  0.50007042  0.00085709  1
  V  V79  1  0.37472033  0.00013375  0.87613584  1
  V  V80  1  0.62517109  0.87531403  0.25082379  1
  V  V81  1  0.75045770  0.75135222  0.49966992  1
  V  V82  1  0.00041818  0.37552829  0.37423298  1
  V  V83  1  0.49989005  -0.00040075  0.00049025  1
  V  V84  1  0.12581194  0.24959357  0.37520382  1
  V  V85  1  0.87510381  0.00016215  0.87512576  1
  V  V86  1  0.49996427  0.12380497  0.62532101  1
  V  V87  1  0.74959459  0.62429773  0.87512082  1
  V  V88  1  0.87316357  0.87538907  -0.00099925  1
  V  V89  1  0.87470010  0.50001243  0.87376868  1
  V  V90  1  0.25015383  0.12499744  0.87550652  1
  V  V91  1  0.37521700  0.12406346  0.75048003  1
  V  V92  1  0.25113055  0.25046940  0.50123429  1
  V  V93  1  0.37580571  -0.00044839  0.37572784  1
  V  V94  1  0.25002817  0.49957572  0.25047136  1
  V  V95  1  0.12567834  0.24997658  0.87472513  1
  Zn  Zn96  1  0.12846067  0.87599301  0.24889500  1
  Zn  Zn97  1  0.62577921  0.74985011  0.87591267  1
  Zn  Zn98  1  0.74812473  0.87423402  0.12428168  1
  Zn  Zn99  1  0.25077936  0.87246871  0.62313650  1
  Zn  Zn100  1  0.24987079  0.49952549  0.75175953  1
  Zn  Zn101  1  0.25151207  0.75106299  0.50293717  1
  Zn  Zn102  1  0.49845292  0.37705060  0.37940499  1
  Zn  Zn103  1  -0.00129572  0.00153454  0.00143314  1
  Zn  Zn104  1  0.87539169  0.37484477  0.49966278  1
  Zn  Zn105  1  0.50025680  0.24928054  0.74952686  1
  Zn  Zn106  1  0.12445611  0.49986508  0.12416376  1
  Zn  Zn107  1  0.49733835  0.49866702  0.49931694  1
  Zn  Zn108  1  0.00242788  0.87828238  0.37181290  1
  Zn  Zn109  1  0.87511860  0.62533995  0.74949690  1
  Zn  Zn110  1  -0.00037698  0.62490918  0.62602115  1
  Zn  Zn111  1  0.62471914  -0.00214948  0.12408442  1
  Zn  Zn112  1  0.87806186  0.00123821  0.37320789  1
  Zn  Zn113  1  0.74939163  0.50163103  0.24933254  1
  Zn  Zn114  1  0.50085813  0.87417339  0.87649907  1
  Zn  Zn115  1  0.25073716  -0.00352291  0.25056869  1
  Zn  Zn116  1  0.37568038  0.37946447  0.49961888  1
  Zn  Zn117  1  -0.00010741  0.12455303  0.12404739  1
  Zn  Zn118  1  0.37655778  0.49799077  0.37962142  1
  Zn  Zn119  1  0.37222858  0.87145412  0.50332367  1
  Zn  Zn120  1  0.24947391  0.87522465  0.12770077  1
  Zn  Zn121  1  0.62520028  0.12478707  0.49939109  1
  Zn  Zn122  1  0.74951488  0.87658312  0.62321184  1
  Zn  Zn123  1  0.24845820  0.62291074  0.87497960  1
  Zn  Zn124  1  0.37348149  0.74996239  0.12640733  1
  Zn  Zn125  1  0.87217748  0.62543619  0.24770243  1
  Zn  Zn126  1  0.36947204  0.75089022  0.62385692  1
  Zn  Zn127  1  0.25213822  0.37677894  0.62516265  1
  Zn  Zn128  1  0.18834353  0.18548085  0.18815935  1
  Zn  Zn129  1  0.18942134  0.18616033  0.68762802  1
  Zn  Zn130  1  0.18604555  0.68578966  0.18615856  1
  Zn  Zn131  1  0.18709926  0.68713442  0.68699375  1
  Zn  Zn132  1  0.68743020  0.18749675  0.18714147  1
  Zn  Zn133  1  0.68693324  0.18789481  0.68648484  1
  Zn  Zn134  1  0.68684224  0.68726479  0.18773946  1
  Zn  Zn135  1  0.68984731  0.68823617  0.68722397  1
  Zn  Zn136  1  0.31442432  0.31330687  0.31471332  1
  Zn  Zn137  1  0.31199200  0.31357395  0.81008595  1
  Zn  Zn138  1  0.31182837  0.81351709  0.31277421  1
  Zn  Zn139  1  0.31146883  0.81250446  0.81449988  1
  Zn  Zn140  1  0.81178054  0.31473760  0.31190417  1
  Zn  Zn141  1  0.81283710  0.31247960  0.81119717  1
  Zn  Zn142  1  0.81311430  0.81185763  0.31189945  1
  Zn  Zn143  1  0.81037737  0.81268906  0.81296959  1
  Zn  Zn144  1  0.19043083  0.43643614  0.43902561  1
  Zn  Zn145  1  0.18860377  0.43856592  0.93687249  1
  Zn  Zn146  1  0.18981238  0.93548353  0.43758201  1
  Zn  Zn147  1  0.18715909  0.93731176  0.93928466  1
  Zn  Zn148  1  0.68645959  0.43702567  0.43804124  1
  Zn  Zn149  1  0.68751067  0.43836191  0.93818714  1
  Zn  Zn150  1  0.68788089  0.93845773  0.43638525  1
  Zn  Zn151  1  0.68770437  0.93770222  0.93600354  1
  Zn  Zn152  1  0.31156742  0.06200266  0.06420688  1
  Zn  Zn153  1  0.31301691  0.06110133  0.56203333  1
  Zn  Zn154  1  0.31187739  0.56233669  0.06397221  1
  Zn  Zn155  1  0.31157748  0.56633457  0.56197121  1
  Zn  Zn156  1  0.81214558  0.06215628  0.06388335  1
  Zn  Zn157  1  0.81169983  0.06319286  0.56168292  1
  Zn  Zn158  1  0.81268065  0.56302630  0.06195581  1
  Zn  Zn159  1  0.81191034  0.56296015  0.56006807  1
  Zn  Zn160  1  0.43685888  0.43791848  0.19079599  1
  Zn  Zn161  1  0.44036026  0.43776617  0.68753823  1
  Zn  Zn162  1  0.43811486  0.93758271  0.18783245  1
  Zn  Zn163  1  0.43609224  0.93600003  0.68609629  1
  Zn  Zn164  1  0.93734520  0.43803411  0.18793288  1
  Zn  Zn165  1  0.93845957  0.43692337  0.68699960  1
  Zn  Zn166  1  0.93822706  0.93715995  0.18479938  1
  Zn  Zn167  1  0.93847077  0.93653956  0.68575639  1
  Zn  Zn168  1  0.06266440  0.06275896  0.31133938  1
  Zn  Zn169  1  0.06217319  0.06200705  0.81339394  1
  Zn  Zn170  1  0.06237743  0.56326429  0.31003001  1
  Zn  Zn171  1  0.06023985  0.56541010  0.81137817  1
  Zn  Zn172  1  0.56348162  0.06332582  0.31324276  1
  Zn  Zn173  1  0.56072261  0.06157934  0.81278077  1
  Zn  Zn174  1  0.56133203  0.56049018  0.31433816  1
  Zn  Zn175  1  0.56310696  0.56143114  0.81286192  1
  Zn  Zn176  1  0.43978411  0.18697566  0.43901069  1
  Zn  Zn177  1  0.43847834  0.18741039  0.93736558  1
  Zn  Zn178  1  0.43494986  0.68592936  0.43898215  1
  Zn  Zn179  1  0.43846931  0.68771336  0.93619147  1
  Zn  Zn180  1  0.93667542  0.18759103  0.43628270  1
  Zn  Zn181  1  0.93883360  0.18667121  0.93794163  1
  Zn  Zn182  1  0.93879015  0.68599242  0.43737081  1
  Zn  Zn183  1  0.93590183  0.68759886  0.93673461  1
  Zn  Zn184  1  0.06312077  0.31230845  0.06333906  1
  Zn  Zn185  1  0.06312533  0.31441063  0.56089621  1
  Zn  Zn186  1  0.06101697  0.81515018  0.06239767  1
  Zn  Zn187  1  0.06250460  0.81390275  0.56209856  1
  Zn  Zn188  1  0.56243130  0.31153359  0.06304021  1
  Zn  Zn189  1  0.56208828  0.31297215  0.56076551  1
  Zn  Zn190  1  0.56282347  0.81185922  0.06569426  1
  Zn  Zn191  1  0.55979125  0.81236402  0.56414868  1
  O  O192  1  0.12475222  0.11791829  0.11877542  1
  O  O193  1  0.11914414  0.12041110  0.62000291  1
  O  O194  1  0.11692211  0.62317118  0.11620597  1
  O  O195  1  0.12150970  0.61527909  0.61971443  1
  O  O196  1  0.61860626  0.12448175  0.11726981  1
  O  O197  1  0.61794266  0.11841536  0.62523931  1
  O  O198  1  0.61872277  0.61896735  0.11949935  1
  O  O199  1  0.62219969  0.62029424  0.62120234  1
  O  O200  1  0.37845511  0.37756497  0.37931956  1
  O  O201  1  0.38108761  0.37871379  0.88050385  1
  O  O202  1  0.38307692  0.88215393  0.37547821  1
  O  O203  1  0.37604654  0.88094798  0.88630852  1
  O  O204  1  0.88118088  0.38490475  0.37544641  1
  O  O205  1  0.88063632  0.37917175  0.87997710  1
  O  O206  1  0.87822937  0.87433485  0.38738998  1
  O  O207  1  0.87867896  0.88126304  0.87880338  1
  O  O208  1  0.25695029  0.00796139  0.37422617  1
  O  O209  1  0.25492384  0.00617332  0.87103223  1
  O  O210  1  0.24775236  0.50744685  0.36714042  1
  O  O211  1  0.25929310  0.50266987  0.87336522  1
  O  O212  1  0.75201163  0.00600605  0.36413223  1
  O  O213  1  0.75546929  0.00676722  0.86788786  1
  O  O214  1  0.75926090  0.50551213  0.37509180  1
  O  O215  1  0.75565522  0.50371013  0.87002300  1
  O  O216  1  0.24775633  0.49204957  0.13079085  1
  O  O217  1  0.23535412  0.50029378  0.62721552  1
  O  O218  1  0.23896641  0.99954683  0.12657560  1
  O  O219  1  0.24203059  1.00184402  0.63365227  1
  O  O220  1  0.74363602  0.49334634  0.12441216  1
  O  O221  1  0.74663640  0.49501685  0.63024574  1
  O  O222  1  0.74767536  0.99916083  0.13847188  1
  O  O223  1  0.74352186  0.99916968  0.63172252  1
  O  O224  1  0.00608909  0.36956199  0.25500346  1
  O  O225  1  0.00558286  0.36836078  0.75602176  1
  O  O226  1  0.00143892  0.86122951  0.25011340  1
  O  O227  1  0.00517070  0.87054852  0.75602179  1
  O  O228  1  0.50756442  0.36654918  0.24853761  1
  O  O229  1  0.50831322  0.37302308  0.75785061  1
  O  O230  1  0.50505966  0.86912508  0.25637656  1
  O  O231  1  0.50826582  0.86701551  0.75145820  1
  O  O232  1  0.49559002  0.13092042  0.24426854  1
  O  O233  1  0.49261859  0.12576540  0.74431059  1
  O  O234  1  0.49493967  0.62994149  0.24522245  1
  O  O235  1  0.49493482  0.63197052  0.74700076  1
  O  O236  1  0.99265829  0.13329898  0.24903447  1
  O  O237  1  0.99502626  0.13053745  0.74460544  1
  O  O238  1  0.99836411  0.63505329  0.24229933  1
  O  O239  1  0.99442777  0.63492547  0.74713519  1
  O  O240  1  0.37026614  0.25522417  0.00528782  1
  O  O241  1  0.36922200  0.24574046  0.51194427  1
  O  O242  1  0.36751076  0.75703636  -0.00121061  1
  O  O243  1  0.37159814  0.75111897  0.50442943  1
  O  O244  1  0.86971489  0.25550659  0.00380051  1
  O  O245  1  0.86929642  0.25139622  0.50655535  1
  O  O246  1  0.86887612  0.75569639  0.00432577  1
  O  O247  1  0.87238062  0.75720280  0.50602764  1
  O  O248  1  0.12972055  0.24373461  0.49494582  1
  O  O249  1  0.13144178  0.24599826  0.99393124  1
  O  O250  1  0.11961749  0.74344581  0.48803977  1
  O  O251  1  0.13121490  0.74631189  0.99501389  1
  O  O252  1  0.63304273  0.24766110  0.49385690  1
  O  O253  1  0.63098765  0.24454071  0.99401543  1
  O  O254  1  0.63084101  0.74629079  0.49601127  1
  O  O255  1  0.63024415  0.74336873  0.99878352  1
  O  O256  1  0.49425307  0.24414714  0.12976052  1
  O  O257  1  0.49097987  0.24255414  0.62683346  1
  O  O258  1  0.49820984  0.74231233  0.13285759  1
  O  O259  1  0.50101660  0.74319422  0.63905238  1
  O  O260  1  0.99316927  0.25020913  0.13173240  1
  O  O261  1  0.99587577  0.24501828  0.62982187  1
  O  O262  1  0.99505359  0.74495069  0.13087363  1
  O  O263  1  0.99064773  0.75063902  0.63024141  1
  O  O264  1  0.00590410  0.25543937  0.36961351  1
  O  O265  1  0.00556871  0.25515893  0.86894205  1
  O  O266  1  0.00785892  0.74797782  0.36507557  1
  O  O267  1  0.00313494  0.75704001  0.86974414  1
  O  O268  1  0.50800500  0.24893627  0.36788064  1
  O  O269  1  0.50710712  0.25619441  0.87424993  1
  O  O270  1  0.50606166  0.75435404  0.36989568  1
  O  O271  1  0.50474032  0.75126201  0.86292056  1
  O  O272  1  0.24378783  0.13004778  0.49449339  1
  O  O273  1  0.24570974  0.13165389  0.99412579  1
  O  O274  1  0.23955052  0.62730578  0.49150942  1
  O  O275  1  0.24484533  0.63371909  0.99846418  1
  O  O276  1  0.74920688  0.13147366  0.49240975  1
  O  O277  1  0.74502848  0.13032889  0.99390404  1
  O  O278  1  0.74427093  0.63242665  0.49413057  1
  O  O279  1  0.74384440  0.62967108  0.99483947  1
  O  O280  1  0.25610178  0.36911784  0.00486220  1
  O  O281  1  0.25151415  0.36466054  0.50533438  1
  O  O282  1  0.25868754  0.86626351  0.00012847  1
  O  O283  1  0.25232186  0.87047959  0.50344744  1
  O  O284  1  0.75558028  0.36904625  0.00434428  1
  O  O285  1  0.75205268  0.36810515  0.50739772  1
  O  O286  1  0.75511281  0.86830650  -0.00024121  1
  O  O287  1  0.75951668  0.87004817  0.50051904  1
  O  O288  1  0.13058925  0.49243950  0.24731866  1
  O  O289  1  0.12296102  0.49542758  0.74189819  1
  O  O290  1  0.12629526  0.99979241  0.23920186  1
  O  O291  1  0.12952143  0.99573960  0.74591339  1
  O  O292  1  0.62629405  0.49349722  0.24216439  1
  O  O293  1  0.63240752  0.49418467  0.74519157  1
  O  O294  1  0.63439513  0.99441868  0.25032778  1
  O  O295  1  0.62885808  0.99259045  0.74554830  1
  O  O296  1  0.37632426  0.00783790  0.25719520  1
  O  O297  1  0.36941508  0.00489306  0.75701068  1
  O  O298  1  0.36660967  0.50702259  0.25071371  1
  O  O299  1  0.37647337  0.50928017  0.75582532  1
  O  O300  1  0.86650871  0.00478024  0.25031086  1
  O  O301  1  0.86981485  0.00528890  0.75387623  1
  O  O302  1  0.87373318  0.50244822  0.26169658  1
  O  O303  1  0.86921649  0.50028974  0.75597636  1
  O  O304  1  0.12046407  0.36873543  0.36915238  1
  O  O305  1  0.11961595  0.36910691  0.87013573  1
  O  O306  1  0.12229717  0.86268101  0.37246835  1
  O  O307  1  0.11821397  0.87062732  0.87074184  1
  O  O308  1  0.62565013  0.36770666  0.36712439  1
  O  O309  1  0.62102010  0.36996212  0.87099749  1
  O  O310  1  0.61915476  0.86880199  0.37011656  1
  O  O311  1  0.62304137  0.87438712  0.86148981  1
  O  O312  1  0.38097457  0.13052602  0.12970144  1
  O  O313  1  0.37985028  0.13107889  0.63134149  1
  O  O314  1  0.38177575  0.62634201  0.13159444  1
  O  O315  1  0.38202006  0.62561967  0.63872495  1
  O  O316  1  0.87537585  0.13306150  0.13095748  1
  O  O317  1  0.88116117  0.13035300  0.63060090  1
  O  O318  1  0.88169071  0.63212634  0.12436848  1
  O  O319  1  0.87608857  0.63831900  0.62377665  1
  O  O320  1  0.25631216  0.25465518  0.11938279  1
  O  O321  1  0.25978103  0.24752322  0.61984773  1
  O  O322  1  0.25033789  0.75096547  0.11127087  1
  O  O323  1  0.24971554  0.75303362  0.62289715  1
  O  O324  1  0.75559188  0.25556327  0.11824195  1
  O  O325  1  0.75597224  0.25457090  0.62025959  1
  O  O326  1  0.75644632  0.75007042  0.11818980  1
  O  O327  1  0.75971230  0.75304594  0.61857623  1
  O  O328  1  0.24444745  0.24358804  0.38103929  1
  O  O329  1  0.24519165  0.24501396  0.88022187  1
  O  O330  1  0.23654941  0.74214828  0.37195369  1
  O  O331  1  0.24308346  0.74883234  0.88634441  1
  O  O332  1  0.74542133  0.24600090  0.37952127  1
  O  O333  1  0.74556412  0.24483473  0.88014435  1
  O  O334  1  0.74445275  0.74532479  0.38050053  1
  O  O335  1  0.74844676  0.74237969  0.88144043  1
  O  O336  1  0.00864842  0.12356719  0.00198180  1
  O  O337  1  0.00539229  0.12085975  0.50520437  1
  O  O338  1  0.00461718  0.61997890  0.00339792  1
  O  O339  1  0.00682254  0.61716019  0.50157454  1
  O  O340  1  0.50483491  0.11993008  0.00512027  1
  O  O341  1  0.50307472  0.11699071  0.50749208  1
  O  O342  1  0.50445106  0.61946403  0.00539629  1
  O  O343  1  0.50874015  0.62677459  0.50959951  1
  O  O344  1  0.49633300  0.37893287  0.49928750  1
  O  O345  1  0.49471813  0.38006379  0.99562775  1
  O  O346  1  0.50005209  0.88162467  0.49316656  1
  O  O347  1  0.49166436  0.87893492  0.99888475  1
  O  O348  1  0.99905034  0.38168133  0.49123337  1
  O  O349  1  0.99490761  0.37913095  0.99395338  1
  O  O350  1  0.99115755  0.88170782  0.49880892  1
  O  O351  1  0.99095494  0.87636188  0.99188886  1
  O  O352  1  0.49708761  0.49718570  0.37965425  1
  O  O353  1  0.49574068  0.49337089  0.88186310  1
  O  O354  1  0.49619489  0.99518083  0.38024568  1
  O  O355  1  0.49187020  0.99876173  0.88265380  1
  O  O356  1  0.99301921  0.49575499  0.37822651  1
  O  O357  1  0.99447902  0.49378888  0.87975911  1
  O  O358  1  0.99808476  0.99819828  0.38250973  1
  O  O359  1  0.99207660  0.99433849  0.87571094  1
  O  O360  1  0.01035612  0.00342678  0.12223012  1
  O  O361  1  0.00543534  0.00724721  0.61990550  1
  O  O362  1  -0.00003827  0.50558076  0.11709379  1
  O  O363  1  0.00900398  0.50010075  0.61875890  1
  O  O364  1  0.50151545  0.00738968  0.11816116  1
  O  O365  1  0.50523554  0.00487082  0.62031123  1
  O  O366  1  0.50507814  0.50493568  0.11951655  1
  O  O367  1  0.51029919  0.50805976  0.62742100  1
  O  O368  1  0.24499122  0.37880372  0.24443886  1
  O  O369  1  0.24148340  0.37845837  0.74656950  1
  O  O370  1  0.24719057  0.87792126  0.24479423  1
  O  O371  1  0.24171464  0.88249009  0.75299281  1
  O  O372  1  0.74278888  0.37648272  0.24149529  1
  O  O373  1  0.74535898  0.38058274  0.74474887  1
  O  O374  1  0.74481560  0.88382652  0.25149391  1
  O  O375  1  0.74060742  0.88099830  0.74818768  1
  O  O376  1  0.25862107  0.12496534  0.25768167  1
  O  O377  1  0.25486896  0.11863497  0.75729938  1
  O  O378  1  0.25384814  0.61919213  0.25321305  1
  O  O379  1  0.26246722  0.62413605  0.75386955  1
  O  O380  1  0.75475444  0.11802701  0.25404458  1
  O  O381  1  0.75589389  0.12036656  0.75517888  1
  O  O382  1  0.75166245  0.62304346  0.25854411  1
  O  O383  1  0.75245926  0.61841639  0.75633954  1
  O  O384  1  0.37120809  0.12013112  0.37003064  1
  O  O385  1  0.36907458  0.12057342  0.87113032  1
  O  O386  1  0.36570303  0.62447149  0.36687261  1
  O  O387  1  0.37700901  0.61819537  0.86599582  1
  O  O388  1  0.86762295  0.12451453  0.36670947  1
  O  O389  1  0.86958905  0.12106445  0.86886204  1
  O  O390  1  0.86918227  0.61617714  0.37477645  1
  O  O391  1  0.86770360  0.61715610  0.87431633  1
  O  O392  1  0.13246773  0.37509056  0.13117787  1
  O  O393  1  0.12421658  0.38416580  0.63095367  1
  O  O394  1  0.12616044  0.88689983  0.12393705  1
  O  O395  1  0.12313649  0.88340556  0.63339724  1
  O  O396  1  0.63029357  0.37947121  0.12868719  1
  O  O397  1  0.63206532  0.37978009  0.63160099  1
  O  O398  1  0.62807167  0.87771210  0.13463237  1
  O  O399  1  0.62555266  0.88086614  0.63605557  1
  O  O400  1  0.12048962  0.25468065  0.25596150  1
  O  O401  1  0.12007228  0.25409260  0.75508504  1
  O  O402  1  0.11556468  0.74860984  0.25681281  1
  O  O403  1  0.11853878  0.75563986  0.75673240  1
  O  O404  1  0.62028112  0.25527529  0.25420883  1
  O  O405  1  0.62515942  0.25678040  0.75705988  1
  O  O406  1  0.61923728  0.75504968  0.25703840  1
  O  O407  1  0.61895532  0.75826555  0.75017707  1
  O  O408  1  0.38077617  0.24401227  0.24385701  1
  O  O409  1  0.37490528  0.24237223  0.74120564  1
  O  O410  1  0.38138209  0.74287827  0.24853131  1
  O  O411  1  0.38448456  0.74143550  0.75403516  1
  O  O412  1  0.87983007  0.24643769  0.24410148  1
  O  O413  1  0.88096574  0.24418197  0.74437229  1
  O  O414  1  0.88391281  0.74848437  0.24420548  1
  O  O415  1  0.87893529  0.75326672  0.73915188  1
  O  O416  1  0.37714133  0.49917351  0.50057680  1
  O  O417  1  0.38082323  0.49400679  0.99570237  1
  O  O418  1  0.38315233  0.99979975  0.49254643  1
  O  O419  1  0.37876149  0.99254897  0.99584994  1
  O  O420  1  0.88106521  0.49909845  0.48984134  1
  O  O421  1  0.88045283  0.49322983  0.99351929  1
  O  O422  1  0.88007089  0.99123390  0.50000342  1
  O  O423  1  0.87386307  0.99451552  0.99264163  1
  O  O424  1  0.12438166  0.00687147  0.00754999  1
  O  O425  1  0.11955687  0.00634062  0.50550218  1
  O  O426  1  0.11782357  0.50612054  -0.00018207  1
  O  O427  1  0.12019560  0.50412285  0.50726322  1
  O  O428  1  0.61893336  0.00625089  0.00000311  1
  O  O429  1  0.61954962  0.00082106  0.50686842  1
  O  O430  1  0.61880135  0.50479875  0.00594497  1
  O  O431  1  0.62728367  0.50871145  0.50847305  1
  O  O432  1  0.37020937  0.36866360  0.11942733  1
  O  O433  1  0.37429451  0.36141268  0.62804694  1
  O  O434  1  0.37422422  0.87347196  0.11168127  1
  O  O435  1  0.37069574  0.87069404  0.62407911  1
  O  O436  1  0.86972033  0.37008332  0.11873501  1
  O  O437  1  0.86913357  0.36801947  0.62385924  1
  O  O438  1  0.87207016  0.86823239  0.11703540  1
  O  O439  1  0.87415799  0.86650153  0.61437217  1
  O  O440  1  0.13057276  0.13088091  0.38062870  1
  O  O441  1  0.13092829  0.13086775  0.87950172  1
  O  O442  1  0.12850116  0.63209726  0.37862322  1
  O  O443  1  0.12487515  0.63321808  0.88119615  1
  O  O444  1  0.63323551  0.13292274  0.37502400  1
  O  O445  1  0.63074319  0.12995317  0.87975985  1
  O  O446  1  0.63014327  0.63138168  0.38115170  1
  O  O447  1  0.63176075  0.62395914  0.88268966  1
