# generated using pymatgen
data_V3Zn3O8
_symmetry_space_group_name_H-M   'P 1'
_cell_length_a   17.08631879
_cell_length_b   17.08544447
_cell_length_c   17.08632934
_cell_angle_alpha   90.01548521
_cell_angle_beta   90.00177497
_cell_angle_gamma   89.99455348
_symmetry_Int_Tables_number   1
_chemical_formula_structural   V3Zn3O8
_chemical_formula_sum   'V96 Zn96 O256'
_cell_volume   4987.96665294
_cell_formula_units_Z   32
loop_
 _symmetry_equiv_pos_site_id
 _symmetry_equiv_pos_as_xyz
  1  'x, y, z'
loop_
 _atom_site_type_symbol
 _atom_site_label
 _atom_site_symmetry_multiplicity
 _atom_site_fract_x
 _atom_site_fract_y
 _atom_site_fract_z
 _atom_site_occupancy
  V  V0  1  0.62540181  0.37603950  0.74936038  1
  V  V1  1  0.12532536  0.37581302  0.24969424  1
  V  V2  1  0.37572098  0.87498150  0.50017926  1
  V  V3  1  0.00121587  0.00099705  -0.00029775  1
  V  V4  1  0.00131883  0.12449934  0.12451788  1
  V  V5  1  0.50136097  0.50131090  0.00081132  1
  V  V6  1  0.87427678  0.62360959  0.75071091  1
  V  V7  1  0.49847403  -0.00170715  0.50087939  1
  V  V8  1  0.37700634  -0.00009290  0.87667558  1
  V  V9  1  0.25103011  0.12343524  0.37337902  1
  V  V10  1  0.87473995  0.50061721  0.87445922  1
  V  V11  1  0.37624697  0.37550707  0.00045395  1
  V  V12  1  0.37573623  0.87579038  0.00017809  1
  V  V13  1  0.24896574  0.87517835  0.62532151  1
  V  V14  1  -0.00065921  0.37516393  0.37563539  1
  V  V15  1  0.12523794  0.87474682  0.25013173  1
  V  V16  1  0.37460713  0.74942686  0.62633350  1
  V  V17  1  0.62443007  0.49921734  0.62423660  1
  V  V18  1  0.62558324  0.12451418  0.00067979  1
  V  V19  1  0.24978216  0.75077977  0.00016268  1
  V  V20  1  -0.00016030  0.62409404  0.62389904  1
  V  V21  1  0.50224059  0.12413534  0.12350327  1
  V  V22  1  0.87462172  0.74919773  0.62506943  1
  V  V23  1  0.12547278  0.37558932  0.75015566  1
  V  V24  1  0.74968780  0.87545522  0.62593678  1
  V  V25  1  0.74912536  0.62431331  0.37444924  1
  V  V26  1  0.62501960  0.12445654  0.49976597  1
  V  V27  1  0.37455731  0.37406364  0.50002303  1
  V  V28  1  0.50110635  0.37643345  0.87484143  1
  V  V29  1  0.49886414  0.74972953  0.25003435  1
  V  V30  1  0.12607593  0.25060074  0.87494256  1
  V  V31  1  0.49888124  0.62533776  0.12484991  1
  V  V32  1  0.75073154  0.12593365  0.87445751  1
  V  V33  1  0.25094300  0.24996082  0.50001796  1
  V  V34  1  0.12468308  0.75083167  0.87459058  1
  V  V35  1  0.62534360  -0.00018713  0.62582480  1
  V  V36  1  0.62471505  0.24857687  0.37489461  1
  V  V37  1  0.00062364  0.37517351  0.87547348  1
  V  V38  1  0.75002013  0.75107622  -0.00077073  1
  V  V39  1  0.25025105  0.37582738  0.12553547  1
  V  V40  1  0.12536194  0.24947871  0.37472556  1
  V  V41  1  0.49955754  0.50030508  0.50010701  1
  V  V42  1  0.75023065  0.37309634  0.62437956  1
  V  V43  1  0.24811648  0.74601320  0.49813177  1
  V  V44  1  0.37504548  0.74997152  0.12583704  1
  V  V45  1  0.74834052  0.49929634  0.24926120  1
  V  V46  1  0.37271390  0.50288629  0.37395784  1
  V  V47  1  0.49915554  0.12513346  0.62589811  1
  V  V48  1  0.62553144  0.87692120  0.24828340  1
  V  V49  1  0.87475478  0.87572005  -0.00078715  1
  V  V50  1  0.49987659  0.25046672  0.74942792  1
  V  V51  1  0.00005071  0.24964672  0.25025628  1
  V  V52  1  0.00132786  0.12544903  0.62477204  1
  V  V53  1  0.37418384  0.62551104  0.75032426  1
  V  V54  1  0.37420493  0.12370459  0.25005491  1
  V  V55  1  0.12397434  0.62549943  -0.00020366  1
  V  V56  1  -0.00091881  0.87294465  0.37433672  1
  V  V57  1  0.12538602  0.12433626  0.49981437  1
  V  V58  1  0.12560859  0.87584327  0.74909783  1
  V  V59  1  0.87533861  0.37479177  0.00128766  1
  V  V60  1  0.74889457  0.74868329  0.50098561  1
  V  V61  1  0.12569257  0.00013500  0.62467365  1
  V  V62  1  0.87382152  -0.00011991  0.37433386  1
  V  V63  1  0.12383919  0.50038557  0.62304734  1
  V  V64  1  0.87586376  0.00161690  0.87397587  1
  V  V65  1  0.87515519  0.25016068  0.12568655  1
  V  V66  1  0.62598057  0.25097824  0.87540978  1
  V  V67  1  0.12519318  0.49970591  0.12525097  1
  V  V68  1  0.74993394  0.00090907  0.74890168  1
  V  V69  1  0.37650481  0.25011388  0.12518677  1
  V  V70  1  0.12551741  0.12520311  0.00034880  1
  V  V71  1  0.62507443  0.75001933  0.87466877  1
  V  V72  1  0.87554006  0.12349692  0.25155735  1
  V  V73  1  0.25115908  0.25044430  0.00015614  1
  V  V74  1  0.87648942  0.12661055  0.74861365  1
  V  V75  1  0.87352455  0.62595084  0.24875864  1
  V  V76  1  0.00065555  0.87610778  0.87433026  1
  V  V77  1  0.75186276  0.25033403  0.00111628  1
  V  V78  1  0.50118960  0.24961726  0.25010670  1
  V  V79  1  0.37582178  0.12614771  0.75054356  1
  V  V80  1  0.62441682  0.50051104  0.12546152  1
  V  V81  1  -0.00216191  0.74954679  0.24891016  1
  V  V82  1  0.87572624  0.37420070  0.49981815  1
  V  V83  1  0.87515864  0.87413591  0.49938799  1
  V  V84  1  0.24920830  0.50021848  0.75005541  1
  V  V85  1  -0.00034402  0.75045182  0.74922597  1
  V  V86  1  0.24927665  0.87532208  0.12585986  1
  V  V87  1  -0.00155661  0.62591562  0.12455060  1
  V  V88  1  0.62442271  0.62365680  0.50061166  1
  V  V89  1  0.25139797  0.12626713  0.87493562  1
  V  V90  1  -0.00046471  0.50023546  -0.00002574  1
  V  V91  1  0.24906294  0.62555385  0.87524114  1
  V  V92  1  0.62286833  0.75012287  0.37533362  1
  V  V93  1  0.00069291  0.24987775  0.74959924  1
  V  V94  1  0.49985256  0.75136426  0.75110598  1
  V  V95  1  0.37529393  0.50051402  0.87492974  1
  Zn  Zn96  1  0.75029941  0.24727994  0.49874302  1
  Zn  Zn97  1  0.62443977  0.87620229  0.75072068  1
  Zn  Zn98  1  0.75041283  0.12422550  0.37574335  1
  Zn  Zn99  1  0.50060212  0.62469897  0.62553443  1
  Zn  Zn100  1  0.24464045  0.62429616  0.37070092  1
  Zn  Zn101  1  0.50362604  -0.00207420  0.00105751  1
  Zn  Zn102  1  0.37452288  -0.00179228  0.37372446  1
  Zn  Zn103  1  0.50080405  0.87578999  0.87740755  1
  Zn  Zn104  1  0.75109366  0.87780055  0.12461845  1
  Zn  Zn105  1  0.24960556  0.50278381  0.24993297  1
  Zn  Zn106  1  0.37383090  0.25048910  0.62545074  1
  Zn  Zn107  1  0.12198276  0.62449054  0.49651557  1
  Zn  Zn108  1  0.37156827  0.62557320  0.25030046  1
  Zn  Zn109  1  0.00067364  -0.00080391  0.50014709  1
  Zn  Zn110  1  0.87535783  0.24899706  0.62424967  1
  Zn  Zn111  1  0.62482809  0.37353243  0.25033566  1
  Zn  Zn112  1  0.49860137  0.87603287  0.37494967  1
  Zn  Zn113  1  0.12309479  0.74624443  0.37600594  1
  Zn  Zn114  1  0.74939721  0.37448356  0.12646194  1
  Zn  Zn115  1  0.25125391  -0.00053598  0.24994100  1
  Zn  Zn116  1  0.74969584  0.50098967  0.75192701  1
  Zn  Zn117  1  0.87293950  0.75214893  0.12362814  1
  Zn  Zn118  1  0.87524554  0.49991725  0.37496763  1
  Zn  Zn119  1  0.25096926  0.00102221  0.74960673  1
  Zn  Zn120  1  0.62658140  0.62498808  -0.00069730  1
  Zn  Zn121  1  0.74980624  0.62283771  0.87404170  1
  Zn  Zn122  1  0.12677387  0.00052177  0.12503162  1
  Zn  Zn123  1  -0.00037548  0.50169537  0.49698735  1
  Zn  Zn124  1  0.74876317  0.00020637  0.24770748  1
  Zn  Zn125  1  0.50100202  0.37577857  0.37290007  1
  Zn  Zn126  1  0.24990533  0.37371319  0.62577228  1
  Zn  Zn127  1  0.62747564  -0.00080030  0.12251482  1
  Zn  Zn128  1  0.18847107  0.18852336  0.18748343  1
  Zn  Zn129  1  0.18975771  0.18752843  0.68662311  1
  Zn  Zn130  1  0.18717294  0.68722218  0.18892366  1
  Zn  Zn131  1  0.18711964  0.68690625  0.68586972  1
  Zn  Zn132  1  0.68977003  0.18431751  0.18899706  1
  Zn  Zn133  1  0.68667395  0.18801387  0.68682992  1
  Zn  Zn134  1  0.68536759  0.68868777  0.18543818  1
  Zn  Zn135  1  0.68806202  0.68546189  0.68806987  1
  Zn  Zn136  1  0.31260922  0.31287480  0.31248416  1
  Zn  Zn137  1  0.31334641  0.31360490  0.81217147  1
  Zn  Zn138  1  0.31262136  0.81256907  0.31439941  1
  Zn  Zn139  1  0.31185293  0.81432592  0.81296020  1
  Zn  Zn140  1  0.81120829  0.31172068  0.31380507  1
  Zn  Zn141  1  0.81329126  0.31353690  0.81214581  1
  Zn  Zn142  1  0.81048202  0.81154711  0.31215307  1
  Zn  Zn143  1  0.81214343  0.81343483  0.81238348  1
  Zn  Zn144  1  0.18882536  0.43675918  0.43749707  1
  Zn  Zn145  1  0.18787857  0.43795490  0.93863227  1
  Zn  Zn146  1  0.18841692  0.93687087  0.43641312  1
  Zn  Zn147  1  0.18907582  0.93875247  0.93779969  1
  Zn  Zn148  1  0.68704429  0.43502400  0.43661289  1
  Zn  Zn149  1  0.68918127  0.43753496  0.93876120  1
  Zn  Zn150  1  0.68708584  0.93645291  0.43685397  1
  Zn  Zn151  1  0.68730676  0.93691035  0.93545000  1
  Zn  Zn152  1  0.31262637  0.06143220  0.06407481  1
  Zn  Zn153  1  0.31247550  0.06233150  0.56275830  1
  Zn  Zn154  1  0.31250955  0.56302751  0.06315717  1
  Zn  Zn155  1  0.31242358  0.56298710  0.56362380  1
  Zn  Zn156  1  0.81172212  0.06142634  0.06463657  1
  Zn  Zn157  1  0.81245582  0.06256504  0.56093804  1
  Zn  Zn158  1  0.81145957  0.56503359  0.06186056  1
  Zn  Zn159  1  0.81195031  0.55971638  0.56322279  1
  Zn  Zn160  1  0.43902150  0.43724819  0.18981768  1
  Zn  Zn161  1  0.43778708  0.43791992  0.68585954  1
  Zn  Zn162  1  0.43941878  0.93897489  0.18712241  1
  Zn  Zn163  1  0.43670744  0.93699605  0.68815682  1
  Zn  Zn164  1  0.93678970  0.43812998  0.18806987  1
  Zn  Zn165  1  0.93732704  0.43754238  0.68759659  1
  Zn  Zn166  1  0.93754317  0.93694106  0.18557772  1
  Zn  Zn167  1  0.93798513  0.93881702  0.68615626  1
  Zn  Zn168  1  0.06173374  0.05993680  0.31316584  1
  Zn  Zn169  1  0.06433649  0.06287944  0.81149288  1
  Zn  Zn170  1  0.06150841  0.56229591  0.31293158  1
  Zn  Zn171  1  0.06105724  0.56297974  0.81126109  1
  Zn  Zn172  1  0.55960778  0.06115552  0.31393149  1
  Zn  Zn173  1  0.56260711  0.06400966  0.81278031  1
  Zn  Zn174  1  0.55965193  0.56390770  0.31256918  1
  Zn  Zn175  1  0.56351051  0.56420455  0.81173403  1
  Zn  Zn176  1  0.43812435  0.18559231  0.43667208  1
  Zn  Zn177  1  0.43983529  0.18775167  0.93780068  1
  Zn  Zn178  1  0.43746199  0.68696129  0.43777256  1
  Zn  Zn179  1  0.43771416  0.68734416  0.93863748  1
  Zn  Zn180  1  0.93872273  0.18790853  0.43886052  1
  Zn  Zn181  1  0.93842526  0.18782641  0.93754154  1
  Zn  Zn182  1  0.93642704  0.68589090  0.43619267  1
  Zn  Zn183  1  0.93621936  0.68793185  0.93630055  1
  Zn  Zn184  1  0.06254294  0.31219517  0.06331127  1
  Zn  Zn185  1  0.06259758  0.31243471  0.56254303  1
  Zn  Zn186  1  0.06128652  0.81296955  0.06354248  1
  Zn  Zn187  1  0.06252975  0.81257218  0.56172589  1
  Zn  Zn188  1  0.56527612  0.31385320  0.06445817  1
  Zn  Zn189  1  0.56067853  0.31230505  0.56079736  1
  Zn  Zn190  1  0.56168615  0.81337362  0.06280130  1
  Zn  Zn191  1  0.56234040  0.81280116  0.56445257  1
  O  O192  1  0.11928921  0.12531386  0.11817095  1
  O  O193  1  0.12128954  0.11989346  0.61990227  1
  O  O194  1  0.11870330  0.62005772  0.11824047  1
  O  O195  1  0.11847165  0.61499255  0.62614213  1
  O  O196  1  0.61913698  0.12574067  0.11816004  1
  O  O197  1  0.61908211  0.11923510  0.62059336  1
  O  O198  1  0.61674875  0.61849364  0.12210215  1
  O  O199  1  0.62532305  0.61719431  0.61821535  1
  O  O200  1  0.37544641  0.38293762  0.38509497  1
  O  O201  1  0.38133898  0.38121248  0.88055211  1
  O  O202  1  0.37713092  0.87626543  0.38614594  1
  O  O203  1  0.37402449  0.88442383  0.88076092  1
  O  O204  1  0.87990634  0.37445020  0.38415418  1
  O  O205  1  0.88222760  0.37966334  0.88102251  1
  O  O206  1  0.87892062  0.88087034  0.37923746  1
  O  O207  1  0.88186658  0.88235112  0.87815424  1
  O  O208  1  0.25225241  0.00851087  0.37209619  1
  O  O209  1  0.26071101  0.00723823  0.87435233  1
  O  O210  1  0.26051310  0.50075226  0.37447603  1
  O  O211  1  0.25509044  0.50599632  0.87061841  1
  O  O212  1  0.76383580  -0.00063743  0.37371673  1
  O  O213  1  0.75652187  0.00676410  0.86861047  1
  O  O214  1  0.74895337  0.50588700  0.36491472  1
  O  O215  1  0.75883402  0.50126923  0.87329960  1
  O  O216  1  0.24303218  0.49281041  0.12348720  1
  O  O217  1  0.23986697  0.49973141  0.63215894  1
  O  O218  1  0.24688492  0.99120794  0.12774185  1
  O  O219  1  0.24351116  0.99319470  0.62697064  1
  O  O220  1  0.74353989  0.50149436  0.13400261  1
  O  O221  1  0.74373697  0.48731450  0.62616243  1
  O  O222  1  0.74608507  0.99578176  0.12924516  1
  O  O223  1  0.74509435  0.99520897  0.62997646  1
  O  O224  1  0.00486046  0.36861957  0.25487125  1
  O  O225  1  0.00575619  0.36968105  0.75648707  1
  O  O226  1  0.00640666  0.86918753  0.25344966  1
  O  O227  1  0.00516634  0.86979486  0.75488851  1
  O  O228  1  0.50229795  0.36446313  0.25243262  1
  O  O229  1  0.50520633  0.37087885  0.75554651  1
  O  O230  1  0.50833584  0.86797945  0.25135139  1
  O  O231  1  0.49999559  0.86198881  0.75317449  1
  O  O232  1  0.49430657  0.13096601  0.24320703  1
  O  O233  1  0.49555569  0.13155253  0.74556034  1
  O  O234  1  0.49715269  0.63250178  0.24262383  1
  O  O235  1  0.49303799  0.63575842  0.75006114  1
  O  O236  1  0.99599541  0.13048660  0.24494059  1
  O  O237  1  0.99624599  0.13068795  0.74526233  1
  O  O238  1  0.99362367  0.62985194  0.24377322  1
  O  O239  1  0.99446314  0.63188066  0.74429472  1
  O  O240  1  0.37085004  0.25627464  0.00465487  1
  O  O241  1  0.37050879  0.25924261  0.49885375  1
  O  O242  1  0.36850252  0.75565466  0.00452355  1
  O  O243  1  0.36862820  0.75481214  0.50708124  1
  O  O244  1  0.87165269  0.25485056  0.00532092  1
  O  O245  1  0.87276693  0.26117724  0.50244196  1
  O  O246  1  0.86590855  0.75714127  -0.00347381  1
  O  O247  1  0.86782564  0.75402588  0.50587554  1
  O  O248  1  0.13045026  0.24493338  0.49366162  1
  O  O249  1  0.13087667  0.24563969  0.99409344  1
  O  O250  1  0.13619920  0.74918388  0.50050133  1
  O  O251  1  0.12943848  0.74522077  0.99387047  1
  O  O252  1  0.62288642  0.24316556  0.49079834  1
  O  O253  1  0.63214233  0.24615748  0.99393703  1
  O  O254  1  0.63012649  0.74429703  0.49663238  1
  O  O255  1  0.63211890  0.75101009  0.99052480  1
  O  O256  1  0.49539620  0.24442362  0.12967110  1
  O  O257  1  0.49872568  0.24333827  0.63210792  1
  O  O258  1  0.49396309  0.74454731  0.12961111  1
  O  O259  1  0.49435588  0.74797143  0.63553849  1
  O  O260  1  0.99509013  0.24445086  0.13059372  1
  O  O261  1  1.00067819  0.24352830  0.63281324  1
  O  O262  1  0.99780964  0.74274946  0.13003744  1
  O  O263  1  0.99398472  0.74514700  0.63037757  1
  O  O264  1  0.00642012  0.25486998  0.36910476  1
  O  O265  1  0.00699113  0.25548046  0.87027772  1
  O  O266  1  -0.00133468  0.75618559  0.36681742  1
  O  O267  1  0.00565030  0.75633964  0.86918345  1
  O  O268  1  0.50943194  0.24873952  0.36867214  1
  O  O269  1  0.50640285  0.25692506  0.86991230  1
  O  O270  1  0.50619232  0.75058902  0.36892087  1
  O  O271  1  0.50702984  0.75030834  0.86777905  1
  O  O272  1  0.24495071  0.13050995  0.49410030  1
  O  O273  1  0.24571767  0.13197035  0.99528037  1
  O  O274  1  0.24871256  0.63727860  0.50164321  1
  O  O275  1  0.24347369  0.63054728  0.99439143  1
  O  O276  1  0.74122123  0.12746832  0.49818383  1
  O  O277  1  0.74682136  0.13154921  0.99313250  1
  O  O278  1  0.74481256  0.62902097  0.49527256  1
  O  O279  1  0.74890740  0.63757869  0.99529549  1
  O  O280  1  0.25618695  0.36975204  0.00465562  1
  O  O281  1  0.25910046  0.36842996  0.50073367  1
  O  O282  1  0.25437187  0.86897348  0.00510455  1
  O  O283  1  0.25550182  0.86642809  0.50625742  1
  O  O284  1  0.75815895  0.36767699  0.00168486  1
  O  O285  1  0.75744126  0.37302831  0.50811063  1
  O  O286  1  0.75651381  0.86623958  -0.00311225  1
  O  O287  1  0.75521581  0.86815407  0.50608949  1
  O  O288  1  0.12465436  0.49234324  0.24177699  1
  O  O289  1  0.12928957  0.49545636  0.74377715  1
  O  O290  1  0.12483475  0.98596929  0.24808587  1
  O  O291  1  0.12755792  0.99346199  0.74409464  1
  O  O292  1  0.63356821  0.50080878  0.24493444  1
  O  O293  1  0.62544206  0.49313887  0.74358554  1
  O  O294  1  0.62494095  0.98821308  0.25155782  1
  O  O295  1  0.63176747  1.00020151  0.74434428  1
  O  O296  1  0.37318173  0.00850881  0.25178804  1
  O  O297  1  0.37403747  0.00627661  0.76004264  1
  O  O298  1  0.37398673  0.49966856  0.26183531  1
  O  O299  1  0.37003069  0.50503809  0.75556221  1
  O  O300  1  0.87713830  0.00406717  0.26015747  1
  O  O301  1  0.87056562  0.00681731  0.75485339  1
  O  O302  1  0.86415247  0.50666545  0.24947180  1
  O  O303  1  0.87572328  0.50563134  0.75688013  1
  O  O304  1  0.11999349  0.36885924  0.37008112  1
  O  O305  1  0.12021415  0.37044410  0.87063103  1
  O  O306  1  0.11834612  0.87264901  0.36596522  1
  O  O307  1  0.12039413  0.87010351  0.86994258  1
  O  O308  1  0.62217719  0.36251441  0.37341735  1
  O  O309  1  0.62009077  0.37041923  0.86993371  1
  O  O310  1  0.62312150  0.86754630  0.36725981  1
  O  O311  1  0.62234531  0.86365252  0.87099687  1
  O  O312  1  0.38084779  0.13215464  0.12871220  1
  O  O313  1  0.38170146  0.12581781  0.63262866  1
  O  O314  1  0.38097174  0.63235215  0.12487042  1
  O  O315  1  0.37588555  0.63117698  0.63351197  1
  O  O316  1  0.88247109  0.13079994  0.13039646  1
  O  O317  1  0.88180063  0.12639804  0.63083939  1
  O  O318  1  0.88168165  0.62753603  0.13005726  1
  O  O319  1  0.87955632  0.62970125  0.63001673  1
  O  O320  1  0.25647651  0.25597310  0.11847722  1
  O  O321  1  0.25304838  0.25303146  0.61644976  1
  O  O322  1  0.25446712  0.75558965  0.11826670  1
  O  O323  1  0.25494990  0.75517415  0.61889046  1
  O  O324  1  0.75795749  0.25035359  0.11919845  1
  O  O325  1  0.75009657  0.26242765  0.62320361  1
  O  O326  1  0.74954786  0.75271977  0.11059528  1
  O  O327  1  0.75525683  0.75498909  0.62036890  1
  O  O328  1  0.24388233  0.24420447  0.38004706  1
  O  O329  1  0.24566167  0.24631977  0.88106671  1
  O  O330  1  0.24912383  0.74885422  0.38804831  1
  O  O331  1  0.24419925  0.74499818  0.88043402  1
  O  O332  1  0.73761434  0.24718369  0.37646943  1
  O  O333  1  0.74566979  0.24529298  0.88001372  1
  O  O334  1  0.74349106  0.74338285  0.38180591  1
  O  O335  1  0.74142839  0.75027794  0.88098743  1
  O  O336  1  0.00603873  0.12094733  0.00431699  1
  O  O337  1  0.00824174  0.12466702  0.50681167  1
  O  O338  1  0.00512806  0.62003520  0.00363018  1
  O  O339  1  -0.00011063  0.62217944  0.50885533  1
  O  O340  1  0.50820633  0.12663207  0.00640786  1
  O  O341  1  0.50457520  0.11844721  0.50715273  1
  O  O342  1  0.50084988  0.61817839  0.00619679  1
  O  O343  1  0.50699234  0.61876715  0.50303660  1
  O  O344  1  0.48972664  0.38087825  0.49792965  1
  O  O345  1  0.49534644  0.38045460  0.99447971  1
  O  O346  1  0.49245439  0.87986240  0.50219417  1
  O  O347  1  0.49082048  0.87686795  0.99764820  1
  O  O348  1  0.99121642  0.37482692  0.49504012  1
  O  O349  1  0.99564776  0.38022134  0.99489237  1
  O  O350  1  0.99225078  0.87437006  0.49325323  1
  O  O351  1  0.99604339  0.88046217  0.99265567  1
  O  O352  1  0.49064380  0.49830812  0.38170570  1
  O  O353  1  0.49471114  0.49578433  0.87971081  1
  O  O354  1  0.49615840  0.99718655  0.38648156  1
  O  O355  1  0.48813725  0.99959855  0.87644069  1
  O  O356  1  0.99626800  0.49022252  0.37635267  1
  O  O357  1  0.99622543  0.49425659  0.88106885  1
  O  O358  1  0.98943521  0.99234338  0.37690943  1
  O  O359  1  0.99554717  0.99580907  0.87919726  1
  O  O360  1  0.00188730  0.00721609  0.11689686  1
  O  O361  1  0.00720741  0.00703131  0.62336319  1
  O  O362  1  0.00526431  0.50540656  0.11887488  1
  O  O363  1  0.00987365  0.50502868  0.62618251  1
  O  O364  1  0.50331467  0.01061764  0.12167222  1
  O  O365  1  0.50571887  0.00506846  0.62182073  1
  O  O366  1  0.50480528  0.50487336  0.12031459  1
  O  O367  1  0.50673075  0.50177063  0.61845515  1
  O  O368  1  0.24299574  0.37544475  0.24250769  1
  O  O369  1  0.24376283  0.38223393  0.74994712  1
  O  O370  1  0.24009297  0.87309309  0.24502577  1
  O  O371  1  0.24282119  0.87530961  0.74322900  1
  O  O372  1  0.74970544  0.38773730  0.24914487  1
  O  O373  1  0.74426757  0.37545640  0.74084016  1
  O  O374  1  0.73749534  0.87366693  0.24865944  1
  O  O375  1  0.75019775  0.88306501  0.74333841  1
  O  O376  1  0.25607666  0.12550214  0.25542877  1
  O  O377  1  0.25715435  0.12534218  0.75793236  1
  O  O378  1  0.25395420  0.62111286  0.25195384  1
  O  O379  1  0.25440878  0.62075373  0.75661819  1
  O  O380  1  0.76098351  0.12140429  0.25484511  1
  O  O381  1  0.75592139  0.12127239  0.75480339  1
  O  O382  1  0.75280417  0.61867546  0.25417155  1
  O  O383  1  0.75917578  0.62210388  0.75211927  1
  O  O384  1  0.36795201  0.12509152  0.36778926  1
  O  O385  1  0.37118454  0.11897315  0.87148494  1
  O  O386  1  0.37230599  0.61298958  0.37579554  1
  O  O387  1  0.36814548  0.61983954  0.87076952  1
  O  O388  1  0.87753366  0.11538153  0.37089308  1
  O  O389  1  0.87068941  0.12085395  0.86904184  1
  O  O390  1  0.86642829  0.62273452  0.36765637  1
  O  O391  1  0.87664205  0.61789534  0.86777846  1
  O  O392  1  0.12989969  0.37965381  0.12921879  1
  O  O393  1  0.12508900  0.38444177  0.63193887  1
  O  O394  1  0.13005575  0.87511938  0.13378014  1
  O  O395  1  0.12895575  0.88015416  0.63041846  1
  O  O396  1  0.62883078  0.38430547  0.12905312  1
  O  O397  1  0.63174148  0.37906213  0.62852397  1
  O  O398  1  0.62544246  0.87573765  0.13641603  1
  O  O399  1  0.63218470  0.88150514  0.62778668  1
  O  O400  1  0.11927382  0.25579107  0.25505486  1
  O  O401  1  0.12100771  0.25543271  0.75625731  1
  O  O402  1  0.11766461  0.76051424  0.25032581  1
  O  O403  1  0.11939057  0.75530228  0.75509837  1
  O  O404  1  0.61976362  0.24786488  0.25863130  1
  O  O405  1  0.61945625  0.25600335  0.75616891  1
  O  O406  1  0.61903259  0.75656038  0.25529230  1
  O  O407  1  0.61674753  0.74990345  0.75677375  1
  O  O408  1  0.38044531  0.24461528  0.24400606  1
  O  O409  1  0.38255640  0.24475024  0.75050076  1
  O  O410  1  0.38130763  0.75068554  0.24309578  1
  O  O411  1  0.38121284  0.74538474  0.74749382  1
  O  O412  1  0.88135037  0.24461392  0.24605438  1
  O  O413  1  0.88292083  0.24419570  0.74950258  1
  O  O414  1  0.87907387  0.74356708  0.24706976  1
  O  O415  1  0.88069914  0.74547270  0.74452031  1
  O  O416  1  0.37837348  0.49316368  0.49433664  1
  O  O417  1  0.38046194  0.49471888  0.99411676  1
  O  O418  1  0.38084926  0.99160068  0.50203264  1
  O  O419  1  0.37575394  0.99557411  0.99072726  1
  O  O420  1  0.87598096  0.48631093  0.49862867  1
  O  O421  1  0.88112555  0.49501416  0.99560893  1
  O  O422  1  0.87695043  0.99303826  0.49122719  1
  O  O423  1  0.88133168  0.99674387  0.99213540  1
  O  O424  1  0.11886794  0.00754276  -0.00042124  1
  O  O425  1  0.12360914  0.00608853  0.50622337  1
  O  O426  1  0.11896976  0.50567088  0.00458729  1
  O  O427  1  0.12400358  0.49955679  0.51274309  1
  O  O428  1  0.62385528  0.00922528  -0.00179355  1
  O  O429  1  0.61953889  0.00404217  0.50648443  1
  O  O430  1  0.61891506  0.50133803  0.00634491  1
  O  O431  1  0.61979049  0.50395777  0.50397944  1
  O  O432  1  0.37083758  0.36990675  0.11905286  1
  O  O433  1  0.37249996  0.37525800  0.61230017  1
  O  O434  1  0.36923467  0.86942389  0.11962673  1
  O  O435  1  0.36868723  0.86882343  0.62058248  1
  O  O436  1  0.87499928  0.36801103  0.11863986  1
  O  O437  1  0.86730123  0.37355831  0.61844000  1
  O  O438  1  0.87381548  0.87251294  0.11431826  1
  O  O439  1  0.87001008  0.86920820  0.61997130  1
  O  O440  1  0.12940777  0.13034596  0.37926513  1
  O  O441  1  0.13108082  0.13149114  0.88003294  1
  O  O442  1  0.12659642  0.62812598  0.37944929  1
  O  O443  1  0.12907663  0.63077460  0.87978803  1
  O  O444  1  0.62493748  0.13237321  0.38114226  1
  O  O445  1  0.63144349  0.13232987  0.87925737  1
  O  O446  1  0.62964788  0.63056747  0.38122043  1
  O  O447  1  0.62671510  0.63748627  0.87676797  1
