# generated using pymatgen
data_V3Zn3O8
_symmetry_space_group_name_H-M   'P 1'
_cell_length_a   17.08853503
_cell_length_b   17.08777629
_cell_length_c   17.08813494
_cell_angle_alpha   90.01263457
_cell_angle_beta   90.00272974
_cell_angle_gamma   90.00793362
_symmetry_Int_Tables_number   1
_chemical_formula_structural   V3Zn3O8
_chemical_formula_sum   'V96 Zn96 O256'
_cell_volume   4989.82175978
_cell_formula_units_Z   32
loop_
 _symmetry_equiv_pos_site_id
 _symmetry_equiv_pos_as_xyz
  1  'x, y, z'
loop_
 _atom_site_type_symbol
 _atom_site_label
 _atom_site_symmetry_multiplicity
 _atom_site_fract_x
 _atom_site_fract_y
 _atom_site_fract_z
 _atom_site_occupancy
  V  V0  1  0.12564159  0.87618525  0.75009895  1
  V  V1  1  0.37540626  0.74909517  0.62423656  1
  V  V2  1  0.24946728  0.37623172  0.62381474  1
  V  V3  1  0.25016618  0.12440852  0.37414832  1
  V  V4  1  0.37388805  0.49949811  0.37343501  1
  V  V5  1  0.37415362  0.12483649  0.25024092  1
  V  V6  1  0.37429281  0.75057039  0.12397345  1
  V  V7  1  0.12516777  0.87434519  0.25042463  1
  V  V8  1  0.49965481  0.50041493  -0.00171468  1
  V  V9  1  0.12655934  -0.00035107  0.12576764  1
  V  V10  1  0.24930218  0.50053197  0.24846868  1
  V  V11  1  0.62434098  0.37399204  0.24990184  1
  V  V12  1  0.74780815  0.62506591  0.37786192  1
  V  V13  1  0.49953477  0.12512751  0.12591053  1
  V  V14  1  0.24959453  0.75010862  0.49995396  1
  V  V15  1  0.00001802  0.75052212  0.75048725  1
  V  V16  1  0.87545039  0.12323710  0.25125762  1
  V  V17  1  0.24920698  0.25027834  0.49964513  1
  V  V18  1  0.62608189  0.87497141  0.25078463  1
  V  V19  1  0.49891016  0.87417086  0.37567948  1
  V  V20  1  0.75106239  0.75110534  0.00261033  1
  V  V21  1  0.87431642  0.62367898  0.75140167  1
  V  V22  1  0.87532805  0.37384422  0.50038417  1
  V  V23  1  0.62428059  0.75099036  0.87547962  1
  V  V24  1  0.12680561  0.12643917  -0.00105403  1
  V  V25  1  0.12520584  0.12512299  0.50071807  1
  V  V26  1  0.62487198  0.24840166  0.37552529  1
  V  V27  1  0.74967294  0.37471537  0.62653143  1
  V  V28  1  0.24951408  0.12664828  0.87515760  1
  V  V29  1  0.62442524  0.50043006  0.62357955  1
  V  V30  1  0.62593101  -0.00058603  0.62619670  1
  V  V31  1  0.62558098  0.12528418  0.00106831  1
  V  V32  1  0.37404459  0.25131190  0.12300421  1
  V  V33  1  0.12532284  0.00058136  0.62557319  1
  V  V34  1  0.00047699  0.25061721  0.24990928  1
  V  V35  1  0.25021492  0.00027698  0.74959173  1
  V  V36  1  0.62412245  0.49955978  0.12489479  1
  V  V37  1  0.12437560  0.50104588  0.12342970  1
  V  V38  1  0.49965680  0.75014523  0.25015713  1
  V  V39  1  -0.00000206  0.50042489  -0.00015564  1
  V  V40  1  0.62565932  0.62565531  0.00028873  1
  V  V41  1  0.62669497  0.24940645  0.87574149  1
  V  V42  1  0.62469780  0.12540960  0.49901623  1
  V  V43  1  0.62508292  -0.00036958  0.12675974  1
  V  V44  1  0.00015006  0.37457148  0.87392861  1
  V  V45  1  0.12430524  0.75013088  0.37538602  1
  V  V46  1  0.87615056  0.62648043  0.24796039  1
  V  V47  1  0.25037344  0.75092220  -0.00038324  1
  V  V48  1  0.74929061  0.74943529  0.50111566  1
  V  V49  1  0.49934375  -0.00048101  -0.00042868  1
  V  V50  1  -0.00025396  0.37451033  0.37389997  1
  V  V51  1  0.37668819  0.00010734  0.87538852  1
  V  V52  1  0.25065176  0.62524607  0.87342739  1
  V  V53  1  0.87467086  0.00061086  0.37494665  1
  V  V54  1  0.12575573  0.75044374  0.87450616  1
  V  V55  1  0.37509428  0.87389565  0.50013676  1
  V  V56  1  0.49970566  0.24982289  0.24925146  1
  V  V57  1  0.49865206  -0.00136412  0.50039640  1
  V  V58  1  0.37515259  0.62559714  0.74883571  1
  V  V59  1  0.00110013  0.12511259  0.12501339  1
  V  V60  1  0.25005110  0.87496422  0.12500281  1
  V  V61  1  0.50104603  0.25033641  0.74991783  1
  V  V62  1  0.87532820  0.87547542  0.50075988  1
  V  V63  1  0.87466696  0.87450372  0.00216940  1
  V  V64  1  0.50024434  0.37568666  0.87436663  1
  V  V65  1  0.00031392  0.87574281  0.87632814  1
  V  V66  1  0.87450361  0.00116595  0.87584327  1
  V  V67  1  0.87643856  0.24847155  0.62535905  1
  V  V68  1  0.74903489  0.87630293  0.62705955  1
  V  V69  1  0.74895624  0.49895125  0.25059536  1
  V  V70  1  0.12394834  0.62488422  -0.00082831  1
  V  V71  1  0.87466573  0.12376930  0.75118706  1
  V  V72  1  0.12369622  0.62590345  0.49974098  1
  V  V73  1  0.37446386  0.37641616  0.49851662  1
  V  V74  1  0.75038341  0.62468917  0.87584345  1
  V  V75  1  0.50034513  0.12503377  0.62457866  1
  V  V76  1  0.37574535  0.25105493  0.62429454  1
  V  V77  1  0.37608051  0.50084563  0.87342705  1
  V  V78  1  0.00070840  0.87411096  0.37506088  1
  V  V79  1  0.87515647  0.24981650  0.12482106  1
  V  V80  1  0.75039314  0.37377249  0.12448327  1
  V  V81  1  0.12370498  0.37560237  0.24893505  1
  V  V82  1  0.12412040  0.50053909  0.62345884  1
  V  V83  1  0.87394517  0.49813277  0.37572800  1
  V  V84  1  0.50182981  0.75069564  0.74965754  1
  V  V85  1  0.37389653  0.62417134  0.24947582  1
  V  V86  1  0.25068860  0.37472836  0.12265285  1
  V  V87  1  0.49983260  0.62510900  0.12470265  1
  V  V88  1  0.87490294  0.75076573  0.62636821  1
  V  V89  1  0.00097306  0.00054207  0.50102244  1
  V  V90  1  0.00041140  0.00024893  0.00069487  1
  V  V91  1  0.49870809  0.37518102  0.37457909  1
  V  V92  1  0.87533184  0.37483911  0.00018492  1
  V  V93  1  0.37493352  0.12510278  0.74925616  1
  V  V94  1  0.12511535  0.37525546  0.74968389  1
  V  V95  1  -0.00035228  0.50051445  0.50022657  1
  Zn  Zn96  1  0.00018719  0.74924841  0.24800247  1
  Zn  Zn97  1  0.50053610  0.87562073  0.87684023  1
  Zn  Zn98  1  0.49950523  0.50200575  0.49912080  1
  Zn  Zn99  1  0.74973387  0.12397721  0.37516942  1
  Zn  Zn100  1  0.75003900  0.24717161  0.49786517  1
  Zn  Zn101  1  0.62327270  0.74894116  0.37766462  1
  Zn  Zn102  1  0.12779607  0.25086530  0.87533462  1
  Zn  Zn103  1  0.75079744  0.12393820  0.87801427  1
  Zn  Zn104  1  -0.00067124  0.62652928  0.12397944  1
  Zn  Zn105  1  0.74898080  0.49949981  0.75245544  1
  Zn  Zn106  1  0.75068072  0.00015350  0.25114373  1
  Zn  Zn107  1  0.87643848  0.75170705  0.12619134  1
  Zn  Zn108  1  0.00134797  0.24843018  0.75079005  1
  Zn  Zn109  1  0.25087361  0.25239703  -0.00279280  1
  Zn  Zn110  1  0.75143050  0.24875572  0.00003428  1
  Zn  Zn111  1  0.62158391  0.62557729  0.50031762  1
  Zn  Zn112  1  0.25132268  0.50163401  0.74838635  1
  Zn  Zn113  1  0.25155475  -0.00088422  0.25004422  1
  Zn  Zn114  1  -0.00072329  0.62557327  0.62532101  1
  Zn  Zn115  1  0.37370830  0.37453499  -0.00224602  1
  Zn  Zn116  1  0.62622457  0.37596531  0.75078067  1
  Zn  Zn117  1  0.75279983  0.87502619  0.12776538  1
  Zn  Zn118  1  0.37463346  -0.00131141  0.37419498  1
  Zn  Zn119  1  0.25057509  0.87518174  0.62510586  1
  Zn  Zn120  1  0.50070469  0.62333391  0.62121610  1
  Zn  Zn121  1  0.62633129  0.87743944  0.75292577  1
  Zn  Zn122  1  0.74763697  -0.00127370  0.75352009  1
  Zn  Zn123  1  0.00078771  0.12546594  0.62548760  1
  Zn  Zn124  1  0.24860105  0.62481647  0.37375976  1
  Zn  Zn125  1  0.37611347  0.87522114  -0.00088247  1
  Zn  Zn126  1  0.87204711  0.49839340  0.87503662  1
  Zn  Zn127  1  0.12406889  0.25064336  0.37497450  1
  Zn  Zn128  1  0.18782726  0.18940240  0.18664323  1
  Zn  Zn129  1  0.18825277  0.18840685  0.68707740  1
  Zn  Zn130  1  0.18670197  0.68808334  0.18690886  1
  Zn  Zn131  1  0.18817838  0.68775438  0.68553205  1
  Zn  Zn132  1  0.68947809  0.18603513  0.18914607  1
  Zn  Zn133  1  0.68908869  0.18602050  0.68838812  1
  Zn  Zn134  1  0.68852766  0.68914414  0.18751732  1
  Zn  Zn135  1  0.68769380  0.68692621  0.68738538  1
  Zn  Zn136  1  0.31104106  0.31196034  0.31047893  1
  Zn  Zn137  1  0.31269683  0.31327199  0.81169199  1
  Zn  Zn138  1  0.31140223  0.81146671  0.31296446  1
  Zn  Zn139  1  0.31433404  0.81445049  0.81244952  1
  Zn  Zn140  1  0.81133351  0.30936136  0.31209509  1
  Zn  Zn141  1  0.81282494  0.31060390  0.81173212  1
  Zn  Zn142  1  0.81192183  0.81147579  0.31530891  1
  Zn  Zn143  1  0.81131735  0.81273963  0.81451609  1
  Zn  Zn144  1  0.18673479  0.43868677  0.43561240  1
  Zn  Zn145  1  0.18915999  0.43923759  0.93663125  1
  Zn  Zn146  1  0.18826910  0.93720877  0.43830755  1
  Zn  Zn147  1  0.18919651  0.93882643  0.93788813  1
  Zn  Zn148  1  0.68704525  0.43523800  0.43994727  1
  Zn  Zn149  1  0.68827308  0.43717400  0.93804356  1
  Zn  Zn150  1  0.68792264  0.93811810  0.43760190  1
  Zn  Zn151  1  0.68807009  0.93678497  0.93812538  1
  Zn  Zn152  1  0.31236947  0.06298198  0.06175665  1
  Zn  Zn153  1  0.31248196  0.06155396  0.56210369  1
  Zn  Zn154  1  0.31210908  0.56249190  0.06037035  1
  Zn  Zn155  1  0.31114040  0.56381560  0.56118484  1
  Zn  Zn156  1  0.81007156  0.06114300  0.06436473  1
  Zn  Zn157  1  0.81030211  0.06233327  0.56202755  1
  Zn  Zn158  1  0.81228705  0.56076628  0.06222313  1
  Zn  Zn159  1  0.81193669  0.56199168  0.56455638  1
  Zn  Zn160  1  0.43644697  0.43705512  0.18645971  1
  Zn  Zn161  1  0.43920584  0.43751493  0.68806135  1
  Zn  Zn162  1  0.43663075  0.93813513  0.18798671  1
  Zn  Zn163  1  0.43795611  0.93563643  0.68719084  1
  Zn  Zn164  1  0.93732783  0.43926865  0.18635983  1
  Zn  Zn165  1  0.93818165  0.43864190  0.68716680  1
  Zn  Zn166  1  0.93914153  0.93700009  0.18835669  1
  Zn  Zn167  1  0.93784861  0.93868552  0.68771331  1
  Zn  Zn168  1  0.06344336  0.06122251  0.31295307  1
  Zn  Zn169  1  0.06173942  0.06332447  0.81253252  1
  Zn  Zn170  1  0.06186579  0.56222865  0.31354611  1
  Zn  Zn171  1  0.06157038  0.56143663  0.81245475  1
  Zn  Zn172  1  0.56070418  0.06079487  0.31409511  1
  Zn  Zn173  1  0.56250084  0.06328610  0.81264154  1
  Zn  Zn174  1  0.56105552  0.56162427  0.31242147  1
  Zn  Zn175  1  0.56423001  0.56337835  0.80932409  1
  Zn  Zn176  1  0.43720358  0.18788277  0.43745331  1
  Zn  Zn177  1  0.43772014  0.18728457  0.93832622  1
  Zn  Zn178  1  0.43753159  0.68555379  0.43724905  1
  Zn  Zn179  1  0.43751323  0.68751149  0.93636900  1
  Zn  Zn180  1  0.93841620  0.18696239  0.43742430  1
  Zn  Zn181  1  0.93975309  0.18896407  0.93769955  1
  Zn  Zn182  1  0.93746259  0.68776985  0.43701161  1
  Zn  Zn183  1  0.93710989  0.68843440  0.93744769  1
  Zn  Zn184  1  0.06389709  0.31190096  0.06114461  1
  Zn  Zn185  1  0.06196991  0.31206801  0.56185945  1
  Zn  Zn186  1  0.06080738  0.81036143  0.06509949  1
  Zn  Zn187  1  0.06261654  0.81321563  0.56399593  1
  Zn  Zn188  1  0.56083806  0.31299446  0.06069798  1
  Zn  Zn189  1  0.56229843  0.31356782  0.56043116  1
  Zn  Zn190  1  0.56225600  0.81410834  0.06303252  1
  Zn  Zn191  1  0.56399088  0.81207752  0.56348262  1
  O  O192  1  0.12004318  0.11968072  0.12011312  1
  O  O193  1  0.12385695  0.11931240  0.61911151  1
  O  O194  1  0.12450492  0.61826779  0.11682819  1
  O  O195  1  0.12192310  0.61885677  0.61858609  1
  O  O196  1  0.61808423  0.12055877  0.12201664  1
  O  O197  1  0.61904614  0.12064141  0.61973567  1
  O  O198  1  0.61973584  0.61892206  0.12096522  1
  O  O199  1  0.62718272  0.61249695  0.62297319  1
  O  O200  1  0.37897057  0.37913740  0.37814175  1
  O  O201  1  0.38225056  0.38247565  0.87437771  1
  O  O202  1  0.38125453  0.87531332  0.38151132  1
  O  O203  1  0.37777891  0.88482119  0.87763956  1
  O  O204  1  0.87910625  0.37915828  0.37974600  1
  O  O205  1  0.88392499  0.37519397  0.87931520  1
  O  O206  1  0.88069663  0.87970334  0.38164507  1
  O  O207  1  0.88162628  0.88052611  0.88132387  1
  O  O208  1  0.25193833  0.01335621  0.37480325  1
  O  O209  1  0.25602338  0.00687612  0.86877238  1
  O  O210  1  0.25589913  0.50062077  0.36583239  1
  O  O211  1  0.25734036  0.50793530  0.87226563  1
  O  O212  1  0.75962226  0.00151452  0.37307676  1
  O  O213  1  0.75894698  0.00304499  0.87395283  1
  O  O214  1  0.75443382  0.50522661  0.37079580  1
  O  O215  1  0.75166049  0.50804621  0.87270130  1
  O  O216  1  0.24423734  0.49499300  0.12904240  1
  O  O217  1  0.24237505  0.49296528  0.62536885  1
  O  O218  1  0.24351501  0.99352727  0.12562928  1
  O  O219  1  0.24376023  0.99914112  0.63219054  1
  O  O220  1  0.74309094  0.49379172  0.13069578  1
  O  O221  1  0.74397528  0.48965059  0.62623771  1
  O  O222  1  0.74022575  0.99609731  0.12997208  1
  O  O223  1  0.74354187  0.99318921  0.62623222  1
  O  O224  1  0.00379645  0.37094248  0.25432724  1
  O  O225  1  0.00749400  0.37600655  0.75770180  1
  O  O226  1  0.00730385  0.87349010  0.25811549  1
  O  O227  1  0.00518399  0.87049579  0.75710908  1
  O  O228  1  0.50536137  0.36936326  0.25405400  1
  O  O229  1  0.50250173  0.36677227  0.75644506  1
  O  O230  1  0.50657333  0.86960215  0.25506665  1
  O  O231  1  0.50139987  0.86149959  0.75201140  1
  O  O232  1  0.49443112  0.13077799  0.24517568  1
  O  O233  1  0.49374728  0.13102316  0.74343955  1
  O  O234  1  0.49471921  0.62962727  0.24375715  1
  O  O235  1  0.49413754  0.63608052  0.74826140  1
  O  O236  1  0.99633216  0.13044975  0.24423476  1
  O  O237  1  0.98867379  0.12765372  0.74770906  1
  O  O238  1  0.98659608  0.62356833  0.25092831  1
  O  O239  1  0.99073306  0.63158369  0.75069726  1
  O  O240  1  0.37404196  0.25252992  0.00834570  1
  O  O241  1  0.36936664  0.25623201  0.50550637  1
  O  O242  1  0.36825163  0.74978093  0.00628524  1
  O  O243  1  0.36977358  0.75437615  0.50474073  1
  O  O244  1  0.87551719  0.25676147  0.00759274  1
  O  O245  1  0.87449052  0.25475048  0.50945829  1
  O  O246  1  0.86850419  0.75649506  -0.00023679  1
  O  O247  1  0.86997752  0.75570763  0.50608887  1
  O  O248  1  0.13161015  0.24408917  0.49890443  1
  O  O249  1  0.12812954  0.24130763  0.99766018  1
  O  O250  1  0.12907162  0.74585038  0.49571666  1
  O  O251  1  0.13018037  0.74506173  0.99333290  1
  O  O252  1  0.62399511  0.24312852  0.49313880  1
  O  O253  1  0.62364257  0.24439737  0.99065269  1
  O  O254  1  0.63436763  0.74722217  0.49814710  1
  O  O255  1  0.62968002  0.74397109  0.99626114  1
  O  O256  1  0.49521468  0.24491119  0.13052676  1
  O  O257  1  0.49490337  0.24522409  0.62957159  1
  O  O258  1  0.49449940  0.74373151  0.12995528  1
  O  O259  1  0.49510742  0.74797034  0.63422559  1
  O  O260  1  0.99471806  0.24497021  0.13036676  1
  O  O261  1  0.98700733  0.25025470  0.62671757  1
  O  O262  1  0.99520055  0.74371912  0.12960629  1
  O  O263  1  0.99269667  0.74963614  0.63286501  1
  O  O264  1  0.00080886  0.25730854  0.36814378  1
  O  O265  1  0.00382451  0.26408800  0.87331238  1
  O  O266  1  0.00630208  0.75726308  0.37455096  1
  O  O267  1  0.00663954  0.75648901  0.87023398  1
  O  O268  1  0.50403054  0.25571761  0.36816787  1
  O  O269  1  0.50777372  0.25459194  0.86998441  1
  O  O270  1  0.50145511  0.75570849  0.36740420  1
  O  O271  1  0.50566394  0.74941622  0.86627960  1
  O  O272  1  0.24600642  0.13062919  0.49292360  1
  O  O273  1  0.24365000  0.12550616  0.99254742  1
  O  O274  1  0.24167411  0.63218221  0.49722610  1
  O  O275  1  0.24368924  0.63113412  0.99322535  1
  O  O276  1  0.74015314  0.12716664  0.49760630  1
  O  O277  1  0.74136951  0.12904447  0.99930636  1
  O  O278  1  0.75193629  0.62939411  0.49042667  1
  O  O279  1  0.74457755  0.62997652  0.99591675  1
  O  O280  1  0.25257177  0.37431821  0.00717236  1
  O  O281  1  0.25414200  0.36955830  0.50406670  1
  O  O282  1  0.25093047  0.86808711  0.00659393  1
  O  O283  1  0.25676325  0.86833702  0.50145128  1
  O  O284  1  0.75682259  0.37321480  0.00730212  1
  O  O285  1  0.75714438  0.37188107  0.51068611  1
  O  O286  1  0.75700231  0.86812946  0.00189340  1
  O  O287  1  0.75641927  0.86943846  0.50596292  1
  O  O288  1  0.12906644  0.49531329  0.24378976  1
  O  O289  1  0.12536420  0.49022243  0.74345173  1
  O  O290  1  0.12710167  0.99299055  0.24327240  1
  O  O291  1  0.13006524  0.99563066  0.74563542  1
  O  O292  1  0.62937303  0.49371520  0.24440205  1
  O  O293  1  0.62851273  0.49672274  0.73881768  1
  O  O294  1  0.62259468  0.98978197  0.24568245  1
  O  O295  1  0.62632533  0.99946238  0.74195388  1
  O  O296  1  0.37221288  0.00910361  0.25302376  1
  O  O297  1  0.37075389  0.00632338  0.75387570  1
  O  O298  1  0.36898737  0.50483306  0.25316047  1
  O  O299  1  0.37497622  0.50764153  0.75550467  1
  O  O300  1  0.87689816  0.00584979  0.25745001  1
  O  O301  1  0.87578133  0.00902118  0.75652873  1
  O  O302  1  0.86814070  0.50593709  0.25600469  1
  O  O303  1  0.87406229  0.51260886  0.75084164  1
  O  O304  1  0.11757130  0.37457086  0.36709904  1
  O  O305  1  0.11822757  0.37641361  0.86578135  1
  O  O306  1  0.12011971  0.87034527  0.37077414  1
  O  O307  1  0.11997881  0.87049732  0.87003902  1
  O  O308  1  0.61916450  0.36983995  0.36886603  1
  O  O309  1  0.61987624  0.36555860  0.87437223  1
  O  O310  1  0.61812327  0.87398263  0.36618090  1
  O  O311  1  0.62235729  0.86637774  0.87320095  1
  O  O312  1  0.38010628  0.13089324  0.13085068  1
  O  O313  1  0.38027740  0.13139602  0.62934544  1
  O  O314  1  0.38052442  0.62998203  0.12967417  1
  O  O315  1  0.37585116  0.63122758  0.63123894  1
  O  O316  1  0.88245776  0.12934943  0.13006143  1
  O  O317  1  0.87530577  0.13280360  0.63211870  1
  O  O318  1  0.87390590  0.62313960  0.13800806  1
  O  O319  1  0.87494655  0.63166186  0.63524170  1
  O  O320  1  0.25701241  0.25733479  0.12418341  1
  O  O321  1  0.25648007  0.25618920  0.61922660  1
  O  O322  1  0.25481077  0.75494659  0.11876015  1
  O  O323  1  0.25679881  0.75251713  0.61805372  1
  O  O324  1  0.75718737  0.25712820  0.12526558  1
  O  O325  1  0.75990654  0.25765253  0.62444062  1
  O  O326  1  0.75316109  0.75238428  0.11703515  1
  O  O327  1  0.75610596  0.75577393  0.62041674  1
  O  O328  1  0.24844194  0.24060642  0.38060343  1
  O  O329  1  0.24881447  0.24209091  0.87541312  1
  O  O330  1  0.24217686  0.74801097  0.38206662  1
  O  O331  1  0.24481583  0.74536467  0.87940638  1
  O  O332  1  0.74048012  0.24759724  0.37712139  1
  O  O333  1  0.73793865  0.24923435  0.87677130  1
  O  O334  1  0.74914861  0.73942799  0.38215015  1
  O  O335  1  0.74406580  0.74404707  0.88244971  1
  O  O336  1  0.00596169  0.11956097  0.00565974  1
  O  O337  1  0.00752021  0.11834668  0.50114742  1
  O  O338  1  0.00655874  0.61796264  -0.00219540  1
  O  O339  1  0.00452647  0.61807188  0.50136158  1
  O  O340  1  0.50596092  0.11958920  0.00710560  1
  O  O341  1  0.50367475  0.11959726  0.50620135  1
  O  O342  1  0.50640186  0.62036308  0.00547823  1
  O  O343  1  0.50386138  0.62016830  0.50238570  1
  O  O344  1  0.49150527  0.37583120  0.49181220  1
  O  O345  1  0.49871645  0.38347368  0.99264465  1
  O  O346  1  0.49488545  0.87865896  0.49527177  1
  O  O347  1  0.49733918  0.88416576  0.99914661  1
  O  O348  1  0.99465522  0.38048674  0.49389496  1
  O  O349  1  0.99644721  0.38015714  0.99201530  1
  O  O350  1  0.99468577  0.88063326  0.49515109  1
  O  O351  1  0.99587696  0.88080804  0.99481763  1
  O  O352  1  0.49216017  0.49172766  0.37328610  1
  O  O353  1  0.49681417  0.49611946  0.87879340  1
  O  O354  1  0.49711243  0.99258019  0.38336230  1
  O  O355  1  0.49406507  1.00105864  0.88157726  1
  O  O356  1  0.99294812  0.49339434  0.38041869  1
  O  O357  1  0.99874087  0.48868590  0.88041457  1
  O  O358  1  0.99561500  0.99355231  0.38196394  1
  O  O359  1  0.99513079  0.99447513  0.88161358  1
  O  O360  1  0.00688751  0.00589763  0.11945832  1
  O  O361  1  0.00697408  0.00128013  0.61824732  1
  O  O362  1  0.00693401  0.50169890  0.11737398  1
  O  O363  1  0.00589145  0.50122193  0.61714302  1
  O  O364  1  0.50488187  0.00673144  0.12032647  1
  O  O365  1  0.50506919  0.00567584  0.62013919  1
  O  O366  1  0.50513651  0.50560643  0.11975677  1
  O  O367  1  0.51175515  0.49898554  0.62303791  1
  O  O368  1  0.24358679  0.38078527  0.24314681  1
  O  O369  1  0.24082521  0.37725722  0.74305586  1
  O  O370  1  0.24334001  0.87601041  0.24344179  1
  O  O371  1  0.24310724  0.88250723  0.74969462  1
  O  O372  1  0.74430868  0.38016186  0.24480829  1
  O  O373  1  0.75039093  0.37608268  0.73772347  1
  O  O374  1  0.73726903  0.87474130  0.25127803  1
  O  O375  1  0.74895907  0.87658218  0.74189148  1
  O  O376  1  0.25455982  0.12569558  0.25935723  1
  O  O377  1  0.25598633  0.12007779  0.75442063  1
  O  O378  1  0.25615410  0.61799123  0.24934349  1
  O  O379  1  0.25628748  0.62501912  0.75632687  1
  O  O380  1  0.75996479  0.12208434  0.25311136  1
  O  O381  1  0.76366096  0.12305944  0.75289267  1
  O  O382  1  0.75597037  0.61903818  0.25844745  1
  O  O383  1  0.76086414  0.62690872  0.75684491  1
  O  O384  1  0.36556054  0.12560541  0.36969155  1
  O  O385  1  0.37063527  0.12027406  0.86792235  1
  O  O386  1  0.37260359  0.61782303  0.36621991  1
  O  O387  1  0.36987574  0.62068649  0.86855049  1
  O  O388  1  0.87641508  0.11817910  0.36897321  1
  O  O389  1  0.87610133  0.12101444  0.86756153  1
  O  O390  1  0.86572638  0.61849447  0.36862859  1
  O  O391  1  0.86955165  0.62487763  0.86598495  1
  O  O392  1  0.12972745  0.38159019  0.12966016  1
  O  O393  1  0.12892365  0.38022514  0.63094899  1
  O  O394  1  0.13006668  0.87979062  0.13022365  1
  O  O395  1  0.12659416  0.88205861  0.63287170  1
  O  O396  1  0.62926424  0.37978369  0.13036489  1
  O  O397  1  0.63469558  0.37965007  0.62528553  1
  O  O398  1  0.62340647  0.88072393  0.13684063  1
  O  O399  1  0.63175805  0.88197397  0.62682631  1
  O  O400  1  0.11746582  0.25785225  0.25013245  1
  O  O401  1  0.12266494  0.26367922  0.74878148  1
  O  O402  1  0.12409181  0.75598006  0.25738093  1
  O  O403  1  0.12002017  0.75563912  0.75538473  1
  O  O404  1  0.61834337  0.25509291  0.25435719  1
  O  O405  1  0.61958629  0.24915136  0.75950955  1
  O  O406  1  0.61824285  0.75882000  0.25089206  1
  O  O407  1  0.61617663  0.74872398  0.75567469  1
  O  O408  1  0.38104174  0.24490207  0.24351778  1
  O  O409  1  0.38067438  0.24473153  0.74320551  1
  O  O410  1  0.37987592  0.74397994  0.24356236  1
  O  O411  1  0.38257157  0.74555371  0.74544677  1
  O  O412  1  0.88174628  0.24459452  0.24412199  1
  O  O413  1  0.87668761  0.24196628  0.74176005  1
  O  O414  1  0.87465222  0.73752219  0.25157813  1
  O  O415  1  0.88052050  0.74277511  0.74691075  1
  O  O416  1  0.37355816  0.49279840  0.49183572  1
  O  O417  1  0.38294410  0.50105057  0.99165895  1
  O  O418  1  0.38167954  0.99266548  0.50001527  1
  O  O419  1  0.38218845  1.00105407  0.99340430  1
  O  O420  1  0.87948210  0.49388687  0.49538988  1
  O  O421  1  0.88164690  0.49264067  0.99854916  1
  O  O422  1  0.88123033  0.99454184  0.49589411  1
  O  O423  1  0.88181344  0.99574355  0.99577557  1
  O  O424  1  0.11927655  0.00572661  0.00541536  1
  O  O425  1  0.12075244  0.00505842  0.50590538  1
  O  O426  1  0.11984130  0.50582148  0.00392624  1
  O  O427  1  0.11902968  0.50515677  0.50384319  1
  O  O428  1  0.61906963  0.00573243  0.00630229  1
  O  O429  1  0.61778335  0.00491037  0.50605224  1
  O  O430  1  0.61973487  0.50610374  0.00591820  1
  O  O431  1  0.62409947  0.49972416  0.51093169  1
  O  O432  1  0.36875895  0.36922252  0.12363382  1
  O  O433  1  0.36940382  0.37044507  0.61947124  1
  O  O434  1  0.36840844  0.86774851  0.12446398  1
  O  O435  1  0.37384814  0.86720181  0.61819785  1
  O  O436  1  0.87026981  0.36992640  0.12061808  1
  O  O437  1  0.86892880  0.36822637  0.62139593  1
  O  O438  1  0.87406287  0.87412903  0.11745601  1
  O  O439  1  0.86998557  0.87036589  0.61987827  1
  O  O440  1  0.13430518  0.12682925  0.38094044  1
  O  O441  1  0.13103385  0.12632746  0.88000007  1
  O  O442  1  0.12503975  0.63130213  0.38175886  1
  O  O443  1  0.13018916  0.63078607  0.87877083  1
  O  O444  1  0.62295103  0.13096859  0.38116305  1
  O  O445  1  0.62452145  0.13504932  0.88133580  1
  O  O446  1  0.63809443  0.62407915  0.37456936  1
  O  O447  1  0.63048714  0.63067879  0.88129142  1
