# generated using pymatgen
data_V3Zn3O8
_symmetry_space_group_name_H-M   'P 1'
_cell_length_a   17.08870147
_cell_length_b   17.08658933
_cell_length_c   17.08614577
_cell_angle_alpha   89.97686182
_cell_angle_beta   90.01843615
_cell_angle_gamma   90.01625332
_symmetry_Int_Tables_number   1
_chemical_formula_structural   V3Zn3O8
_chemical_formula_sum   'V96 Zn96 O256'
_cell_volume   4988.94224803
_cell_formula_units_Z   32
loop_
 _symmetry_equiv_pos_site_id
 _symmetry_equiv_pos_as_xyz
  1  'x, y, z'
loop_
 _atom_site_type_symbol
 _atom_site_label
 _atom_site_symmetry_multiplicity
 _atom_site_fract_x
 _atom_site_fract_y
 _atom_site_fract_z
 _atom_site_occupancy
  V  V0  1  0.49970506  0.12578219  0.62563347  1
  V  V1  1  0.87646036  0.37500638  -0.00012986  1
  V  V2  1  0.62352416  0.25090832  0.37546571  1
  V  V3  1  0.12472900  0.74887826  0.87402273  1
  V  V4  1  0.12473071  0.50055839  0.62392390  1
  V  V5  1  0.75038956  0.00104859  0.25073709  1
  V  V6  1  0.87450219  0.25043326  0.62593270  1
  V  V7  1  -0.00012437  0.87654253  0.37536207  1
  V  V8  1  0.87534149  0.87487206  0.49957364  1
  V  V9  1  0.50141948  0.62544829  0.12372760  1
  V  V10  1  0.00054456  0.12351163  0.62421882  1
  V  V11  1  0.87506380  0.62570391  0.25024353  1
  V  V12  1  0.00024717  0.74887632  0.75006301  1
  V  V13  1  0.37576655  0.25066030  0.12582351  1
  V  V14  1  0.50009072  0.25013554  0.75055157  1
  V  V15  1  0.75002121  0.62532691  0.87580133  1
  V  V16  1  0.62525594  0.87654043  0.24950045  1
  V  V17  1  0.62447820  0.62477306  0.49995406  1
  V  V18  1  0.50049109  0.00020070  0.49943229  1
  V  V19  1  0.37478936  0.49945344  0.87470463  1
  V  V20  1  0.37498923  0.50172352  0.37451351  1
  V  V21  1  0.12453316  0.37571032  0.24960814  1
  V  V22  1  0.87488927  -0.00177348  0.87405165  1
  V  V23  1  0.24956207  0.87503534  0.12423650  1
  V  V24  1  0.50004617  0.87662123  0.37499282  1
  V  V25  1  -0.00030513  0.75011782  0.25011264  1
  V  V26  1  0.62631547  0.74843535  0.87529971  1
  V  V27  1  0.87516495  0.87284162  0.00054977  1
  V  V28  1  0.24914617  0.62486339  0.87600509  1
  V  V29  1  0.87462761  0.37638304  0.49902849  1
  V  V30  1  0.25056186  0.62612335  0.37443118  1
  V  V31  1  0.37412298  0.37584573  0.50009028  1
  V  V32  1  0.37558682  0.62620919  0.25070961  1
  V  V33  1  0.24869255  0.87530282  0.62515421  1
  V  V34  1  0.25036002  0.12443394  0.37468499  1
  V  V35  1  0.24987169  0.49994560  0.75045732  1
  V  V36  1  0.50022997  0.50081009  0.50016969  1
  V  V37  1  -0.00076952  0.24946240  0.74978657  1
  V  V38  1  0.62594431  -0.00040765  0.62581109  1
  V  V39  1  0.12577650  0.12397722  -0.00143402  1
  V  V40  1  0.50011760  0.87526121  0.87563553  1
  V  V41  1  0.49976331  0.75139924  0.24924968  1
  V  V42  1  0.87536747  0.00103804  0.37617015  1
  V  V43  1  0.87476273  0.49906717  0.37592056  1
  V  V44  1  -0.00025339  0.87349698  0.87398233  1
  V  V45  1  0.62519490  0.75074265  0.37518195  1
  V  V46  1  0.74878215  0.25026303  0.50067027  1
  V  V47  1  0.24907315  0.00101772  0.25052420  1
  V  V48  1  0.62465501  0.12533640  0.50036929  1
  V  V49  1  0.87523399  0.62390513  0.74920311  1
  V  V50  1  0.62424299  0.50023983  0.62473797  1
  V  V51  1  0.12549532  0.24844615  0.87455470  1
  V  V52  1  0.37618642  0.12525635  0.74944118  1
  V  V53  1  0.00143979  0.62316122  0.12461871  1
  V  V54  1  0.00017976  0.37461590  0.87565240  1
  V  V55  1  0.24966530  0.25087459  0.50024073  1
  V  V56  1  0.50058275  0.12390264  0.12415990  1
  V  V57  1  0.62423497  0.37442488  0.75113444  1
  V  V58  1  0.37600152  0.75019461  0.62543010  1
  V  V59  1  0.75009464  0.62514979  0.37352489  1
  V  V60  1  0.50037076  0.37453378  0.87515506  1
  V  V61  1  0.12488627  0.00045941  0.12377046  1
  V  V62  1  0.24955648  0.12436202  0.87407244  1
  V  V63  1  0.87609136  0.49885496  0.87505695  1
  V  V64  1  0.25059547  0.75013848  0.00041911  1
  V  V65  1  0.75016641  0.24887798  0.00032487  1
  V  V66  1  0.24976887  0.37471264  0.62443391  1
  V  V67  1  0.24970270  -0.00119018  0.74846946  1
  V  V68  1  0.25036215  0.37577493  0.12506199  1
  V  V69  1  0.49976989  0.37491641  0.37462282  1
  V  V70  1  0.00070169  0.62389094  0.62338327  1
  V  V71  1  0.75024299  0.87485393  0.12484524  1
  V  V72  1  0.75063674  0.12543306  0.37474410  1
  V  V73  1  0.74919829  -0.00064343  0.75063399  1
  V  V74  1  0.12610894  0.75004617  0.37535429  1
  V  V75  1  0.12325155  0.25132041  0.37547618  1
  V  V76  1  0.37522635  0.62518112  0.74955581  1
  V  V77  1  0.75058452  0.75019703  0.49962281  1
  V  V78  1  0.75000665  0.37541451  0.12532988  1
  V  V79  1  0.74946664  0.37445185  0.62552288  1
  V  V80  1  0.50117445  0.50076762  0.00044206  1
  V  V81  1  0.12522473  0.37488555  0.74998299  1
  V  V82  1  0.87537597  0.24896277  0.12565008  1
  V  V83  1  0.74894043  0.49970497  0.24824289  1
  V  V84  1  0.87492837  0.74946383  0.62374378  1
  V  V85  1  0.49912433  0.25089186  0.25087458  1
  V  V86  1  0.74943887  0.12517688  0.87659028  1
  V  V87  1  0.37562141  0.37476554  0.00067858  1
  V  V88  1  -0.00031241  0.12499328  0.12558430  1
  V  V89  1  0.50020829  0.74912925  0.75022062  1
  V  V90  1  0.37679756  -0.00162678  0.87668851  1
  V  V91  1  0.74994028  0.49912040  0.75020470  1
  V  V92  1  0.12579120  0.62500423  0.49900294  1
  V  V93  1  0.62556686  0.87436107  0.74977079  1
  V  V94  1  0.37630082  0.87535051  0.50006546  1
  V  V95  1  0.12446094  0.87545539  0.25014266  1
  Zn  Zn96  1  0.25103663  0.24933230  -0.00104892  1
  Zn  Zn97  1  0.87473660  0.12424515  0.75036425  1
  Zn  Zn98  1  0.62623281  0.49904683  0.12413321  1
  Zn  Zn99  1  0.37401971  0.24985021  0.62487256  1
  Zn  Zn100  1  0.75069076  0.87504934  0.62486349  1
  Zn  Zn101  1  0.37460130  0.12412563  0.24969305  1
  Zn  Zn102  1  0.87544818  0.12652225  0.25108106  1
  Zn  Zn103  1  0.37708632  0.87513680  0.00237214  1
  Zn  Zn104  1  0.37504666  0.75236367  0.12468486  1
  Zn  Zn105  1  0.74867834  0.74791769  0.00086174  1
  Zn  Zn106  1  0.25143528  0.75078650  0.49953867  1
  Zn  Zn107  1  0.62792794  0.62443895  0.00005681  1
  Zn  Zn108  1  0.12530628  0.62118142  0.00187119  1
  Zn  Zn109  1  0.62440094  0.37673491  0.24854355  1
  Zn  Zn110  1  0.12499393  0.49878908  0.12364364  1
  Zn  Zn111  1  -0.00140945  0.37561542  0.37439389  1
  Zn  Zn112  1  0.12284549  -0.00062010  0.62451718  1
  Zn  Zn113  1  0.24967595  0.50241844  0.24924866  1
  Zn  Zn114  1  0.00039338  0.49833905  0.49754621  1
  Zn  Zn115  1  0.00252371  0.50002290  0.00039805  1
  Zn  Zn116  1  0.62481717  0.12385456  0.00161990  1
  Zn  Zn117  1  0.00161471  -0.00215327  -0.00209327  1
  Zn  Zn118  1  0.62464677  0.24965994  0.87753295  1
  Zn  Zn119  1  0.49958649  0.62516929  0.62509591  1
  Zn  Zn120  1  0.37491888  0.00047916  0.37442259  1
  Zn  Zn121  1  0.12479652  0.12234812  0.50139950  1
  Zn  Zn122  1  -0.00263813  0.25092315  0.25125809  1
  Zn  Zn123  1  0.87521699  0.74963221  0.12566283  1
  Zn  Zn124  1  0.00114983  0.00055894  0.50085748  1
  Zn  Zn125  1  0.12385017  0.87495873  0.74907757  1
  Zn  Zn126  1  0.50283864  -0.00142383  0.00173753  1
  Zn  Zn127  1  0.62362012  0.00094385  0.12342731  1
  Zn  Zn128  1  0.18682231  0.18918645  0.18777433  1
  Zn  Zn129  1  0.18688421  0.18709297  0.68777251  1
  Zn  Zn130  1  0.18659926  0.68823039  0.18789162  1
  Zn  Zn131  1  0.18794736  0.68833723  0.68711613  1
  Zn  Zn132  1  0.68591269  0.18911639  0.18892912  1
  Zn  Zn133  1  0.68641573  0.18690315  0.68996245  1
  Zn  Zn134  1  0.68656431  0.68898564  0.18744627  1
  Zn  Zn135  1  0.68787718  0.68712176  0.68720214  1
  Zn  Zn136  1  0.31253898  0.31229721  0.31165917  1
  Zn  Zn137  1  0.31316415  0.31122303  0.81197496  1
  Zn  Zn138  1  0.31295593  0.81292208  0.31227355  1
  Zn  Zn139  1  0.31276582  0.81243497  0.81192451  1
  Zn  Zn140  1  0.81186688  0.31258579  0.31091256  1
  Zn  Zn141  1  0.81332174  0.31130542  0.81287442  1
  Zn  Zn142  1  0.81389402  0.81306042  0.31227141  1
  Zn  Zn143  1  0.81194163  0.81127445  0.81164269  1
  Zn  Zn144  1  0.18874534  0.43969087  0.43681367  1
  Zn  Zn145  1  0.18580013  0.43798303  0.94002036  1
  Zn  Zn146  1  0.18485194  0.93952609  0.44119818  1
  Zn  Zn147  1  0.18682887  0.93606296  0.93657983  1
  Zn  Zn148  1  0.68725827  0.43764722  0.43647408  1
  Zn  Zn149  1  0.68706147  0.43813903  0.93921351  1
  Zn  Zn150  1  0.68834018  0.93782974  0.43801867  1
  Zn  Zn151  1  0.68494182  0.93890283  0.93987482  1
  Zn  Zn152  1  0.31289357  0.06370825  0.06219042  1
  Zn  Zn153  1  0.31314116  0.06224156  0.56113443  1
  Zn  Zn154  1  0.31471713  0.56274210  0.06284905  1
  Zn  Zn155  1  0.31159914  0.56342853  0.56193689  1
  Zn  Zn156  1  0.81419237  0.05994996  0.06143346  1
  Zn  Zn157  1  0.81391016  0.06238598  0.56279142  1
  Zn  Zn158  1  0.81510457  0.56159491  0.06209385  1
  Zn  Zn159  1  0.81149252  0.56241045  0.56166443  1
  Zn  Zn160  1  0.43779363  0.43942966  0.18839944  1
  Zn  Zn161  1  0.43712340  0.43728509  0.68670004  1
  Zn  Zn162  1  0.43344060  0.93917395  0.18849673  1
  Zn  Zn163  1  0.43799921  0.93735601  0.68824683  1
  Zn  Zn164  1  0.93699884  0.43780390  0.18886033  1
  Zn  Zn165  1  0.93853989  0.43724304  0.68668277  1
  Zn  Zn166  1  0.93669833  0.94003432  0.18858255  1
  Zn  Zn167  1  0.93536816  0.93664480  0.68823317  1
  Zn  Zn168  1  0.06253663  0.06249539  0.31168064  1
  Zn  Zn169  1  0.06249084  0.05984296  0.80934212  1
  Zn  Zn170  1  0.06200202  0.56067904  0.31222314  1
  Zn  Zn171  1  0.06290732  0.56243294  0.81273863  1
  Zn  Zn172  1  0.56338085  0.06312471  0.31042703  1
  Zn  Zn173  1  0.56374788  0.06240204  0.81272369  1
  Zn  Zn174  1  0.56311585  0.56208076  0.31111784  1
  Zn  Zn175  1  0.56267351  0.56267858  0.81274289  1
  Zn  Zn176  1  0.43558790  0.18841883  0.43848340  1
  Zn  Zn177  1  0.43690391  0.18825351  0.93901137  1
  Zn  Zn178  1  0.43787326  0.68911492  0.43823417  1
  Zn  Zn179  1  0.43718048  0.68784853  0.93716734  1
  Zn  Zn180  1  0.93673723  0.18884860  0.43972389  1
  Zn  Zn181  1  0.93728000  0.18653995  0.93913643  1
  Zn  Zn182  1  0.93898270  0.68706455  0.43711906  1
  Zn  Zn183  1  0.93663620  0.68725093  0.93865945  1
  Zn  Zn184  1  0.06337096  0.30951180  0.06084607  1
  Zn  Zn185  1  0.06069080  0.31265552  0.56090292  1
  Zn  Zn186  1  0.06326134  0.80957497  0.06180750  1
  Zn  Zn187  1  0.06245122  0.81106942  0.56087169  1
  Zn  Zn188  1  0.56538576  0.31110613  0.06255598  1
  Zn  Zn189  1  0.56086084  0.31288176  0.56335623  1
  Zn  Zn190  1  0.56382863  0.81198374  0.05981501  1
  Zn  Zn191  1  0.56281434  0.81275309  0.56334968  1
  O  O192  1  0.11874201  0.12115798  0.11951391  1
  O  O193  1  0.11274021  0.12582841  0.62432550  1
  O  O194  1  0.11383825  0.62235095  0.12718325  1
  O  O195  1  0.12090615  0.62022789  0.61985720  1
  O  O196  1  0.61267484  0.12480539  0.12574552  1
  O  O197  1  0.61953859  0.11981410  0.61982408  1
  O  O198  1  0.61214174  0.62479041  0.12423665  1
  O  O199  1  0.62397717  0.61796992  0.61824665  1
  O  O200  1  0.37953361  0.38113243  0.38044125  1
  O  O201  1  0.37990598  0.38041367  0.87996979  1
  O  O202  1  0.38227689  0.87607341  0.38166697  1
  O  O203  1  0.38055100  0.88485360  0.87321348  1
  O  O204  1  0.87382721  0.38053513  0.38126437  1
  O  O205  1  0.88065912  0.37915488  0.87963368  1
  O  O206  1  0.88058079  0.88043462  0.37998957  1
  O  O207  1  0.87888025  0.87772731  0.88238804  1
  O  O208  1  0.24675461  0.01048474  0.37008542  1
  O  O209  1  0.25772315  0.00358378  0.86865026  1
  O  O210  1  0.25783438  0.50793467  0.37318528  1
  O  O211  1  0.25524155  0.50417746  0.86983757  1
  O  O212  1  0.75500002  0.00587425  0.37081599  1
  O  O213  1  0.75455695  0.00685145  0.87079832  1
  O  O214  1  0.75448288  0.50655886  0.36936564  1
  O  O215  1  0.75644186  0.50407307  0.86862328  1
  O  O216  1  0.25059446  0.48699099  0.12703767  1
  O  O217  1  0.24432149  0.49487846  0.63119752  1
  O  O218  1  0.24384281  0.99597634  0.12992683  1
  O  O219  1  0.25253338  0.98996442  0.63041989  1
  O  O220  1  0.75105523  0.49388955  0.13101366  1
  O  O221  1  0.74432810  0.49412847  0.63058803  1
  O  O222  1  0.75100136  0.98916714  0.13098147  1
  O  O223  1  0.74346287  0.99994795  0.63175319  1
  O  O224  1  0.01178927  0.37174077  0.25078341  1
  O  O225  1  0.00610376  0.36937885  0.75499365  1
  O  O226  1  0.00516570  0.87064946  0.25515475  1
  O  O227  1  -0.00085316  0.86601303  0.75590968  1
  O  O228  1  0.50053026  0.36941104  0.25729229  1
  O  O229  1  0.50420387  0.37071863  0.75527536  1
  O  O230  1  0.50529085  0.87123871  0.25466909  1
  O  O231  1  0.50597560  0.86909739  0.75564385  1
  O  O232  1  0.49743252  0.13192577  0.24227482  1
  O  O233  1  0.49620805  0.12992179  0.74508530  1
  O  O234  1  0.49594439  0.63107258  0.24299046  1
  O  O235  1  0.49275133  0.63078719  0.74910888  1
  O  O236  1  1.00039959  0.12744542  0.23663116  1
  O  O237  1  0.99767489  0.13171264  0.74192526  1
  O  O238  1  0.99482507  0.63022094  0.24412795  1
  O  O239  1  0.99421602  0.62928506  0.74375683  1
  O  O240  1  0.37301793  0.25808474  0.00696872  1
  O  O241  1  0.36770927  0.25824716  0.50149738  1
  O  O242  1  0.36127809  0.75201516  -0.00071494  1
  O  O243  1  0.37489920  0.75759345  0.50714554  1
  O  O244  1  0.86974402  0.25557811  0.00581244  1
  O  O245  1  0.86702698  0.25655372  0.50600483  1
  O  O246  1  0.87199687  0.76279558  0.00125681  1
  O  O247  1  0.86974740  0.75406807  0.50375374  1
  O  O248  1  0.13124497  0.25120335  0.48931243  1
  O  O249  1  0.12791007  0.24219451  0.99148368  1
  O  O250  1  0.12747064  0.74311444  0.49249781  1
  O  O251  1  0.13609899  0.74697593  0.99361416  1
  O  O252  1  0.62934646  0.24458655  0.49594652  1
  O  O253  1  0.63496861  0.24582741  0.99671750  1
  O  O254  1  0.63005825  0.74482517  0.49447199  1
  O  O255  1  0.62834894  0.74620499  0.99026053  1
  O  O256  1  0.49493116  0.24425027  0.13077760  1
  O  O257  1  0.49819956  0.24349848  0.63168551  1
  O  O258  1  0.49876693  0.74230221  0.13037452  1
  O  O259  1  0.49398426  0.74902080  0.63252619  1
  O  O260  1  0.99500072  0.23929501  0.12448193  1
  O  O261  1  0.99456092  0.24402897  0.63047331  1
  O  O262  1  0.99932562  0.74140145  0.13249266  1
  O  O263  1  0.99447904  0.74317220  0.62984741  1
  O  O264  1  0.01187198  0.25067599  0.37373420  1
  O  O265  1  0.00498852  0.25431227  0.86953475  1
  O  O266  1  0.00610272  0.75595911  0.36919711  1
  O  O267  1  0.00436947  0.75306813  0.86932810  1
  O  O268  1  0.50373721  0.25520635  0.37145168  1
  O  O269  1  0.50077829  0.25665243  0.86884399  1
  O  O270  1  0.50660579  0.75649569  0.36961150  1
  O  O271  1  0.50494477  0.75493618  0.86903943  1
  O  O272  1  0.24817517  0.13129662  0.49127989  1
  O  O273  1  0.24390469  0.12634243  0.99199852  1
  O  O274  1  0.24398622  0.62782661  0.49292601  1
  O  O275  1  0.25012278  0.63345848  0.99494893  1
  O  O276  1  0.74391446  0.13098022  0.49538266  1
  O  O277  1  0.75218371  0.12961123  0.99131804  1
  O  O278  1  0.74419384  0.63024456  0.49292645  1
  O  O279  1  0.75059474  0.62722076  0.99208882  1
  O  O280  1  0.25623153  0.37335331  0.00920657  1
  O  O281  1  0.25504820  0.37118451  0.50492744  1
  O  O282  1  0.25012051  0.86556776  0.00495976  1
  O  O283  1  0.25696268  0.87472927  0.50957254  1
  O  O284  1  0.75725040  0.36946924  0.00455902  1
  O  O285  1  0.75338000  0.36944303  0.50657831  1
  O  O286  1  0.75799900  0.87446828  0.00839629  1
  O  O287  1  0.75671756  0.86734660  0.50027010  1
  O  O288  1  0.12845749  0.48719290  0.24866618  1
  O  O289  1  0.13112139  0.49443311  0.74466194  1
  O  O290  1  0.13005853  0.99435460  0.24363535  1
  O  O291  1  0.13428094  0.99519436  0.74569161  1
  O  O292  1  0.63381394  0.49830160  0.24753341  1
  O  O293  1  0.63038255  0.49425225  0.74451248  1
  O  O294  1  0.63280645  0.99296799  0.24836819  1
  O  O295  1  0.62973886  0.99400297  0.74497515  1
  O  O296  1  0.36415028  0.00346245  0.25530217  1
  O  O297  1  0.37070277  0.00534013  0.75865874  1
  O  O298  1  0.37458024  0.50805597  0.25786114  1
  O  O299  1  0.36905977  0.50439578  0.75530786  1
  O  O300  1  0.86797196  0.00264849  0.25819652  1
  O  O301  1  0.86667623  0.00040979  0.75734122  1
  O  O302  1  0.86821615  0.50598340  0.25635411  1
  O  O303  1  0.86915294  0.50404026  0.75435070  1
  O  O304  1  0.12760595  0.36693394  0.36680194  1
  O  O305  1  0.12045116  0.36920151  0.86895325  1
  O  O306  1  0.11999764  0.87041831  0.36954189  1
  O  O307  1  0.11779435  0.86711547  0.87304837  1
  O  O308  1  0.61726005  0.36828908  0.37559566  1
  O  O309  1  0.61820235  0.37478873  0.86824776  1
  O  O310  1  0.62018146  0.86990765  0.36981345  1
  O  O311  1  0.61989064  0.86932550  0.86885146  1
  O  O312  1  0.38232424  0.13227352  0.12646815  1
  O  O313  1  0.38184000  0.12548779  0.63173398  1
  O  O314  1  0.38581499  0.62717689  0.13104256  1
  O  O315  1  0.37531864  0.63126430  0.63179563  1
  O  O316  1  0.88481274  0.12888318  0.12416905  1
  O  O317  1  0.88263111  0.13245001  0.62690798  1
  O  O318  1  0.88356184  0.62766703  0.13201576  1
  O  O319  1  0.88025632  0.62924423  0.62954488  1
  O  O320  1  0.25597679  0.26041117  0.12422959  1
  O  O321  1  0.24999779  0.25694391  0.61880783  1
  O  O322  1  0.24942298  0.75531733  0.11589834  1
  O  O323  1  0.25729070  0.75948722  0.62489436  1
  O  O324  1  0.75629440  0.25410061  0.11998131  1
  O  O325  1  0.75367260  0.25492795  0.62061695  1
  O  O326  1  0.75281546  0.76307586  0.12538314  1
  O  O327  1  0.75717787  0.74984213  0.61764335  1
  O  O328  1  0.24242579  0.24350164  0.37896937  1
  O  O329  1  0.24360587  0.24232440  0.87407899  1
  O  O330  1  0.24330621  0.74456067  0.37590826  1
  O  O331  1  0.24555343  0.74507427  0.88110129  1
  O  O332  1  0.74401734  0.24531390  0.38150552  1
  O  O333  1  0.75160611  0.24033213  0.88070282  1
  O  O334  1  0.74458441  0.74476005  0.37919247  1
  O  O335  1  0.74400985  0.74240283  0.87364227  1
  O  O336  1  0.00603495  0.12195644  0.00949903  1
  O  O337  1  0.00075910  0.12624557  0.51283102  1
  O  O338  1  0.00063264  0.62576059  0.01230313  1
  O  O339  1  0.00720079  0.62324748  0.50619738  1
  O  O340  1  0.50006533  0.12502079  0.01228768  1
  O  O341  1  0.50519510  0.12073743  0.50515562  1
  O  O342  1  0.49854663  0.62006003  0.00886768  1
  O  O343  1  0.50691342  0.61863364  0.50084384  1
  O  O344  1  0.49415687  0.38083104  0.49471958  1
  O  O345  1  0.49474520  0.38017193  0.99528053  1
  O  O346  1  0.49688516  0.88093666  0.49475497  1
  O  O347  1  0.49621710  0.87686617  0.99149318  1
  O  O348  1  0.99030007  0.37736990  0.49718425  1
  O  O349  1  0.99401146  0.37384976  0.99293853  1
  O  O350  1  0.99278189  0.87456891  0.49270549  1
  O  O351  1  0.99133905  0.87416998  0.99434033  1
  O  O352  1  0.49513428  0.49530670  0.38086573  1
  O  O353  1  0.49343175  0.49453863  0.87949290  1
  O  O354  1  0.50026534  0.99447504  0.38132301  1
  O  O355  1  0.49060722  0.99487492  0.87313647  1
  O  O356  1  0.99040575  0.49728582  0.37649344  1
  O  O357  1  0.99333870  0.49229497  0.87372949  1
  O  O358  1  0.99368013  0.99418970  0.37485230  1
  O  O359  1  0.99316435  0.99230754  0.87495238  1
  O  O360  1  0.00611263  0.00889398  0.12357125  1
  O  O361  1  -0.00193232  0.01163658  0.62612392  1
  O  O362  1  -0.00000354  0.51185691  0.12540165  1
  O  O363  1  0.00722588  0.50654783  0.62425190  1
  O  O364  1  0.49827049  0.01185564  0.12572490  1
  O  O365  1  0.50639243  0.00578178  0.62022075  1
  O  O366  1  0.50005438  0.50977063  0.11955110  1
  O  O367  1  0.50650273  0.50094296  0.61830329  1
  O  O368  1  0.24267550  0.37563134  0.24105800  1
  O  O369  1  0.24472856  0.38035277  0.74522769  1
  O  O370  1  0.24306017  0.88008827  0.24493011  1
  O  O371  1  0.25121353  0.87983365  0.73991485  1
  O  O372  1  0.74929617  0.38197568  0.24297889  1
  O  O373  1  0.74489784  0.37968474  0.74499725  1
  O  O374  1  0.74611496  0.88012688  0.24344619  1
  O  O375  1  0.74309301  0.88119017  0.74884665  1
  O  O376  1  0.24867968  0.12040670  0.25893563  1
  O  O377  1  0.25600641  0.11919727  0.75456644  1
  O  O378  1  0.25704626  0.62478132  0.25555059  1
  O  O379  1  0.25542989  0.61934118  0.75569820  1
  O  O380  1  0.75026363  0.11899247  0.25728194  1
  O  O381  1  0.75145925  0.11928882  0.75998951  1
  O  O382  1  0.75521999  0.62126730  0.25464135  1
  O  O383  1  0.75635372  0.61803788  0.75442045  1
  O  O384  1  0.36096909  0.12516957  0.37388090  1
  O  O385  1  0.37052986  0.11713393  0.86933976  1
  O  O386  1  0.37099150  0.62153019  0.37051604  1
  O  O387  1  0.36912141  0.61874880  0.86916352  1
  O  O388  1  0.86817113  0.12021083  0.37514493  1
  O  O389  1  0.86566344  0.11809164  0.87509412  1
  O  O390  1  0.86896342  0.62030221  0.36996175  1
  O  O391  1  0.87107878  0.61916335  0.86808144  1
  O  O392  1  0.13380453  0.37157899  0.13265389  1
  O  O393  1  0.12981508  0.38012667  0.63056516  1
  O  O394  1  0.12911357  0.88038438  0.13036862  1
  O  O395  1  0.13744994  0.87321149  0.62619802  1
  O  O396  1  0.63450498  0.37704799  0.12704581  1
  O  O397  1  0.63017948  0.38051609  0.63040832  1
  O  O398  1  0.63433841  0.87559678  0.13108011  1
  O  O399  1  0.62695786  0.88177788  0.63136723  1
  O  O400  1  0.12561151  0.25925041  0.25943964  1
  O  O401  1  0.11949023  0.25606291  0.75552127  1
  O  O402  1  0.11927684  0.75673534  0.25615129  1
  O  O403  1  0.11778116  0.75030566  0.75603667  1
  O  O404  1  0.61750327  0.25256138  0.25907034  1
  O  O405  1  0.61832465  0.25740784  0.75242267  1
  O  O406  1  0.61957019  0.75666390  0.25658151  1
  O  O407  1  0.61978175  0.75463731  0.75464037  1
  O  O408  1  0.38142717  0.24866016  0.24372743  1
  O  O409  1  0.38182563  0.24308614  0.74826248  1
  O  O410  1  0.38293862  0.74414217  0.24913105  1
  O  O411  1  0.38077846  0.74436876  0.74588966  1
  O  O412  1  0.87743076  0.24671952  0.24184506  1
  O  O413  1  0.88156003  0.24942740  0.74318301  1
  O  O414  1  0.88234011  0.74364968  0.25040138  1
  O  O415  1  0.88020469  0.74291422  0.74395371  1
  O  O416  1  0.38056044  0.49564246  0.49449777  1
  O  O417  1  0.38077570  0.49415361  0.99368484  1
  O  O418  1  0.38342013  0.99370959  0.49757654  1
  O  O419  1  0.37551987  0.99946141  0.98565076  1
  O  O420  1  0.87354753  0.49384019  0.49358694  1
  O  O421  1  0.87858474  0.49218826  0.99212441  1
  O  O422  1  0.87638220  0.99289629  0.49354439  1
  O  O423  1  0.87699919  0.98702295  0.99355720  1
  O  O424  1  0.12384341  0.00593039  0.00596312  1
  O  O425  1  0.11878476  0.00426879  0.50641385  1
  O  O426  1  0.12013679  0.50307188  0.00516191  1
  O  O427  1  0.12425127  0.50654651  0.50654726  1
  O  O428  1  0.62056319  0.00538575  0.00537271  1
  O  O429  1  0.62038392  0.00602077  0.50546385  1
  O  O430  1  0.61631116  0.50400010  0.00240263  1
  O  O431  1  0.62027860  0.50516295  0.50486651  1
  O  O432  1  0.36843818  0.37108561  0.12112010  1
  O  O433  1  0.36731178  0.37475713  0.61829664  1
  O  O434  1  0.36552339  0.87286071  0.12260220  1
  O  O435  1  0.36853345  0.87032953  0.62067893  1
  O  O436  1  0.87060541  0.36894706  0.11951155  1
  O  O437  1  0.86826069  0.37027711  0.62038542  1
  O  O438  1  0.86848131  0.87501651  0.11762326  1
  O  O439  1  0.87351026  0.86691829  0.61814788  1
  O  O440  1  0.13334806  0.13489570  0.37445209  1
  O  O441  1  0.12973137  0.12851384  0.87824219  1
  O  O442  1  0.13029602  0.63003106  0.37854847  1
  O  O443  1  0.13192201  0.63092833  0.87591775  1
  O  O444  1  0.63010604  0.13092524  0.38180965  1
  O  O445  1  0.63854250  0.12603272  0.87608520  1
  O  O446  1  0.63039610  0.63117190  0.37975350  1
  O  O447  1  0.63242986  0.63048572  0.87399645  1
