# generated using pymatgen
data_V3Zn3O8
_symmetry_space_group_name_H-M   'P 1'
_cell_length_a   17.08800469
_cell_length_b   17.08772306
_cell_length_c   17.08666079
_cell_angle_alpha   89.99990548
_cell_angle_beta   90.00320419
_cell_angle_gamma   90.00131983
_symmetry_Int_Tables_number   1
_chemical_formula_structural   V3Zn3O8
_chemical_formula_sum   'V96 Zn96 O256'
_cell_volume   4989.22107960
_cell_formula_units_Z   32
loop_
 _symmetry_equiv_pos_site_id
 _symmetry_equiv_pos_as_xyz
  1  'x, y, z'
loop_
 _atom_site_type_symbol
 _atom_site_label
 _atom_site_symmetry_multiplicity
 _atom_site_fract_x
 _atom_site_fract_y
 _atom_site_fract_z
 _atom_site_occupancy
  V  V0  1  -0.00041341  0.12620456  0.62627987  1
  V  V1  1  0.12522122  0.25134891  0.87628283  1
  V  V2  1  0.50000507  0.37463407  0.87466086  1
  V  V3  1  -0.00085823  0.75000664  0.74997857  1
  V  V4  1  0.49893262  0.74926424  0.24908522  1
  V  V5  1  -0.00025935  0.37519080  0.37660752  1
  V  V6  1  0.87472935  0.37474458  0.00118565  1
  V  V7  1  0.12465106  0.00144156  0.62575980  1
  V  V8  1  0.12434069  0.87473065  0.25004379  1
  V  V9  1  0.62396421  0.62496279  0.49987769  1
  V  V10  1  0.49839698  0.87447908  0.87429256  1
  V  V11  1  0.87383758  0.50063255  0.87483992  1
  V  V12  1  0.12437782  0.75002730  0.87461745  1
  V  V13  1  0.12508859  0.37523861  0.75084784  1
  V  V14  1  0.62508547  0.12443198  -0.00043347  1
  V  V15  1  0.25048797  0.12503787  0.87487058  1
  V  V16  1  0.62413439  0.87426470  0.74963025  1
  V  V17  1  0.75101528  0.25017963  0.00019593  1
  V  V18  1  0.12810918  0.37583075  0.25036236  1
  V  V19  1  0.37394109  0.87448745  -0.00073117  1
  V  V20  1  0.87518016  0.12573353  0.75058666  1
  V  V21  1  0.75003507  0.37538533  0.62572943  1
  V  V22  1  0.87405096  0.87456075  -0.00095185  1
  V  V23  1  0.00036367  0.75058041  0.25081871  1
  V  V24  1  0.24976996  0.00136453  0.75056397  1
  V  V25  1  0.75003157  0.75030825  0.49940506  1
  V  V26  1  0.24978183  0.62457539  0.87353737  1
  V  V27  1  0.12454638  0.62443643  -0.00036142  1
  V  V28  1  0.74905879  -0.00146148  0.75033425  1
  V  V29  1  -0.00114504  -0.00119920  0.50050071  1
  V  V30  1  -0.00052816  0.87490856  0.87461593  1
  V  V31  1  0.37382407  0.00045986  0.87395191  1
  V  V32  1  0.49983457  0.49902505  -0.00076056  1
  V  V33  1  0.62322745  0.74856485  0.87583442  1
  V  V34  1  0.87558723  0.24993168  0.12582430  1
  V  V35  1  0.49810358  0.74962042  0.74869187  1
  V  V36  1  0.75093442  -0.00085735  0.25019870  1
  V  V37  1  0.50061130  0.87601885  0.37472642  1
  V  V38  1  0.62495780  0.37594234  0.74913171  1
  V  V39  1  0.50114175  0.12422669  0.12553628  1
  V  V40  1  0.87614197  0.87545982  0.49985785  1
  V  V41  1  0.62522760  0.25003200  0.87482085  1
  V  V42  1  0.25030026  0.37450642  0.62422031  1
  V  V43  1  0.37596797  0.37459145  -0.00037223  1
  V  V44  1  0.62515295  0.75052804  0.37371458  1
  V  V45  1  0.87470888  -0.00012896  0.87542354  1
  V  V46  1  0.25007057  0.50085894  0.75008222  1
  V  V47  1  0.75011157  0.12456146  0.87531973  1
  V  V48  1  0.62308538  0.62487104  -0.00000560  1
  V  V49  1  0.50024514  0.37602179  0.37597106  1
  V  V50  1  0.75062265  0.62489405  0.37398980  1
  V  V51  1  0.49952299  0.12572658  0.62529727  1
  V  V52  1  0.75084552  0.24976242  0.50147425  1
  V  V53  1  0.50216487  0.00049611  0.49877806  1
  V  V54  1  0.12484884  0.12491907  0.00106819  1
  V  V55  1  0.37378664  0.62506024  0.74824257  1
  V  V56  1  0.12468016  0.87554204  0.74943635  1
  V  V57  1  0.87358273  0.62391679  0.75059207  1
  V  V58  1  0.62773887  0.25002202  0.37588533  1
  V  V59  1  0.25175712  0.12461102  0.37521929  1
  V  V60  1  0.87670646  0.12513119  0.25128807  1
  V  V61  1  0.12499339  0.00074842  0.12423049  1
  V  V62  1  0.00043638  0.00047703  0.00040902  1
  V  V63  1  0.62527807  0.49968564  0.12505732  1
  V  V64  1  0.25129915  0.62437882  0.37349522  1
  V  V65  1  0.62489400  0.50019154  0.62422976  1
  V  V66  1  0.37474671  0.74906593  0.12570444  1
  V  V67  1  0.74900015  0.87422921  0.62562901  1
  V  V68  1  0.25038600  0.87602636  0.62358118  1
  V  V69  1  0.12531676  0.12529997  0.50067417  1
  V  V70  1  0.49978351  0.24946068  0.74924696  1
  V  V71  1  -0.00074852  0.49993928  0.00086424  1
  V  V72  1  0.87440387  0.74906187  0.12407460  1
  V  V73  1  0.25011868  0.00064393  0.25002931  1
  V  V74  1  0.12520045  0.25018609  0.37601046  1
  V  V75  1  0.00089187  0.37496287  0.87573350  1
  V  V76  1  0.00007582  0.62458974  0.62429868  1
  V  V77  1  0.37462515  0.37526928  0.49983526  1
  V  V78  1  0.24948273  0.87509852  0.12494936  1
  V  V79  1  0.24930507  0.74973989  -0.00006132  1
  V  V80  1  0.62741951  0.37425645  0.24993953  1
  V  V81  1  0.49982735  -0.00024078  -0.00058020  1
  V  V82  1  0.25047631  0.25043660  0.00095811  1
  V  V83  1  0.87431534  0.74876347  0.62506612  1
  V  V84  1  -0.00076866  0.62516836  0.12487935  1
  V  V85  1  0.12545975  0.49875833  0.12567506  1
  V  V86  1  0.12433924  0.50051411  0.62502260  1
  V  V87  1  0.49911984  0.62523227  0.62393578  1
  V  V88  1  0.62598087  0.12529658  0.49971508  1
  V  V89  1  0.74799617  0.74940034  -0.00067020  1
  V  V90  1  0.74932342  0.87538986  0.12479022  1
  V  V91  1  0.37442251  0.87588294  0.49943869  1
  V  V92  1  0.37619302  0.24938680  0.12600232  1
  V  V93  1  0.87503716  0.25064321  0.62599915  1
  V  V94  1  0.12569853  0.62662601  0.49897750  1
  V  V95  1  0.87437113  0.50047605  0.37452194  1
  Zn  Zn96  1  0.37391335  0.62156937  0.24920874  1
  Zn  Zn97  1  0.62527631  0.87647369  0.24863400  1
  Zn  Zn98  1  0.87346375  0.62459956  0.24863033  1
  Zn  Zn99  1  -0.00002198  0.25067439  0.75111704  1
  Zn  Zn100  1  0.24994671  0.75198398  0.49905078  1
  Zn  Zn101  1  0.37495557  0.50010377  0.37109201  1
  Zn  Zn102  1  0.87691807  -0.00106944  0.37589291  1
  Zn  Zn103  1  0.50184039  0.24735744  0.25090517  1
  Zn  Zn104  1  0.12582004  0.75174968  0.37545406  1
  Zn  Zn105  1  0.49658552  0.62376399  0.12570384  1
  Zn  Zn106  1  0.37333803  0.25061583  0.62663548  1
  Zn  Zn107  1  0.75189671  0.12343997  0.37753478  1
  Zn  Zn108  1  0.25074731  0.24937998  0.50222910  1
  Zn  Zn109  1  0.62530129  -0.00129232  0.12453185  1
  Zn  Zn110  1  0.25171984  0.37653789  0.12564590  1
  Zn  Zn111  1  0.37776175  0.12420929  0.25195169  1
  Zn  Zn112  1  0.00105426  0.87535692  0.37628846  1
  Zn  Zn113  1  0.00073592  0.24769048  0.24975972  1
  Zn  Zn114  1  0.62550484  -0.00097245  0.62452101  1
  Zn  Zn115  1  0.74793575  0.62333414  0.87372444  1
  Zn  Zn116  1  0.25411984  0.50114288  0.24758814  1
  Zn  Zn117  1  -0.00095123  0.50046320  0.50056821  1
  Zn  Zn118  1  0.74916728  0.50135632  0.75107641  1
  Zn  Zn119  1  0.75069271  0.50250836  0.24848025  1
  Zn  Zn120  1  0.49872962  0.50238334  0.49873468  1
  Zn  Zn121  1  0.37443768  0.12675082  0.74917333  1
  Zn  Zn122  1  0.37479033  0.49947952  0.87523945  1
  Zn  Zn123  1  0.37281864  0.74936170  0.62348914  1
  Zn  Zn124  1  0.37748174  0.00186554  0.37188825  1
  Zn  Zn125  1  0.00185242  0.12552960  0.12654909  1
  Zn  Zn126  1  0.75121687  0.37530635  0.12564504  1
  Zn  Zn127  1  0.87563047  0.37521894  0.50174702  1
  Zn  Zn128  1  0.18843121  0.18843311  0.18934463  1
  Zn  Zn129  1  0.18768787  0.18987726  0.68859028  1
  Zn  Zn130  1  0.18668330  0.68664729  0.18774600  1
  Zn  Zn131  1  0.18848424  0.68984686  0.68491059  1
  Zn  Zn132  1  0.68971273  0.18713904  0.18765996  1
  Zn  Zn133  1  0.68682709  0.18767881  0.68724295  1
  Zn  Zn134  1  0.68630613  0.68651485  0.18786237  1
  Zn  Zn135  1  0.68687126  0.68640906  0.68801169  1
  Zn  Zn136  1  0.31345811  0.30961485  0.31289930  1
  Zn  Zn137  1  0.31359896  0.31228577  0.81170405  1
  Zn  Zn138  1  0.31219881  0.81104413  0.31438411  1
  Zn  Zn139  1  0.31198234  0.81208235  0.81076183  1
  Zn  Zn140  1  0.81199191  0.31197913  0.31355830  1
  Zn  Zn141  1  0.81227603  0.31362977  0.81208011  1
  Zn  Zn142  1  0.81519904  0.81375308  0.31330850  1
  Zn  Zn143  1  0.81058376  0.81049386  0.81300770  1
  Zn  Zn144  1  0.18923943  0.44085963  0.43789612  1
  Zn  Zn145  1  0.18923837  0.43751007  0.93874930  1
  Zn  Zn146  1  0.18584452  0.93892351  0.43589943  1
  Zn  Zn147  1  0.18703198  0.93770522  0.93716091  1
  Zn  Zn148  1  0.68899962  0.43809979  0.43966587  1
  Zn  Zn149  1  0.68888491  0.43714444  0.93699430  1
  Zn  Zn150  1  0.68807095  0.93768021  0.43604684  1
  Zn  Zn151  1  0.68592230  0.93667517  0.93713449  1
  Zn  Zn152  1  0.31296702  0.06263986  0.06213478  1
  Zn  Zn153  1  0.31429946  0.06091688  0.56117648  1
  Zn  Zn154  1  0.31249072  0.56184706  0.06374619  1
  Zn  Zn155  1  0.31257212  0.56033269  0.56039546  1
  Zn  Zn156  1  0.81357875  0.06325186  0.06483603  1
  Zn  Zn157  1  0.81256754  0.06193786  0.56436063  1
  Zn  Zn158  1  0.81032032  0.56333557  0.06123530  1
  Zn  Zn159  1  0.81138397  0.56114222  0.56118739  1
  Zn  Zn160  1  0.43903106  0.43697161  0.18905932  1
  Zn  Zn161  1  0.43739541  0.43935869  0.68644709  1
  Zn  Zn162  1  0.43560589  0.93714056  0.18824192  1
  Zn  Zn163  1  0.43673536  0.93975538  0.68602113  1
  Zn  Zn164  1  0.93909839  0.43656555  0.18976010  1
  Zn  Zn165  1  0.93770577  0.43813908  0.68887090  1
  Zn  Zn166  1  0.93722610  0.93704297  0.18571060  1
  Zn  Zn167  1  0.93626482  0.93791306  0.68660482  1
  Zn  Zn168  1  0.06255411  0.06064545  0.31457698  1
  Zn  Zn169  1  0.06245213  0.06399308  0.81331707  1
  Zn  Zn170  1  0.06279045  0.56242793  0.31227354  1
  Zn  Zn171  1  0.06112484  0.56203944  0.81221164  1
  Zn  Zn172  1  0.56631150  0.06247168  0.31264469  1
  Zn  Zn173  1  0.56232195  0.06177952  0.81154274  1
  Zn  Zn174  1  0.56278486  0.56263062  0.31215061  1
  Zn  Zn175  1  0.56096705  0.56174528  0.81158827  1
  Zn  Zn176  1  0.43836166  0.19064920  0.43920912  1
  Zn  Zn177  1  0.43729777  0.18726592  0.93759127  1
  Zn  Zn178  1  0.43631032  0.68924142  0.43621574  1
  Zn  Zn179  1  0.43643658  0.68526130  0.93699806  1
  Zn  Zn180  1  0.93730337  0.18756877  0.43809550  1
  Zn  Zn181  1  0.93865176  0.18778204  0.93836118  1
  Zn  Zn182  1  0.93770938  0.68728547  0.43652363  1
  Zn  Zn183  1  0.93609006  0.68649855  0.93693445  1
  Zn  Zn184  1  0.06063486  0.31165545  0.06490469  1
  Zn  Zn185  1  0.06284398  0.31135428  0.56236081  1
  Zn  Zn186  1  0.06195250  0.81298339  0.06334444  1
  Zn  Zn187  1  0.06243709  0.81188970  0.56341638  1
  Zn  Zn188  1  0.56285106  0.31229278  0.06190177  1
  Zn  Zn189  1  0.56284845  0.31204043  0.56198013  1
  Zn  Zn190  1  0.56274283  0.81352976  0.06424934  1
  Zn  Zn191  1  0.56172513  0.81135615  0.56247349  1
  O  O192  1  0.12527621  0.11899754  0.11892326  1
  O  O193  1  0.11997740  0.12040264  0.62111560  1
  O  O194  1  0.11926055  0.61952171  0.11801574  1
  O  O195  1  0.12047096  0.62086371  0.61821826  1
  O  O196  1  0.61586623  0.12551740  0.11824003  1
  O  O197  1  0.61471200  0.12393325  0.61952766  1
  O  O198  1  0.62192283  0.61498279  0.11977321  1
  O  O199  1  0.61927498  0.62070469  0.61934808  1
  O  O200  1  0.38430775  0.37271298  0.38123770  1
  O  O201  1  0.38231643  0.37535287  0.88190777  1
  O  O202  1  0.38081184  0.87754743  0.38384645  1
  O  O203  1  0.37881673  0.87994656  0.88002926  1
  O  O204  1  0.88385060  0.38205054  0.37466576  1
  O  O205  1  0.88116722  0.37970604  0.88105901  1
  O  O206  1  0.87933062  0.87648498  0.38523459  1
  O  O207  1  0.88004872  0.87984203  0.87931632  1
  O  O208  1  0.24935758  0.01094792  0.36900947  1
  O  O209  1  0.25403739  0.00503667  0.87028954  1
  O  O210  1  0.25075104  0.51220977  0.37191549  1
  O  O211  1  0.25010396  0.50724377  0.86843461  1
  O  O212  1  0.75405887  0.00115071  0.36323426  1
  O  O213  1  0.75562120  0.00460905  0.87056598  1
  O  O214  1  0.75882253  0.50534828  0.37469856  1
  O  O215  1  0.75822722  0.50228083  0.87302167  1
  O  O216  1  0.24073292  0.49634244  0.12629418  1
  O  O217  1  0.24331862  0.49469618  0.63080391  1
  O  O218  1  0.24470581  0.99446943  0.12876577  1
  O  O219  1  0.24391872  0.99637691  0.63084102  1
  O  O220  1  0.73743281  0.49734490  0.12545169  1
  O  O221  1  0.74311529  0.49339085  0.62629254  1
  O  O222  1  0.75048184  0.99417407  0.13319488  1
  O  O223  1  0.74856917  0.99225625  0.63325930  1
  O  O224  1  0.01007249  0.37357817  0.26112966  1
  O  O225  1  0.00784208  0.37457485  0.75798590  1
  O  O226  1  0.00524919  0.86538035  0.24767432  1
  O  O227  1  0.00470853  0.87000168  0.75500007  1
  O  O228  1  0.51133675  0.37176763  0.25830818  1
  O  O229  1  0.50551831  0.36959111  0.75455143  1
  O  O230  1  0.50062322  0.86605434  0.25522521  1
  O  O231  1  0.50367975  0.87044936  0.75493462  1
  O  O232  1  0.50062101  0.12613947  0.23810073  1
  O  O233  1  0.50038222  0.12967553  0.74095875  1
  O  O234  1  0.49852583  0.63851985  0.25035090  1
  O  O235  1  0.49369436  0.63032049  0.74434247  1
  O  O236  1  0.98938640  0.12493472  0.24899653  1
  O  O237  1  0.99307830  0.12592263  0.74474082  1
  O  O238  1  1.00010471  0.63466705  0.24286571  1
  O  O239  1  0.99505715  0.63125428  0.74430423  1
  O  O240  1  0.37100334  0.25406585  0.00788399  1
  O  O241  1  0.37321957  0.26346128  0.50284466  1
  O  O242  1  0.36866305  0.75547167  0.00415668  1
  O  O243  1  0.37476132  0.76534919  0.50144035  1
  O  O244  1  0.87041430  0.25457154  0.00539113  1
  O  O245  1  0.86888669  0.25087785  0.50815852  1
  O  O246  1  0.86923722  0.75551325  0.00388330  1
  O  O247  1  0.86980749  0.75394692  0.50625863  1
  O  O248  1  0.12724579  0.24264330  0.49363726  1
  O  O249  1  0.13062348  0.24536649  0.99637016  1
  O  O250  1  0.12549650  0.73815321  0.49950098  1
  O  O251  1  0.12935590  0.74505806  0.99459474  1
  O  O252  1  0.63115909  0.24490020  0.49535037  1
  O  O253  1  0.63057145  0.24445708  0.99389768  1
  O  O254  1  0.63072271  0.74494959  0.49369621  1
  O  O255  1  0.62778900  0.74503304  0.99529674  1
  O  O256  1  0.49265704  0.24026282  0.12260990  1
  O  O257  1  0.50053038  0.24065091  0.63045465  1
  O  O258  1  0.49409863  0.75063356  0.13383040  1
  O  O259  1  0.49807024  0.74332009  0.63183822  1
  O  O260  1  0.99056018  0.24676017  0.12839449  1
  O  O261  1  0.99404549  0.24369318  0.62749334  1
  O  O262  1  0.99452223  0.74518375  0.13056268  1
  O  O263  1  0.99410507  0.74458203  0.63150303  1
  O  O264  1  0.00552333  0.25955434  0.37384279  1
  O  O265  1  0.00730194  0.25710016  0.87556051  1
  O  O266  1  0.00164058  0.75024157  0.36163037  1
  O  O267  1  0.00488812  0.75565165  0.86991122  1
  O  O268  1  0.50787301  0.26027038  0.37394198  1
  O  O269  1  0.50653372  0.25404841  0.87044940  1
  O  O270  1  0.50486387  0.75580083  0.36710684  1
  O  O271  1  0.50335600  0.75581504  0.86938391  1
  O  O272  1  0.24432971  0.12398031  0.49122439  1
  O  O273  1  0.24446874  0.13010353  0.99441100  1
  O  O274  1  0.24125272  0.62615881  0.49343714  1
  O  O275  1  0.24373044  0.63064196  0.99390476  1
  O  O276  1  0.74372180  0.13114669  0.50128663  1
  O  O277  1  0.74542132  0.12942488  0.99425812  1
  O  O278  1  0.74422736  0.63198516  0.49454016  1
  O  O279  1  0.74119111  0.63252058  0.99811296  1
  O  O280  1  0.25707292  0.36754060  0.00217012  1
  O  O281  1  0.25811894  0.37482490  0.50455616  1
  O  O282  1  0.25402772  0.86927382  0.00440470  1
  O  O283  1  0.25845478  0.87818834  0.50429124  1
  O  O284  1  0.75713797  0.36716041  0.00057926  1
  O  O285  1  0.75122319  0.36739665  0.50796443  1
  O  O286  1  0.75526887  0.86980283  0.00381611  1
  O  O287  1  0.75506917  0.86920700  0.50596823  1
  O  O288  1  0.12460222  0.49026670  0.24429118  1
  O  O289  1  0.13022180  0.49524796  0.74482637  1
  O  O290  1  0.13014409  0.99467266  0.24334872  1
  O  O291  1  0.12958711  0.99479202  0.74579238  1
  O  O292  1  0.62450670  0.49170249  0.24145209  1
  O  O293  1  0.62533785  0.49332765  0.74284854  1
  O  O294  1  0.63834406  0.99915557  0.24661948  1
  O  O295  1  0.63168445  0.99181050  0.75031805  1
  O  O296  1  0.36598809  0.00360121  0.25168955  1
  O  O297  1  0.36765464  0.00187178  0.75664176  1
  O  O298  1  0.37257549  0.50262071  0.25248906  1
  O  O299  1  0.36747284  0.50677769  0.75145745  1
  O  O300  1  0.86798296  0.00794071  0.24879197  1
  O  O301  1  0.86909862  0.00483603  0.75645192  1
  O  O302  1  0.87329357  0.50118927  0.26159492  1
  O  O303  1  0.87454273  0.50674717  0.75715140  1
  O  O304  1  0.11895191  0.37231441  0.36943940  1
  O  O305  1  0.12056230  0.37069612  0.87131862  1
  O  O306  1  0.12234020  0.87209432  0.36623709  1
  O  O307  1  0.11922600  0.86981232  0.86940114  1
  O  O308  1  0.61912870  0.37130718  0.36919972  1
  O  O309  1  0.61976134  0.36879149  0.86974851  1
  O  O310  1  0.61869756  0.86752117  0.37325922  1
  O  O311  1  0.61749227  0.86874312  0.86999086  1
  O  O312  1  0.38475885  0.13330989  0.12261446  1
  O  O313  1  0.38789263  0.12644595  0.62433538  1
  O  O314  1  0.37663242  0.63403254  0.12701101  1
  O  O315  1  0.38040082  0.62597706  0.62966604  1
  O  O316  1  0.87709007  0.13131405  0.13420414  1
  O  O317  1  0.87997634  0.13048710  0.63195469  1
  O  O318  1  0.88139293  0.63092420  0.12495293  1
  O  O319  1  0.88024566  0.62998541  0.62901065  1
  O  O320  1  0.26106438  0.24963689  0.11967981  1
  O  O321  1  0.25237413  0.25828702  0.62288059  1
  O  O322  1  0.25364577  0.75561254  0.11882774  1
  O  O323  1  0.25209953  0.76052357  0.62103115  1
  O  O324  1  0.75751734  0.25132119  0.11759082  1
  O  O325  1  0.75507650  0.25535556  0.62118753  1
  O  O326  1  0.75462728  0.75483868  0.11903355  1
  O  O327  1  0.75492672  0.75448239  0.61919436  1
  O  O328  1  0.24424303  0.23957629  0.37649171  1
  O  O329  1  0.24490644  0.24500261  0.88122492  1
  O  O330  1  0.24623055  0.73945628  0.37811697  1
  O  O331  1  0.24322960  0.74536742  0.87983068  1
  O  O332  1  0.74458355  0.24893319  0.38342384  1
  O  O333  1  0.74498982  0.24369920  0.88007688  1
  O  O334  1  0.74560694  0.74546058  0.38007936  1
  O  O335  1  0.74114755  0.74949912  0.88219846  1
  O  O336  1  0.00719359  0.11742419  0.00044285  1
  O  O337  1  0.00546287  0.11947318  0.50690264  1
  O  O338  1  0.00556180  0.62007369  0.00473608  1
  O  O339  1  0.00916756  0.62480589  0.50559156  1
  O  O340  1  0.50509018  0.11972938  0.00652023  1
  O  O341  1  0.50555569  0.12145766  0.50688687  1
  O  O342  1  0.50548382  0.61765427  0.00184332  1
  O  O343  1  0.50606624  0.62557927  0.50477660  1
  O  O344  1  0.49349556  0.37538015  0.49130420  1
  O  O345  1  0.49600588  0.37890282  0.99384161  1
  O  O346  1  0.49372259  0.88018460  0.49553852  1
  O  O347  1  0.49353953  0.87962317  0.99414581  1
  O  O348  1  1.00038292  0.37755656  0.48753002  1
  O  O349  1  0.99465513  0.38094983  0.99541376  1
  O  O350  1  0.99387969  0.88075601  0.50263603  1
  O  O351  1  0.99445757  0.87980918  0.99389908  1
  O  O352  1  0.50066059  0.48663280  0.37622748  1
  O  O353  1  0.49884805  0.49193023  0.88135459  1
  O  O354  1  0.50018845  0.99452520  0.38032210  1
  O  O355  1  0.49393551  0.99411611  0.87956220  1
  O  O356  1  0.99219234  0.49246777  0.37554873  1
  O  O357  1  0.99508265  0.49477452  0.88203989  1
  O  O358  1  0.99829516  0.99703064  0.38536924  1
  O  O359  1  0.99452504  0.99405753  0.88003915  1
  O  O360  1  0.00708101  0.00040528  0.11714526  1
  O  O361  1  0.00554860  0.00626616  0.62147357  1
  O  O362  1  0.00482588  0.50518916  0.11975146  1
  O  O363  1  0.00631731  0.50684411  0.62355895  1
  O  O364  1  0.49918158  0.00895855  0.11839574  1
  O  O365  1  0.50271423  0.00960772  0.61901445  1
  O  O366  1  0.51116102  0.49933188  0.11901058  1
  O  O367  1  0.50729773  0.50736857  0.62244394  1
  O  O368  1  0.23786845  0.37526481  0.25066329  1
  O  O369  1  0.24461717  0.38110340  0.74527348  1
  O  O370  1  0.24473971  0.87965471  0.24395031  1
  O  O371  1  0.24360479  0.88140768  0.74517970  1
  O  O372  1  0.73722329  0.37802315  0.24982860  1
  O  O373  1  0.74203997  0.37577127  0.74359937  1
  O  O374  1  0.75229968  0.88369718  0.24352501  1
  O  O375  1  0.74431370  0.87863478  0.74571829  1
  O  O376  1  0.25025239  0.11970498  0.26015423  1
  O  O377  1  0.25040768  0.11875520  0.75692932  1
  O  O378  1  0.24942135  0.62472789  0.26078758  1
  O  O379  1  0.25324466  0.62081352  0.75396264  1
  O  O380  1  0.75957487  0.11580182  0.24980205  1
  O  O381  1  0.75451730  0.11922039  0.75610980  1
  O  O382  1  0.75253665  0.62329705  0.25827628  1
  O  O383  1  0.75800630  0.62363982  0.75253300  1
  O  O384  1  0.36492294  0.12559533  0.37491771  1
  O  O385  1  0.36808472  0.11810327  0.87506297  1
  O  O386  1  0.36403511  0.62361366  0.37556139  1
  O  O387  1  0.36691466  0.62332948  0.86769396  1
  O  O388  1  0.87289215  0.12359503  0.36369235  1
  O  O389  1  0.86955130  0.11930310  0.87114891  1
  O  O390  1  0.87017279  0.61614786  0.37388767  1
  O  O391  1  0.87437774  0.61865502  0.86888131  1
  O  O392  1  0.12429948  0.37907216  0.13528983  1
  O  O393  1  0.12955902  0.38060830  0.63006536  1
  O  O394  1  0.13097226  0.88087135  0.12880359  1
  O  O395  1  0.12949448  0.88174235  0.63072899  1
  O  O396  1  0.62483217  0.38152601  0.13305099  1
  O  O397  1  0.62946912  0.37989392  0.62979680  1
  O  O398  1  0.63363901  0.87852197  0.12698881  1
  O  O399  1  0.63120905  0.87471057  0.63184573  1
  O  O400  1  0.12334133  0.25894946  0.25639631  1
  O  O401  1  0.12382718  0.25752829  0.75881172  1
  O  O402  1  0.11414871  0.75630958  0.24678224  1
  O  O403  1  0.11882985  0.75577580  0.75492866  1
  O  O404  1  0.62566126  0.25873233  0.25538143  1
  O  O405  1  0.61972068  0.25547831  0.75607906  1
  O  O406  1  0.61548179  0.75214482  0.25495738  1
  O  O407  1  0.61805249  0.75483064  0.75579735  1
  O  O408  1  0.37895859  0.24723655  0.23773687  1
  O  O409  1  0.38399385  0.24693500  0.74758894  1
  O  O410  1  0.38417239  0.75055208  0.24419076  1
  O  O411  1  0.38068305  0.74377793  0.74792326  1
  O  O412  1  0.87386256  0.24100644  0.24456313  1
  O  O413  1  0.87622481  0.24286659  0.74492575  1
  O  O414  1  0.88485503  0.74996856  0.24232096  1
  O  O415  1  0.88035837  0.74523294  0.74490153  1
  O  O416  1  0.37757581  0.48669416  0.49554321  1
  O  O417  1  0.38171612  0.49261881  0.99971280  1
  O  O418  1  0.38273205  0.99038493  0.49713735  1
  O  O419  1  0.37949657  0.99353390  0.99399831  1
  O  O420  1  0.87725079  0.49760508  0.48755373  1
  O  O421  1  0.88052000  0.49474039  0.99591753  1
  O  O422  1  0.88119855  0.99341184  0.50193152  1
  O  O423  1  0.87964831  0.99452945  0.99436182  1
  O  O424  1  0.12033703  0.00484731  0.00430665  1
  O  O425  1  0.11944022  0.00569525  0.50753093  1
  O  O426  1  0.11859120  0.50480790  0.00494427  1
  O  O427  1  0.12375552  0.51147538  0.50650960  1
  O  O428  1  0.61779758  0.00675015  0.00009774  1
  O  O429  1  0.61994777  0.00670964  0.50161622  1
  O  O430  1  0.62013923  0.50285004  0.00729649  1
  O  O431  1  0.62354488  0.50777919  0.50604036  1
  O  O432  1  0.37734134  0.36334801  0.11945814  1
  O  O433  1  0.36983645  0.37569174  0.61584438  1
  O  O434  1  0.36821241  0.86963360  0.11806521  1
  O  O435  1  0.36929727  0.87690066  0.61509054  1
  O  O436  1  0.87406834  0.36899856  0.11991710  1
  O  O437  1  0.86941983  0.36913257  0.62479400  1
  O  O438  1  0.86964212  0.86880498  0.11706707  1
  O  O439  1  0.86875280  0.86763249  0.62129538  1
  O  O440  1  0.13252581  0.12966695  0.38039536  1
  O  O441  1  0.13072874  0.13058362  0.88131445  1
  O  O442  1  0.13133543  0.62517125  0.38406418  1
  O  O443  1  0.12894587  0.63098299  0.87995182  1
  O  O444  1  0.62721505  0.13297389  0.38165046  1
  O  O445  1  0.63046883  0.13019384  0.87972300  1
  O  O446  1  0.63021190  0.63070178  0.38025536  1
  O  O447  1  0.62374240  0.63149036  0.88147730  1
