# generated using pymatgen
data_V3Zn3O8
_symmetry_space_group_name_H-M   'P 1'
_cell_length_a   17.08824390
_cell_length_b   17.08836160
_cell_length_c   17.08988919
_cell_angle_alpha   89.98163802
_cell_angle_beta   90.00179688
_cell_angle_gamma   89.98667499
_symmetry_Int_Tables_number   1
_chemical_formula_structural   V3Zn3O8
_chemical_formula_sum   'V96 Zn96 O256'
_cell_volume   4990.41970288
_cell_formula_units_Z   32
loop_
 _symmetry_equiv_pos_site_id
 _symmetry_equiv_pos_as_xyz
  1  'x, y, z'
loop_
 _atom_site_type_symbol
 _atom_site_label
 _atom_site_symmetry_multiplicity
 _atom_site_fract_x
 _atom_site_fract_y
 _atom_site_fract_z
 _atom_site_occupancy
  V  V0  1  -0.00016131  0.62474297  0.62602762  1
  V  V1  1  0.00059980  0.87484653  0.87497268  1
  V  V2  1  0.12561280  0.25093187  0.87450117  1
  V  V3  1  0.00042035  0.37495475  0.37615887  1
  V  V4  1  0.37516079  0.50133118  0.87466872  1
  V  V5  1  -0.00041824  0.00171033  -0.00019612  1
  V  V6  1  0.50005480  0.74911250  0.24980840  1
  V  V7  1  0.12445297  0.12511555  0.00023026  1
  V  V8  1  -0.00028812  0.49910695  0.50070845  1
  V  V9  1  0.12442327  0.75009246  0.87533864  1
  V  V10  1  0.37508451  0.62541999  0.24954321  1
  V  V11  1  0.24851532  0.87631734  0.12541084  1
  V  V12  1  0.50109923  0.00027135  0.00015829  1
  V  V13  1  0.62473051  0.62486226  0.50049399  1
  V  V14  1  0.49888490  0.87449350  0.87448388  1
  V  V15  1  0.62565028  0.24905968  0.87497982  1
  V  V16  1  0.74974462  0.50032226  0.25244399  1
  V  V17  1  0.37583456  -0.00007934  0.37425725  1
  V  V18  1  0.74997427  0.87511902  0.12460714  1
  V  V19  1  0.25061296  0.12560564  0.87535521  1
  V  V20  1  0.75358216  0.50014487  0.75259474  1
  V  V21  1  0.12434877  0.62536301  0.00069915  1
  V  V22  1  0.37489008  -0.00075307  0.87444670  1
  V  V23  1  0.49964577  -0.00035511  0.49860046  1
  V  V24  1  0.75074314  0.62426392  0.37571870  1
  V  V25  1  0.75024498  0.24886281  0.49975432  1
  V  V26  1  0.62518229  0.49935258  0.62534512  1
  V  V27  1  0.00022751  0.24873174  0.74836097  1
  V  V28  1  0.12409962  0.50152704  0.12597890  1
  V  V29  1  0.62550029  0.74977270  0.37506765  1
  V  V30  1  0.12586053  0.62664359  0.49932569  1
  V  V31  1  0.75118645  0.37266992  0.62414980  1
  V  V32  1  -0.00104673  0.12600352  0.12379394  1
  V  V33  1  0.37500699  0.74984152  0.12516975  1
  V  V34  1  0.50003881  0.37528989  0.87476697  1
  V  V35  1  0.37432839  0.50031513  0.37450915  1
  V  V36  1  0.62521282  0.12451999  0.49879816  1
  V  V37  1  0.00097107  0.87613685  0.37539166  1
  V  V38  1  0.50023678  0.74951083  0.74988502  1
  V  V39  1  0.62525431  0.37441623  0.74972083  1
  V  V40  1  0.25032181  0.37598622  0.62564481  1
  V  V41  1  0.87513248  0.87526159  -0.00000345  1
  V  V42  1  0.50061334  0.24979209  0.74939432  1
  V  V43  1  0.24963558  0.12499525  0.37330553  1
  V  V44  1  0.62466810  0.87456521  0.74944771  1
  V  V45  1  0.62560357  0.74965271  0.87517277  1
  V  V46  1  0.37435822  0.87414123  -0.00055670  1
  V  V47  1  0.62483581  -0.00153039  0.62506140  1
  V  V48  1  0.37528695  0.24986882  0.62340704  1
  V  V49  1  0.12448396  0.24940220  0.37459520  1
  V  V50  1  0.49941421  0.62480592  0.62537974  1
  V  V51  1  0.75031532  0.74979792  0.50126967  1
  V  V52  1  0.49961865  0.37505070  0.37348921  1
  V  V53  1  0.24888282  0.62618556  0.37595450  1
  V  V54  1  0.74936940  0.12619330  0.87533536  1
  V  V55  1  0.12381803  0.12454477  0.49976966  1
  V  V56  1  0.37568830  0.37436399  0.49950196  1
  V  V57  1  0.74908065  -0.00086854  0.75008950  1
  V  V58  1  0.49934899  0.12404551  0.62390120  1
  V  V59  1  0.62438975  0.37574918  0.25069640  1
  V  V60  1  -0.00063208  0.25015274  0.25101437  1
  V  V61  1  0.62541267  0.87450823  0.24954960  1
  V  V62  1  0.87582131  0.75009846  0.12508937  1
  V  V63  1  -0.00058182  0.74949568  0.75053505  1
  V  V64  1  0.12326646  0.00046503  0.62513200  1
  V  V65  1  0.49985213  0.49958775  0.50004950  1
  V  V66  1  0.24963461  0.62583474  0.87554303  1
  V  V67  1  0.25103013  0.25101733  -0.00026189  1
  V  V68  1  0.87357253  -0.00008287  0.37461292  1
  V  V69  1  0.87523593  0.74954536  0.62579827  1
  V  V70  1  0.62595681  0.62480283  0.00062551  1
  V  V71  1  0.62348268  0.00040352  0.12352124  1
  V  V72  1  0.37461185  0.62476284  0.75060270  1
  V  V73  1  0.25018256  0.37447481  0.12404615  1
  V  V74  1  0.74970195  0.00053917  0.24936608  1
  V  V75  1  0.00072837  0.62539709  0.12616331  1
  V  V76  1  0.37421974  0.75024593  0.62379035  1
  V  V77  1  0.49927405  0.24990486  0.24731376  1
  V  V78  1  0.87398496  0.87468052  0.50028595  1
  V  V79  1  0.12575795  0.50014200  0.62559577  1
  V  V80  1  0.25062169  0.87405926  0.62284946  1
  V  V81  1  0.87358550  0.25177028  0.12541935  1
  V  V82  1  0.37586579  0.12607398  0.24786923  1
  V  V83  1  0.00110743  0.75114715  0.25117408  1
  V  V84  1  0.50000485  0.87544877  0.37491232  1
  V  V85  1  -0.00066354  0.37749795  0.87679034  1
  V  V86  1  0.87359940  0.12457739  0.25010095  1
  V  V87  1  0.75005505  0.74947715  -0.00026189  1
  V  V88  1  0.87514085  0.49985710  0.37780566  1
  V  V89  1  0.24949125  0.50015182  0.24968964  1
  V  V90  1  0.25020578  0.00028681  0.24888153  1
  V  V91  1  0.50031800  0.50048603  0.00099389  1
  V  V92  1  0.37517943  0.12488759  0.74914719  1
  V  V93  1  0.75076934  0.37595376  0.12507550  1
  V  V94  1  0.25006177  0.00038631  0.74944917  1
  V  V95  1  0.87428912  0.00089262  0.87434532  1
  Zn  Zn96  1  0.49937497  0.62443109  0.12597473  1
  Zn  Zn97  1  0.62322197  0.12714486  0.00156902  1
  Zn  Zn98  1  0.74868845  0.12558370  0.37450257  1
  Zn  Zn99  1  -0.00303618  0.49920118  0.00260366  1
  Zn  Zn100  1  0.87405925  0.37609379  -0.00090447  1
  Zn  Zn101  1  0.87715082  0.24656615  0.62433872  1
  Zn  Zn102  1  -0.00359185  0.00053108  0.50220661  1
  Zn  Zn103  1  0.12742269  0.75247217  0.37661297  1
  Zn  Zn104  1  0.12444643  0.87472392  0.75035029  1
  Zn  Zn105  1  0.37499542  0.87368411  0.49799752  1
  Zn  Zn106  1  0.87480897  0.62516478  0.25119832  1
  Zn  Zn107  1  0.87638536  0.12380365  0.74709868  1
  Zn  Zn108  1  0.12645679  0.37689057  0.75109992  1
  Zn  Zn109  1  0.24932924  0.50027812  0.75176671  1
  Zn  Zn110  1  0.25024333  0.75057330  0.49773142  1
  Zn  Zn111  1  -0.00127379  0.12500510  0.62597449  1
  Zn  Zn112  1  0.87631131  0.50189049  0.87927780  1
  Zn  Zn113  1  0.49995822  0.12576804  0.12205923  1
  Zn  Zn114  1  0.37564558  0.24873724  0.12132557  1
  Zn  Zn115  1  0.87553736  0.62442308  0.75293050  1
  Zn  Zn116  1  0.37563572  0.37386088  -0.00137033  1
  Zn  Zn117  1  0.75032579  0.87433059  0.62576659  1
  Zn  Zn118  1  0.62529803  0.24827037  0.37432165  1
  Zn  Zn119  1  0.24949787  0.75059832  0.00016016  1
  Zn  Zn120  1  0.12454123  0.37530299  0.25116061  1
  Zn  Zn121  1  0.62505495  0.50154163  0.12683444  1
  Zn  Zn122  1  0.75424487  0.62389303  0.87552250  1
  Zn  Zn123  1  0.74941219  0.25104500  -0.00010601  1
  Zn  Zn124  1  0.87637857  0.37216279  0.50223108  1
  Zn  Zn125  1  0.12561901  0.87791893  0.25107588  1
  Zn  Zn126  1  0.25096749  0.24971139  0.49815465  1
  Zn  Zn127  1  0.12345273  0.00061320  0.12619297  1
  Zn  Zn128  1  0.18590225  0.18807483  0.18707210  1
  Zn  Zn129  1  0.18732412  0.18928042  0.68772666  1
  Zn  Zn130  1  0.18702039  0.68945491  0.18914310  1
  Zn  Zn131  1  0.18650065  0.68739793  0.68882662  1
  Zn  Zn132  1  0.68554091  0.18745114  0.18693425  1
  Zn  Zn133  1  0.68755943  0.18563014  0.68676442  1
  Zn  Zn134  1  0.68825814  0.68642888  0.18695412  1
  Zn  Zn135  1  0.68858672  0.68610814  0.68755822  1
  Zn  Zn136  1  0.31186041  0.31182807  0.31081533  1
  Zn  Zn137  1  0.31445353  0.31349827  0.81196829  1
  Zn  Zn138  1  0.31322597  0.81228106  0.31198958  1
  Zn  Zn139  1  0.31034370  0.81128143  0.81036133  1
  Zn  Zn140  1  0.81335084  0.31329038  0.31481284  1
  Zn  Zn141  1  0.81582078  0.31220755  0.81080698  1
  Zn  Zn142  1  0.81363324  0.81259547  0.31288891  1
  Zn  Zn143  1  0.81261382  0.81203874  0.81263843  1
  Zn  Zn144  1  0.18649867  0.43784465  0.43864681  1
  Zn  Zn145  1  0.18507434  0.43947906  0.93913977  1
  Zn  Zn146  1  0.18716106  0.93927315  0.43777717  1
  Zn  Zn147  1  0.18606613  0.93799857  0.93888505  1
  Zn  Zn148  1  0.68680076  0.43512639  0.43725655  1
  Zn  Zn149  1  0.68677263  0.43657181  0.93775592  1
  Zn  Zn150  1  0.68844421  0.93728426  0.43751226  1
  Zn  Zn151  1  0.68682297  0.93770411  0.93715333  1
  Zn  Zn152  1  0.31448564  0.06291824  0.06240717  1
  Zn  Zn153  1  0.31150767  0.06165132  0.55994969  1
  Zn  Zn154  1  0.31148205  0.56314473  0.06167006  1
  Zn  Zn155  1  0.31190402  0.56251719  0.56175930  1
  Zn  Zn156  1  0.81151926  0.06380177  0.06147341  1
  Zn  Zn157  1  0.81329049  0.06350821  0.56425908  1
  Zn  Zn158  1  0.81574038  0.56078175  0.06338895  1
  Zn  Zn159  1  0.81394952  0.56201723  0.56434029  1
  Zn  Zn160  1  0.43582145  0.43733338  0.18559861  1
  Zn  Zn161  1  0.43698223  0.43788821  0.68839228  1
  Zn  Zn162  1  0.43710641  0.93748537  0.18706981  1
  Zn  Zn163  1  0.43700476  0.93690928  0.68654212  1
  Zn  Zn164  1  0.93643968  0.43871635  0.19169470  1
  Zn  Zn165  1  0.93733972  0.43310774  0.68712946  1
  Zn  Zn166  1  0.93672366  0.93846896  0.18722968  1
  Zn  Zn167  1  0.93626723  0.93536288  0.68919665  1
  Zn  Zn168  1  0.06235275  0.06163618  0.31046986  1
  Zn  Zn169  1  0.06355380  0.06315146  0.81284910  1
  Zn  Zn170  1  0.06332830  0.56284639  0.31313712  1
  Zn  Zn171  1  0.06408703  0.56223704  0.81102255  1
  Zn  Zn172  1  0.56352874  0.06385645  0.31156113  1
  Zn  Zn173  1  0.56310903  0.06231903  0.81268057  1
  Zn  Zn174  1  0.56274578  0.56257913  0.31309154  1
  Zn  Zn175  1  0.56462721  0.56242261  0.81346466  1
  Zn  Zn176  1  0.43757868  0.18773449  0.43525019  1
  Zn  Zn177  1  0.43739504  0.18734733  0.93794417  1
  Zn  Zn178  1  0.43589527  0.68803242  0.43792417  1
  Zn  Zn179  1  0.43695946  0.68761427  0.93832439  1
  Zn  Zn180  1  0.93635204  0.18639173  0.43707173  1
  Zn  Zn181  1  0.93462805  0.19124437  0.93763016  1
  Zn  Zn182  1  0.93758368  0.68709234  0.43900979  1
  Zn  Zn183  1  0.93746704  0.68488577  0.93729734  1
  Zn  Zn184  1  0.06336010  0.31260609  0.06213360  1
  Zn  Zn185  1  0.06472446  0.31243714  0.56195168  1
  Zn  Zn186  1  0.06345149  0.81246725  0.06151595  1
  Zn  Zn187  1  0.06249887  0.81150257  0.56164230  1
  Zn  Zn188  1  0.56639827  0.31350242  0.06202249  1
  Zn  Zn189  1  0.56425889  0.31184822  0.56196974  1
  Zn  Zn190  1  0.56135274  0.81270557  0.06295654  1
  Zn  Zn191  1  0.56213719  0.81295042  0.56213176  1
  O  O192  1  0.11706135  0.12478008  0.11752739  1
  O  O193  1  0.12779830  0.11610923  0.61659152  1
  O  O194  1  0.12067183  0.62155061  0.12107502  1
  O  O195  1  0.11984383  0.61973956  0.61944393  1
  O  O196  1  0.62218588  0.11603940  0.12217341  1
  O  O197  1  0.61760552  0.11799929  0.61986529  1
  O  O198  1  0.62252228  0.62425361  0.11267041  1
  O  O199  1  0.61835787  0.61949828  0.61961583  1
  O  O200  1  0.37941708  0.38095225  0.37953247  1
  O  O201  1  0.38285004  0.38237897  0.87566673  1
  O  O202  1  0.38214389  0.88202424  0.37509387  1
  O  O203  1  0.37909486  0.87958619  0.87842316  1
  O  O204  1  0.88243262  0.38188316  0.37887538  1
  O  O205  1  0.88721532  0.37601701  0.87575032  1
  O  O206  1  0.88250873  0.87962305  0.37978870  1
  O  O207  1  0.88024551  0.88042798  0.88165284  1
  O  O208  1  0.25570678  0.00509753  0.36890791  1
  O  O209  1  0.25531743  0.00521932  0.86980452  1
  O  O210  1  0.25566145  0.50464802  0.36973484  1
  O  O211  1  0.25675839  0.50697580  0.87489007  1
  O  O212  1  0.75614556  -0.00040807  0.36666711  1
  O  O213  1  0.75364901  0.00691309  0.87019095  1
  O  O214  1  0.75442372  0.50482686  0.37260727  1
  O  O215  1  0.74947049  0.49797804  0.86291931  1
  O  O216  1  0.24502296  0.49324697  0.12953161  1
  O  O217  1  0.24626336  0.49050220  0.62536344  1
  O  O218  1  0.25129508  0.99066549  0.12980726  1
  O  O219  1  0.24342461  0.99341097  0.62908193  1
  O  O220  1  0.74959371  0.49135863  0.13351677  1
  O  O221  1  0.74375227  0.49399158  0.63186646  1
  O  O222  1  0.74510008  0.99357935  0.12951813  1
  O  O223  1  0.74200416  0.99802787  0.63188772  1
  O  O224  1  0.00195111  0.36772550  0.25783243  1
  O  O225  1  0.00368307  0.36559641  0.75808705  1
  O  O226  1  -0.00082893  0.86838077  0.25803160  1
  O  O227  1  0.00207055  0.86836422  0.75781024  1
  O  O228  1  0.50307251  0.36930578  0.25369986  1
  O  O229  1  0.50562791  0.36953154  0.75417362  1
  O  O230  1  0.50596862  0.86925700  0.25564810  1
  O  O231  1  0.50422399  0.86912652  0.75508848  1
  O  O232  1  0.49507265  0.13506285  0.24910228  1
  O  O233  1  0.49458292  0.12951744  0.74382348  1
  O  O234  1  0.49382376  0.63094146  0.24931143  1
  O  O235  1  0.49600275  0.63022166  0.74501305  1
  O  O236  1  0.99318034  0.12986680  0.24392827  1
  O  O237  1  1.00071570  0.13651640  0.75106256  1
  O  O238  1  0.99889879  0.63627834  0.24632148  1
  O  O239  1  0.99941290  0.63164907  0.74282689  1
  O  O240  1  0.36751506  0.25338147  0.00121990  1
  O  O241  1  0.37469950  0.25591952  0.50578781  1
  O  O242  1  0.37353862  0.75682725  0.00619538  1
  O  O243  1  0.37237317  0.75296169  0.50852649  1
  O  O244  1  0.86991623  0.25471991  0.00970868  1
  O  O245  1  0.86282025  0.24956101  0.50144499  1
  O  O246  1  0.86991255  0.75611537  0.00558110  1
  O  O247  1  0.86948537  0.75478437  0.50560535  1
  O  O248  1  0.12741411  0.23930190  0.49415379  1
  O  O249  1  0.13119692  0.24359933  0.99396725  1
  O  O250  1  0.12764863  0.74156079  0.49772261  1
  O  O251  1  0.12647431  0.74355774  0.99330387  1
  O  O252  1  0.63275116  0.24323559  0.49917144  1
  O  O253  1  0.62824270  0.24808793  0.99049220  1
  O  O254  1  0.62936610  0.74417953  0.49474458  1
  O  O255  1  0.62899115  0.74343186  0.99551274  1
  O  O256  1  0.49878763  0.25209244  0.13624438  1
  O  O257  1  0.49532442  0.24405534  0.62991010  1
  O  O258  1  0.49314105  0.74961186  0.13229007  1
  O  O259  1  0.49527608  0.74424826  0.63044676  1
  O  O260  1  0.99430634  0.24554852  0.13088332  1
  O  O261  1  1.00336343  0.24928465  0.63623908  1
  O  O262  1  0.99571629  0.74755688  0.13330003  1
  O  O263  1  0.99518968  0.74491795  0.63026697  1
  O  O264  1  0.00453381  0.25457609  0.37053722  1
  O  O265  1  0.00574367  0.25706726  0.86858767  1
  O  O266  1  -0.00214894  0.75971501  0.36716845  1
  O  O267  1  0.00478875  0.75576831  0.87065950  1
  O  O268  1  0.49972941  0.25686740  0.36375869  1
  O  O269  1  0.50455933  0.25497008  0.86796069  1
  O  O270  1  0.50604080  0.75468239  0.36997195  1
  O  O271  1  0.50500724  0.75521371  0.86931675  1
  O  O272  1  0.24003322  0.12506636  0.49275466  1
  O  O273  1  0.24555399  0.12991950  0.99410694  1
  O  O274  1  0.24388606  0.62522732  0.49366145  1
  O  O275  1  0.24307512  0.62784023  0.99370030  1
  O  O276  1  0.74314641  0.13313265  0.49979150  1
  O  O277  1  0.74689302  0.12555642  0.98647742  1
  O  O278  1  0.74336952  0.62963940  0.49598815  1
  O  O279  1  0.74066737  0.63011811  1.00042163  1
  O  O280  1  0.25010867  0.37025863  0.00837445  1
  O  O281  1  0.25717056  0.37399000  0.50941249  1
  O  O282  1  0.25628012  0.87532278  0.00905512  1
  O  O283  1  0.25176669  0.87562029  0.51186162  1
  O  O284  1  0.74897523  0.37507372  0.01390786  1
  O  O285  1  0.74809001  0.36481298  0.50614257  1
  O  O286  1  0.75527909  0.86975150  0.00510474  1
  O  O287  1  0.75580227  0.86700717  0.50097385  1
  O  O288  1  0.13261335  0.49901647  0.24396666  1
  O  O289  1  0.12927290  0.49745635  0.74050881  1
  O  O290  1  0.13377941  0.99832166  0.24604859  1
  O  O291  1  0.13198607  1.00041006  0.74059300  1
  O  O292  1  0.63082026  0.49441386  0.24923049  1
  O  O293  1  0.63171815  0.49415378  0.74464995  1
  O  O294  1  0.62981576  0.99321627  0.24424118  1
  O  O295  1  0.62833637  0.99371965  0.74477231  1
  O  O296  1  0.37057380  0.00594918  0.25564528  1
  O  O297  1  0.37021042  0.00565214  0.75478523  1
  O  O298  1  0.36973231  0.50545854  0.25523762  1
  O  O299  1  0.37579273  0.50787573  0.75699951  1
  O  O300  1  0.86857300  0.00489450  0.25390568  1
  O  O301  1  0.86780277  -0.00036129  0.75772297  1
  O  O302  1  0.86758188  0.50305729  0.26006167  1
  O  O303  1  0.86255877  0.49902992  0.74910850  1
  O  O304  1  0.11923201  0.36771655  0.37483110  1
  O  O305  1  0.11791437  0.36869763  0.87400932  1
  O  O306  1  0.11334378  0.87500787  0.37420487  1
  O  O307  1  0.11851704  0.86963400  0.87420367  1
  O  O308  1  0.61630281  0.37371568  0.36835100  1
  O  O309  1  0.61923302  0.36914193  0.86850347  1
  O  O310  1  0.62016989  0.86899516  0.36891015  1
  O  O311  1  0.61819080  0.86931136  0.86949736  1
  O  O312  1  0.37847030  0.12782979  0.13279111  1
  O  O313  1  0.37935203  0.12927528  0.62932325  1
  O  O314  1  0.37524001  0.63147613  0.13174122  1
  O  O315  1  0.38083238  0.62937446  0.63019110  1
  O  O316  1  0.87911704  0.13114969  0.13007233  1
  O  O317  1  0.88140459  0.12725700  0.62913644  1
  O  O318  1  0.88171914  0.63340323  0.12803332  1
  O  O319  1  0.88260734  0.63185106  0.62675548  1
  O  O320  1  0.24901781  0.25951491  0.11944604  1
  O  O321  1  0.25673118  0.25910526  0.62297759  1
  O  O322  1  0.25605960  0.76072338  0.12572027  1
  O  O323  1  0.25477095  0.75989430  0.62588902  1
  O  O324  1  0.75445556  0.26052844  0.12725814  1
  O  O325  1  0.74827112  0.25455385  0.61594731  1
  O  O326  1  0.75529252  0.75608914  0.11983295  1
  O  O327  1  0.75575187  0.75063870  0.61873460  1
  O  O328  1  0.24368613  0.24279996  0.37519792  1
  O  O329  1  0.24628585  0.24516845  0.87891578  1
  O  O330  1  0.24809326  0.74296797  0.37601664  1
  O  O331  1  0.24308115  0.74433491  0.87607510  1
  O  O332  1  0.74721538  0.24884029  0.38636131  1
  O  O333  1  0.74479866  0.24176555  0.87271530  1
  O  O334  1  0.74480379  0.74477367  0.38059201  1
  O  O335  1  0.74281842  0.74936497  0.88247616  1
  O  O336  1  0.00396304  0.12146679  0.00386962  1
  O  O337  1  0.01304429  0.12208180  0.50063315  1
  O  O338  1  0.00710856  0.62497047  0.00922548  1
  O  O339  1  0.00582322  0.61917284  0.50609210  1
  O  O340  1  0.50205114  0.11587683  0.00049448  1
  O  O341  1  0.50438052  0.11953454  0.50482726  1
  O  O342  1  0.50868816  0.61733138  -0.00006679  1
  O  O343  1  0.50506446  0.61908910  0.50518172  1
  O  O344  1  0.49542956  0.38026971  0.49486171  1
  O  O345  1  0.50135999  0.38548849  0.99395592  1
  O  O346  1  0.49964967  0.88185981  0.49256067  1
  O  O347  1  0.49394055  0.87939409  0.99314313  1
  O  O348  1  1.00014417  0.38123150  0.49428316  1
  O  O349  1  1.00003377  0.37502199  0.98897401  1
  O  O350  1  0.99371820  0.87538761  0.48983359  1
  O  O351  1  0.99413162  0.88100064  0.99534761  1
  O  O352  1  0.49361403  0.49516515  0.38054868  1
  O  O353  1  0.49661439  0.49567899  0.88245096  1
  O  O354  1  0.49561120  0.99474036  0.37865422  1
  O  O355  1  0.49412827  0.99337153  0.87838567  1
  O  O356  1  0.99562275  0.49535808  0.38093276  1
  O  O357  1  1.00180748  0.48763520  0.87421676  1
  O  O358  1  0.99313893  0.98974731  0.37372090  1
  O  O359  1  0.99454298  0.99551808  0.88010467  1
  O  O360  1  -0.00078188  0.00739747  0.11773160  1
  O  O361  1  0.01315239  -0.00070633  0.62516222  1
  O  O362  1  0.00668770  0.50747335  0.12918352  1
  O  O363  1  0.00556614  0.50382991  0.62047185  1
  O  O364  1  0.50612235  -0.00157104  0.11811274  1
  O  O365  1  0.50425982  0.00515816  0.61942162  1
  O  O366  1  0.50171975  0.50131797  0.11331117  1
  O  O367  1  0.50515111  0.50493979  0.61993070  1
  O  O368  1  0.24849261  0.38103859  0.24095870  1
  O  O369  1  0.25087578  0.37682954  0.73712013  1
  O  O370  1  0.25077234  0.88112516  0.24063648  1
  O  O371  1  0.24841839  0.88162917  0.73898680  1
  O  O372  1  0.74441814  0.38011028  0.24499524  1
  O  O373  1  0.74399070  0.38064683  0.74452511  1
  O  O374  1  0.74494659  0.87932863  0.24406072  1
  O  O375  1  0.74181228  0.88097086  0.74991434  1
  O  O376  1  0.25526157  0.12027121  0.25416037  1
  O  O377  1  0.25614209  0.12063277  0.75520867  1
  O  O378  1  0.25560636  0.61989411  0.25542364  1
  O  O379  1  0.25750662  0.62399379  0.75653218  1
  O  O380  1  0.75580706  0.11848258  0.25059030  1
  O  O381  1  0.74947828  0.11824118  0.76035410  1
  O  O382  1  0.75038594  0.61944899  0.25803200  1
  O  O383  1  0.74930002  0.61221932  0.75141381  1
  O  O384  1  0.36949618  0.11958675  0.36846907  1
  O  O385  1  0.36984150  0.11900292  0.86825555  1
  O  O386  1  0.36986879  0.61900874  0.36958035  1
  O  O387  1  0.37027414  0.62149922  0.86977466  1
  O  O388  1  0.87367896  0.11719258  0.36763721  1
  O  O389  1  0.86498227  0.11956445  0.87382902  1
  O  O390  1  0.86779660  0.61883451  0.37553521  1
  O  O391  1  0.87174418  0.62032307  0.87083924  1
  O  O392  1  0.13525427  0.38095718  0.12644636  1
  O  O393  1  0.13680019  0.38051342  0.62380637  1
  O  O394  1  0.13706928  0.87729177  0.12530289  1
  O  O395  1  0.13320170  0.88410796  0.62478658  1
  O  O396  1  0.63525808  0.37753122  0.13234371  1
  O  O397  1  0.62954685  0.38054575  0.63069230  1
  O  O398  1  0.63090888  0.87889445  0.13062787  1
  O  O399  1  0.62501008  0.88069141  0.63198869  1
  O  O400  1  0.11685145  0.24959705  0.25749201  1
  O  O401  1  0.11813135  0.25159057  0.75699254  1
  O  O402  1  0.11196251  0.75467414  0.25254221  1
  O  O403  1  0.11742268  0.75181839  0.75698134  1
  O  O404  1  0.61492598  0.25620718  0.25151684  1
  O  O405  1  0.61896808  0.25499760  0.75401508  1
  O  O406  1  0.62071935  0.75488118  0.25549204  1
  O  O407  1  0.61928712  0.75395234  0.75489782  1
  O  O408  1  0.38422537  0.24540845  0.24811494  1
  O  O409  1  0.38154017  0.24405409  0.74389743  1
  O  O410  1  0.38139256  0.74448739  0.24523288  1
  O  O411  1  0.38159180  0.74452524  0.74420825  1
  O  O412  1  0.87997355  0.24402029  0.24589222  1
  O  O413  1  0.88806859  0.24739331  0.74834309  1
  O  O414  1  0.88522429  0.75051328  0.24428573  1
  O  O415  1  0.88118003  0.74961600  0.74337648  1
  O  O416  1  0.38151623  0.49478980  0.49444272  1
  O  O417  1  0.38616736  0.50146268  0.99354375  1
  O  O418  1  0.38221766  0.99948793  0.49227687  1
  O  O419  1  0.38039556  0.99383082  0.99278452  1
  O  O420  1  0.88205335  0.49800931  0.49522081  1
  O  O421  1  0.87965988  0.49403141  0.99778283  1
  O  O422  1  0.87576307  0.99320231  0.49344834  1
  O  O423  1  0.87978592  0.99460701  0.99426234  1
  O  O424  1  0.11736902  0.00797851  0.00108688  1
  O  O425  1  0.12402407  0.00832376  0.50850859  1
  O  O426  1  0.12158043  0.50814943  0.00878596  1
  O  O427  1  0.11908867  0.50642511  0.50610767  1
  O  O428  1  0.61794454  -0.00163925  0.00599408  1
  O  O429  1  0.61937209  0.00412158  0.50513216  1
  O  O430  1  0.61668354  0.50865570  -0.00068004  1
  O  O431  1  0.61933484  0.50499111  0.50544373  1
  O  O432  1  0.36103704  0.37482336  0.12165986  1
  O  O433  1  0.36948851  0.37043156  0.61955606  1
  O  O434  1  0.36694904  0.87031272  0.11999420  1
  O  O435  1  0.36594122  0.87030800  0.62405745  1
  O  O436  1  0.86449711  0.36981282  0.12965853  1
  O  O437  1  0.86598790  0.36925850  0.62168871  1
  O  O438  1  0.86951452  0.87024665  0.11904514  1
  O  O439  1  0.87393939  0.86811500  0.61781139  1
  O  O440  1  0.12932475  0.12792292  0.38208244  1
  O  O441  1  0.13221582  0.13020926  0.88082759  1
  O  O442  1  0.13148218  0.62584612  0.38189801  1
  O  O443  1  0.12965181  0.63021096  0.88067880  1
  O  O444  1  0.62743657  0.12676896  0.38328242  1
  O  O445  1  0.63365951  0.13028479  0.87441005  1
  O  O446  1  0.63012294  0.63050412  0.38170376  1
  O  O447  1  0.62649367  0.63110289  0.88573231  1
