# generated using pymatgen
data_V3Zn3O8
_symmetry_space_group_name_H-M   'P 1'
_cell_length_a   17.08752865
_cell_length_b   17.08729181
_cell_length_c   17.08625387
_cell_angle_alpha   90.01192727
_cell_angle_beta   90.00884550
_cell_angle_gamma   90.00350300
_symmetry_Int_Tables_number   1
_chemical_formula_structural   V3Zn3O8
_chemical_formula_sum   'V96 Zn96 O256'
_cell_volume   4988.83719376
_cell_formula_units_Z   32
loop_
 _symmetry_equiv_pos_site_id
 _symmetry_equiv_pos_as_xyz
  1  'x, y, z'
loop_
 _atom_site_type_symbol
 _atom_site_label
 _atom_site_symmetry_multiplicity
 _atom_site_fract_x
 _atom_site_fract_y
 _atom_site_fract_z
 _atom_site_occupancy
  V  V0  1  0.49808056  0.75063959  0.24996697  1
  V  V1  1  0.12471857  0.62576422  0.00124062  1
  V  V2  1  0.87562182  0.12368407  0.75041904  1
  V  V3  1  0.75093470  0.25078668  0.49970115  1
  V  V4  1  0.24959240  0.00026419  0.24827281  1
  V  V5  1  -0.00115925  0.87523534  0.37389622  1
  V  V6  1  0.62598406  0.50059278  0.62524667  1
  V  V7  1  0.62516251  0.75015057  0.37581802  1
  V  V8  1  0.37510733  0.75069865  0.62365040  1
  V  V9  1  0.12535840  -0.00017731  0.62278392  1
  V  V10  1  0.62510859  0.74850011  0.87549908  1
  V  V11  1  0.00113798  0.12454701  0.62380598  1
  V  V12  1  0.74984615  0.24899090  0.00022267  1
  V  V13  1  -0.00131186  0.75047024  0.25135407  1
  V  V14  1  0.50052636  0.74993399  0.74930376  1
  V  V15  1  -0.00210484  0.12514025  0.12399477  1
  V  V16  1  0.12618109  0.74968732  0.37677474  1
  V  V17  1  0.62542480  0.25048933  0.37502291  1
  V  V18  1  0.12504473  0.12471295  -0.00124682  1
  V  V19  1  0.62530887  0.37619950  0.25038125  1
  V  V20  1  0.24954858  0.50074197  0.25222027  1
  V  V21  1  0.12606149  0.24930456  0.37529591  1
  V  V22  1  0.50038066  0.62524769  0.62531441  1
  V  V23  1  0.75133168  0.87322501  0.62369327  1
  V  V24  1  0.74976558  0.37524524  0.12595261  1
  V  V25  1  0.87444503  0.37563361  0.00040947  1
  V  V26  1  0.37496688  0.25003606  0.12563234  1
  V  V27  1  0.74923236  0.62414389  0.87607438  1
  V  V28  1  0.00173439  0.37408792  0.87439219  1
  V  V29  1  0.24892023  0.12475506  0.87455958  1
  V  V30  1  0.75210262  -0.00055029  0.74947464  1
  V  V31  1  0.50175213  0.12489695  0.62455537  1
  V  V32  1  0.49937748  0.37615570  0.37593305  1
  V  V33  1  0.87387890  0.00113158  0.37264754  1
  V  V34  1  0.87602072  0.87589975  -0.00141909  1
  V  V35  1  0.25090508  0.87403350  0.62302891  1
  V  V36  1  0.25058618  0.37393275  0.62760105  1
  V  V37  1  0.87609248  0.74939947  0.62476235  1
  V  V38  1  0.37522115  0.00038299  0.37423264  1
  V  V39  1  0.12378010  0.75115699  0.87394122  1
  V  V40  1  0.50186071  0.25071963  0.75076140  1
  V  V41  1  0.24951512  0.24922566  -0.00071752  1
  V  V42  1  0.37645906  0.37817568  -0.00102844  1
  V  V43  1  0.24979194  0.12547143  0.37441463  1
  V  V44  1  0.75022972  0.12567629  0.37369471  1
  V  V45  1  0.75002656  0.49958482  0.25084443  1
  V  V46  1  0.00115818  0.37465674  0.37511583  1
  V  V47  1  0.00140266  0.49904342  0.50191869  1
  V  V48  1  0.87583465  0.50033667  0.37534881  1
  V  V49  1  0.24881854  0.37489727  0.12541948  1
  V  V50  1  0.49916208  0.87667598  0.37434686  1
  V  V51  1  0.50034062  0.87500090  0.87363666  1
  V  V52  1  0.12453822  0.87365224  0.74935932  1
  V  V53  1  0.12570500  0.12426939  0.49899228  1
  V  V54  1  0.62295443  -0.00015251  0.12304555  1
  V  V55  1  0.37578019  0.12456181  0.74900405  1
  V  V56  1  0.12378398  0.50126348  0.12572560  1
  V  V57  1  0.74782052  0.74794013  0.00042561  1
  V  V58  1  0.62600532  0.00026521  0.62394796  1
  V  V59  1  0.62355510  0.87578059  0.24943192  1
  V  V60  1  0.49916701  0.25069391  0.24994205  1
  V  V61  1  0.62608559  0.24990960  0.87529879  1
  V  V62  1  0.37449429  0.62434180  0.75106687  1
  V  V63  1  0.37547189  0.12632872  0.24887445  1
  V  V64  1  -0.00024371  0.24959376  0.24875793  1
  V  V65  1  0.87382894  0.62436400  0.25153974  1
  V  V66  1  0.50041402  0.49952138  0.50004360  1
  V  V67  1  0.25032699  -0.00024757  0.74834954  1
  V  V68  1  0.24923175  0.75138609  0.00084560  1
  V  V69  1  0.62569813  0.62599588  0.49911823  1
  V  V70  1  0.24901406  0.87611887  0.12386352  1
  V  V71  1  0.87639159  0.37480169  0.50059911  1
  V  V72  1  0.12434004  -0.00001075  0.12426768  1
  V  V73  1  -0.00036696  0.62486919  0.12537843  1
  V  V74  1  0.62623802  0.87470833  0.74866820  1
  V  V75  1  0.74744992  0.87436753  0.12568318  1
  V  V76  1  0.37269691  0.62518471  0.25260395  1
  V  V77  1  0.25125680  0.62436036  0.87515797  1
  V  V78  1  0.12505309  0.37552901  0.25029190  1
  V  V79  1  0.62547087  0.12539926  0.50046515  1
  V  V80  1  0.37541878  0.87538552  0.49906173  1
  V  V81  1  0.50097726  0.00083933  -0.00160430  1
  V  V82  1  0.37551862  -0.00017382  0.87335042  1
  V  V83  1  0.37366668  0.87512545  -0.00110209  1
  V  V84  1  0.87666064  0.24939182  0.62528995  1
  V  V85  1  0.75046824  0.50097792  0.75100385  1
  V  V86  1  0.50030893  0.62358778  0.12455494  1
  V  V87  1  0.75157392  0.37593788  0.62516813  1
  V  V88  1  0.87413038  0.50044390  0.87556235  1
  V  V89  1  0.62543523  0.37475094  0.74982872  1
  V  V90  1  0.00088300  0.62551829  0.62770972  1
  V  V91  1  0.37659435  0.37480030  0.50125458  1
  V  V92  1  0.87451817  0.87415947  0.49911559  1
  V  V93  1  0.87338058  0.74958455  0.12655467  1
  V  V94  1  0.37591912  0.24977944  0.62535650  1
  V  V95  1  0.12699230  0.49868457  0.62801974  1
  Zn  Zn96  1  0.25238682  0.49873964  0.75401835  1
  Zn  Zn97  1  0.24868136  0.62354235  0.37824877  1
  Zn  Zn98  1  0.25139143  0.74760697  0.49835948  1
  Zn  Zn99  1  0.37308490  0.75113871  0.12510703  1
  Zn  Zn100  1  0.74717754  0.00255963  0.24830875  1
  Zn  Zn101  1  0.50190260  0.50040954  -0.00127954  1
  Zn  Zn102  1  -0.00076308  0.87554870  0.87295331  1
  Zn  Zn103  1  0.50085117  0.12633774  0.12160108  1
  Zn  Zn104  1  0.75036268  0.62599870  0.37633378  1
  Zn  Zn105  1  0.25100663  0.24908596  0.50023348  1
  Zn  Zn106  1  0.87184301  0.12628119  0.24803656  1
  Zn  Zn107  1  0.75040583  0.74832242  0.49844558  1
  Zn  Zn108  1  0.50090654  0.00116370  0.49897309  1
  Zn  Zn109  1  0.87605255  -0.00115025  0.87503032  1
  Zn  Zn110  1  -0.00042337  0.50051380  0.00020529  1
  Zn  Zn111  1  0.87554251  0.62664692  0.75203527  1
  Zn  Zn112  1  0.12425473  0.24934859  0.87307926  1
  Zn  Zn113  1  0.49968383  0.37829659  0.87585421  1
  Zn  Zn114  1  -0.00115215  -0.00035471  -0.00250106  1
  Zn  Zn115  1  0.62296478  0.62175877  0.00100356  1
  Zn  Zn116  1  0.87386529  0.24930642  0.12635053  1
  Zn  Zn117  1  -0.00082761  0.75118671  0.75196330  1
  Zn  Zn118  1  0.62425867  0.50002905  0.12433249  1
  Zn  Zn119  1  0.00263665  0.24945262  0.75022094  1
  Zn  Zn120  1  0.37230546  0.50010901  0.37767452  1
  Zn  Zn121  1  0.37656533  0.50042596  0.87457949  1
  Zn  Zn122  1  0.12443794  0.87556449  0.24953172  1
  Zn  Zn123  1  0.12598237  0.37146899  0.75261456  1
  Zn  Zn124  1  0.75172835  0.12170879  0.87625254  1
  Zn  Zn125  1  0.62457294  0.12380474  -0.00056447  1
  Zn  Zn126  1  0.00109803  -0.00026163  0.49787001  1
  Zn  Zn127  1  0.12970011  0.62513935  0.50135353  1
  Zn  Zn128  1  0.18658285  0.18722961  0.18635515  1
  Zn  Zn129  1  0.18589610  0.18837374  0.68915199  1
  Zn  Zn130  1  0.18687677  0.68944802  0.18933102  1
  Zn  Zn131  1  0.18912801  0.68780009  0.68872058  1
  Zn  Zn132  1  0.68502435  0.18619903  0.18655019  1
  Zn  Zn133  1  0.69002282  0.18723297  0.68748848  1
  Zn  Zn134  1  0.68612641  0.68705078  0.18969819  1
  Zn  Zn135  1  0.68930865  0.68749515  0.68764954  1
  Zn  Zn136  1  0.31248472  0.31318277  0.31367883  1
  Zn  Zn137  1  0.31316863  0.31041178  0.81380435  1
  Zn  Zn138  1  0.31076299  0.81328462  0.31122176  1
  Zn  Zn139  1  0.31084699  0.81071972  0.81164512  1
  Zn  Zn140  1  0.81429742  0.31225754  0.31172138  1
  Zn  Zn141  1  0.81420712  0.31224234  0.81272007  1
  Zn  Zn142  1  0.80944509  0.81305094  0.31251587  1
  Zn  Zn143  1  0.81282547  0.80972526  0.81162684  1
  Zn  Zn144  1  0.18894758  0.43715023  0.43996595  1
  Zn  Zn145  1  0.18783914  0.43986697  0.93897004  1
  Zn  Zn146  1  0.18831594  0.93621836  0.43652191  1
  Zn  Zn147  1  0.18588444  0.93856259  0.93681740  1
  Zn  Zn148  1  0.68829834  0.43864030  0.43711185  1
  Zn  Zn149  1  0.68556584  0.43861818  0.93973747  1
  Zn  Zn150  1  0.68830113  0.93739641  0.43765308  1
  Zn  Zn151  1  0.68965728  0.93657304  0.93660258  1
  Zn  Zn152  1  0.31309991  0.06244927  0.06165744  1
  Zn  Zn153  1  0.31276498  0.06194622  0.56043036  1
  Zn  Zn154  1  0.31146726  0.56302033  0.06486948  1
  Zn  Zn155  1  0.31258336  0.56290064  0.56224366  1
  Zn  Zn156  1  0.81057182  0.06148014  0.06304228  1
  Zn  Zn157  1  0.81304418  0.06162014  0.56115990  1
  Zn  Zn158  1  0.81148892  0.56133687  0.06268593  1
  Zn  Zn159  1  0.81339325  0.56408137  0.56185989  1
  Zn  Zn160  1  0.43609496  0.43933749  0.18800450  1
  Zn  Zn161  1  0.43811895  0.43867896  0.68904979  1
  Zn  Zn162  1  0.43654708  0.93846582  0.18537945  1
  Zn  Zn163  1  0.43927343  0.93774902  0.68561637  1
  Zn  Zn164  1  0.93655750  0.43710589  0.18696307  1
  Zn  Zn165  1  0.93768766  0.43871518  0.69079215  1
  Zn  Zn166  1  0.93670704  0.93775916  0.18750498  1
  Zn  Zn167  1  0.94020921  0.93753698  0.68590297  1
  Zn  Zn168  1  0.06201216  0.06238815  0.31038833  1
  Zn  Zn169  1  0.06016708  0.05799524  0.81337005  1
  Zn  Zn170  1  0.06209913  0.56415452  0.31289512  1
  Zn  Zn171  1  0.06386683  0.56056560  0.81354956  1
  Zn  Zn172  1  0.56166236  0.06330641  0.31078379  1
  Zn  Zn173  1  0.56460589  0.06318520  0.81185908  1
  Zn  Zn174  1  0.56197024  0.56267569  0.31285455  1
  Zn  Zn175  1  0.56077684  0.56120030  0.81495117  1
  Zn  Zn176  1  0.43780959  0.18823584  0.43800422  1
  Zn  Zn177  1  0.43774607  0.18844071  0.93755489  1
  Zn  Zn178  1  0.43882465  0.68836337  0.43744361  1
  Zn  Zn179  1  0.43612099  0.68857975  0.93805392  1
  Zn  Zn180  1  0.93912081  0.18654750  0.43746905  1
  Zn  Zn181  1  0.93686820  0.18857801  0.93723971  1
  Zn  Zn182  1  0.93982801  0.68655530  0.44012166  1
  Zn  Zn183  1  0.93761088  0.68889800  0.93817522  1
  Zn  Zn184  1  0.06250221  0.31153608  0.06040190  1
  Zn  Zn185  1  0.06409486  0.31039788  0.56241322  1
  Zn  Zn186  1  0.06164597  0.81162592  0.06344408  1
  Zn  Zn187  1  0.06112593  0.81329418  0.56030128  1
  Zn  Zn188  1  0.56256863  0.31334193  0.06420620  1
  Zn  Zn189  1  0.56330551  0.31262719  0.56311895  1
  Zn  Zn190  1  0.56009078  0.81101656  0.06199813  1
  Zn  Zn191  1  0.56183994  0.81298026  0.56032561  1
  O  O192  1  0.11731494  0.12013495  0.11901765  1
  O  O193  1  0.12152761  0.11942202  0.61918272  1
  O  O194  1  0.11924686  0.62119276  0.12158790  1
  O  O195  1  0.11869929  0.61587588  0.62515755  1
  O  O196  1  0.62173878  0.11536873  0.12152092  1
  O  O197  1  0.62170363  0.12074451  0.62028095  1
  O  O198  1  0.61176174  0.62467443  0.12646734  1
  O  O199  1  0.61945719  0.61991078  0.62049362  1
  O  O200  1  0.38184113  0.37539160  0.38287690  1
  O  O201  1  0.37515886  0.37432457  0.88753607  1
  O  O202  1  0.37948562  0.88077870  0.37871362  1
  O  O203  1  0.38036997  0.88052018  0.87796439  1
  O  O204  1  0.88199200  0.37978873  0.38121601  1
  O  O205  1  0.88128994  0.38045972  0.88045934  1
  O  O206  1  0.87816015  0.88235893  0.37872686  1
  O  O207  1  0.87424665  0.87225704  0.88784059  1
  O  O208  1  0.25556806  0.00569932  0.36796758  1
  O  O209  1  0.25650292  0.00496174  0.86796205  1
  O  O210  1  0.25126765  0.50159789  0.36774077  1
  O  O211  1  0.25315610  0.50890470  0.87383349  1
  O  O212  1  0.75774412  0.00642947  0.37358795  1
  O  O213  1  0.75372115  0.00176622  0.86538725  1
  O  O214  1  0.75851552  0.50019315  0.36903466  1
  O  O215  1  0.75404285  0.50407352  0.87004464  1
  O  O216  1  0.24295691  0.49465679  0.13239680  1
  O  O217  1  0.24245027  0.49102004  0.62588285  1
  O  O218  1  0.24440926  0.99603313  0.12898871  1
  O  O219  1  0.24581263  0.99460478  0.62982292  1
  O  O220  1  0.74966661  0.49287944  0.13372234  1
  O  O221  1  0.74554092  0.49497974  0.63008704  1
  O  O222  1  0.74071005  0.99272404  0.12583656  1
  O  O223  1  0.74528053  0.99345556  0.62952885  1
  O  O224  1  0.00622634  0.37035400  0.25551465  1
  O  O225  1  -0.00028989  0.37335172  0.76256928  1
  O  O226  1  -0.00007712  0.86759449  0.25578701  1
  O  O227  1  0.01005818  0.87272251  0.75003109  1
  O  O228  1  0.50432613  0.37026143  0.25598123  1
  O  O229  1  0.50782828  0.36751346  0.74969902  1
  O  O230  1  0.50313747  0.87012032  0.25456147  1
  O  O231  1  0.50610722  0.86965525  0.75414421  1
  O  O232  1  0.49259533  0.13353464  0.24904619  1
  O  O233  1  0.49546709  0.13067171  0.74430010  1
  O  O234  1  0.49136899  0.62980703  0.24421044  1
  O  O235  1  0.49593007  0.63140475  0.74403896  1
  O  O236  1  1.00054687  0.13118898  0.23879971  1
  O  O237  1  0.98991201  0.12370685  0.74287605  1
  O  O238  1  0.99287075  0.63037048  0.24459704  1
  O  O239  1  0.99954720  0.62427346  0.73748583  1
  O  O240  1  0.36897352  0.25726412  0.00585117  1
  O  O241  1  0.37484959  0.25643804  0.50819216  1
  O  O242  1  0.36680576  0.75825932  0.00094784  1
  O  O243  1  0.37617294  0.75746867  0.50636895  1
  O  O244  1  0.86350439  0.25624694  0.00013145  1
  O  O245  1  0.87028964  0.25566590  0.50461831  1
  O  O246  1  0.86790353  0.75637465  0.00750202  1
  O  O247  1  0.87431099  0.75600596  0.50673456  1
  O  O248  1  0.12747687  0.24299145  0.49236394  1
  O  O249  1  0.13284405  0.24251943  0.99822559  1
  O  O250  1  0.12581191  0.74952970  0.48807303  1
  O  O251  1  0.13028987  0.74506010  0.99484147  1
  O  O252  1  0.63149254  0.24583627  0.49491731  1
  O  O253  1  0.63306685  0.25155560  0.99151436  1
  O  O254  1  0.62451397  0.74366602  0.49355180  1
  O  O255  1  0.63040786  0.74921033  0.99274759  1
  O  O256  1  0.49327754  0.24917533  0.13262477  1
  O  O257  1  0.49641410  0.24451579  0.63130676  1
  O  O258  1  0.49599815  0.74194035  0.13218045  1
  O  O259  1  0.49556499  0.74503737  0.63047164  1
  O  O260  1  1.00039343  0.24037040  0.12966703  1
  O  O261  1  0.99331724  0.24320980  0.62581831  1
  O  O262  1  0.99356916  0.74426996  0.13185105  1
  O  O263  1  0.99608704  0.73947457  0.62469821  1
  O  O264  1  0.00635625  0.25546314  0.36967263  1
  O  O265  1  0.00027536  0.26214144  0.87433833  1
  O  O266  1  0.00587169  0.75524387  0.37047373  1
  O  O267  1  0.00879940  0.75263524  0.87310154  1
  O  O268  1  0.50616877  0.25632341  0.37036526  1
  O  O269  1  0.51017699  0.25184030  0.86928666  1
  O  O270  1  0.50496251  0.75717737  0.36881526  1
  O  O271  1  0.50494505  0.75590511  0.86877000  1
  O  O272  1  0.24439408  0.12650593  0.49224479  1
  O  O273  1  0.24579032  0.12937602  0.99400920  1
  O  O274  1  0.24793250  0.62919631  0.49618942  1
  O  O275  1  0.24470216  0.63171393  0.99672994  1
  O  O276  1  0.74490189  0.13199137  0.49489917  1
  O  O277  1  0.74873164  0.13726677  0.99785174  1
  O  O278  1  0.74137623  0.62644080  0.49769115  1
  O  O279  1  0.74834050  0.63151408  0.99448908  1
  O  O280  1  0.25634391  0.36960702  0.00659265  1
  O  O281  1  0.25678962  0.37299805  0.51198257  1
  O  O282  1  0.25460737  0.87110243  0.00396668  1
  O  O283  1  0.25813585  0.87347644  0.50597692  1
  O  O284  1  0.75413948  0.36666830  0.00498706  1
  O  O285  1  0.75642126  0.37043724  0.50560570  1
  O  O286  1  0.75643211  0.86747703  0.00595070  1
  O  O287  1  0.75654734  0.87311316  0.50676403  1
  O  O288  1  0.12902884  0.49456635  0.24540134  1
  O  O289  1  0.12775274  0.49562551  0.73784657  1
  O  O290  1  0.13219506  0.99931548  0.24256829  1
  O  O291  1  0.13221078  0.99475404  0.74266203  1
  O  O292  1  0.63167428  0.49288576  0.25037538  1
  O  O293  1  0.63029632  0.49446270  0.74414436  1
  O  O294  1  0.62359692  0.99292547  0.24164884  1
  O  O295  1  0.63127220  0.99420646  0.74376038  1
  O  O296  1  0.36940390  0.00648066  0.25429574  1
  O  O297  1  0.37064576  0.00490217  0.75377038  1
  O  O298  1  0.36789425  0.50890909  0.25217158  1
  O  O299  1  0.37360938  0.50954553  0.75115129  1
  O  O300  1  0.87131506  0.00163939  0.26184796  1
  O  O301  1  0.86971098  0.00877699  0.74677858  1
  O  O302  1  0.87062790  0.50423593  0.25649168  1
  O  O303  1  0.86694436  0.50188773  0.75717545  1
  O  O304  1  0.11999192  0.36991956  0.37034442  1
  O  O305  1  0.11446096  0.37546868  0.87594537  1
  O  O306  1  0.11788768  0.86725874  0.37274195  1
  O  O307  1  0.12648959  0.86848605  0.86759477  1
  O  O308  1  0.61993982  0.36909553  0.37099641  1
  O  O309  1  0.62553687  0.36412648  0.86855674  1
  O  O310  1  0.61868405  0.87127220  0.36969723  1
  O  O311  1  0.61999443  0.86908050  0.86774059  1
  O  O312  1  0.37551038  0.13204112  0.13118804  1
  O  O313  1  0.38073644  0.12946323  0.62986226  1
  O  O314  1  0.38095164  0.62678241  0.13678781  1
  O  O315  1  0.38197785  0.63095791  0.63013143  1
  O  O316  1  0.88568049  0.12607606  0.12572100  1
  O  O317  1  0.88017139  0.12944048  0.63032731  1
  O  O318  1  0.87943360  0.63042957  0.13112263  1
  O  O319  1  0.88543174  0.62923646  0.62579102  1
  O  O320  1  0.25468164  0.25575500  0.12007284  1
  O  O321  1  0.25694792  0.25818778  0.62451580  1
  O  O322  1  0.24951360  0.75769891  0.11854297  1
  O  O323  1  0.25777462  0.75720144  0.62394716  1
  O  O324  1  0.74892256  0.25545514  0.11504418  1
  O  O325  1  0.75602418  0.25647267  0.61877459  1
  O  O326  1  0.75408714  0.75445646  0.12102470  1
  O  O327  1  0.75735195  0.75612045  0.62328745  1
  O  O328  1  0.24352139  0.24363440  0.37583757  1
  O  O329  1  0.24958210  0.24143534  0.88142332  1
  O  O330  1  0.23774720  0.74967664  0.37433875  1
  O  O331  1  0.24357054  0.74460285  0.88128265  1
  O  O332  1  0.74519089  0.24649347  0.38094519  1
  O  O333  1  0.74210545  0.25083224  0.88344361  1
  O  O334  1  0.74065432  0.74768970  0.37718810  1
  O  O335  1  0.74384390  0.74390872  0.87992930  1
  O  O336  1  0.00456444  0.12569914  0.00971707  1
  O  O337  1  0.00779869  0.12299375  0.50555540  1
  O  O338  1  0.00660480  0.62467165  0.00806922  1
  O  O339  1  0.00306185  0.61700549  0.51246378  1
  O  O340  1  0.50219554  0.11662773  -0.00005640  1
  O  O341  1  0.50795011  0.12528916  0.50678273  1
  O  O342  1  0.49737386  0.62607562  0.01343443  1
  O  O343  1  0.50518824  0.61934152  0.50625406  1
  O  O344  1  0.49641072  0.37987308  0.49644525  1
  O  O345  1  0.48696743  0.37431880  1.00133477  1
  O  O346  1  0.49367989  0.87824848  0.49240005  1
  O  O347  1  0.49373204  0.87971712  0.99213238  1
  O  O348  1  0.99529856  0.37895010  0.49497225  1
  O  O349  1  0.99336921  0.37652121  0.99196546  1
  O  O350  1  0.99178861  0.87778056  0.49195642  1
  O  O351  1  0.98585449  0.87451688  1.00259177  1
  O  O352  1  0.49874918  0.49294593  0.38256380  1
  O  O353  1  0.49474416  0.49561938  0.88016510  1
  O  O354  1  0.49277163  0.99446381  0.37477214  1
  O  O355  1  0.49539635  0.99413125  0.87712737  1
  O  O356  1  0.99633181  0.49362213  0.38107412  1
  O  O357  1  0.99370887  0.49176053  0.87727416  1
  O  O358  1  0.99039143  0.99503849  0.37417896  1
  O  O359  1  0.99394407  0.99351111  0.88031530  1
  O  O360  1  0.00473258  0.01008612  0.12424638  1
  O  O361  1  0.00807616  0.00662528  0.62089572  1
  O  O362  1  0.00608590  0.50682340  0.12510925  1
  O  O363  1  0.00769559  0.50484701  0.62203420  1
  O  O364  1  0.50599983  -0.00001947  0.11624720  1
  O  O365  1  0.50836292  0.00738488  0.62425580  1
  O  O366  1  0.50032929  0.51206162  0.12562840  1
  O  O367  1  0.50724559  0.50540012  0.62018022  1
  O  O368  1  0.24429401  0.37991145  0.24487447  1
  O  O369  1  0.25154175  0.37606197  0.73822337  1
  O  O370  1  0.24914083  0.88318734  0.24203175  1
  O  O371  1  0.24571936  0.88093577  0.74299380  1
  O  O372  1  0.74519385  0.37905241  0.24592302  1
  O  O373  1  0.74553600  0.38044701  0.74407323  1
  O  O374  1  0.74108957  0.87624037  0.24270227  1
  O  O375  1  0.74508592  0.87918606  0.74343313  1
  O  O376  1  0.25563790  0.12047411  0.25463598  1
  O  O377  1  0.25679690  0.11888517  0.75371012  1
  O  O378  1  0.25834699  0.62005911  0.25037934  1
  O  O379  1  0.25759694  0.62475505  0.75710889  1
  O  O380  1  0.75134696  0.12386213  0.25803020  1
  O  O381  1  0.76112584  0.11855930  0.74767367  1
  O  O382  1  0.75690184  0.61825525  0.25218079  1
  O  O383  1  0.75078904  0.61798165  0.75736805  1
  O  O384  1  0.36983333  0.12097109  0.36918259  1
  O  O385  1  0.36995302  0.11939439  0.86814199  1
  O  O386  1  0.37552317  0.62411811  0.36268889  1
  O  O387  1  0.36832208  0.62679912  0.86861329  1
  O  O388  1  0.86970114  0.11679950  0.37493911  1
  O  O389  1  0.87380042  0.12454204  0.86173877  1
  O  O390  1  0.87635396  0.61757240  0.36967326  1
  O  O391  1  0.86834388  0.61875285  0.87495525  1
  O  O392  1  0.12946207  0.38017726  0.13049502  1
  O  O393  1  0.13370151  0.38130853  0.62537082  1
  O  O394  1  0.13070524  0.88187075  0.12571052  1
  O  O395  1  0.13116212  0.87997252  0.62812944  1
  O  O396  1  0.63180885  0.37534551  0.13370495  1
  O  O397  1  0.63213104  0.38051826  0.62961593  1
  O  O398  1  0.62771733  0.87981224  0.12941843  1
  O  O399  1  0.63014427  0.87974113  0.62978275  1
  O  O400  1  0.12006418  0.25623625  0.25509837  1
  O  O401  1  0.12054601  0.25337499  0.75486585  1
  O  O402  1  0.11713087  0.75188643  0.25938513  1
  O  O403  1  0.12518363  0.75664857  0.75634434  1
  O  O404  1  0.61939836  0.25618965  0.25640905  1
  O  O405  1  0.62284711  0.25487332  0.75635201  1
  O  O406  1  0.61774436  0.75657146  0.25566136  1
  O  O407  1  0.61988090  0.75573287  0.75444267  1
  O  O408  1  0.37949662  0.24623630  0.24501364  1
  O  O409  1  0.38176468  0.24362485  0.74502213  1
  O  O410  1  0.37940434  0.74175484  0.24897230  1
  O  O411  1  0.38174251  0.74541050  0.74378737  1
  O  O412  1  0.88412068  0.24751528  0.24739070  1
  O  O413  1  0.87494840  0.23988346  0.74299019  1
  O  O414  1  0.87883792  0.74463072  0.24578123  1
  O  O415  1  0.87829152  0.74699368  0.74050123  1
  O  O416  1  0.38352472  0.49310180  0.50054916  1
  O  O417  1  0.37384821  0.48732520  1.00232759  1
  O  O418  1  0.37759756  0.99434053  0.49202329  1
  O  O419  1  0.37980327  0.99481102  0.99187798  1
  O  O420  1  0.88148007  0.49340164  0.49603095  1
  O  O421  1  0.87523319  0.49276432  0.99326356  1
  O  O422  1  0.87560125  0.99434593  0.48817409  1
  O  O423  1  0.87311930  0.98703048  1.00008007  1
  O  O424  1  0.12359128  0.00710905  0.00716373  1
  O  O425  1  0.12498657  0.00615197  0.50501666  1
  O  O426  1  0.12410064  0.50837197  0.00906142  1
  O  O427  1  0.11937766  0.49890280  0.51250417  1
  O  O428  1  0.61910990  -0.00098408  0.00482760  1
  O  O429  1  0.62464071  0.00770700  0.50628128  1
  O  O430  1  0.62068832  0.50335277  0.00641086  1
  O  O431  1  0.62011980  0.50459485  0.50632416  1
  O  O432  1  0.36808046  0.36960016  0.11947394  1
  O  O433  1  0.36927919  0.36989062  0.62141136  1
  O  O434  1  0.36739301  0.87514296  0.11651708  1
  O  O435  1  0.37122069  0.87053032  0.61973046  1
  O  O436  1  0.86846280  0.37218168  0.11862979  1
  O  O437  1  0.87101584  0.37043497  0.61997836  1
  O  O438  1  0.86782208  0.86901340  0.11930688  1
  O  O439  1  0.87124042  0.86983116  0.61897981  1
  O  O440  1  0.13012494  0.12964866  0.37851470  1
  O  O441  1  0.13167267  0.12317972  0.88098004  1
  O  O442  1  0.12382044  0.63669271  0.37742633  1
  O  O443  1  0.13050120  0.63012625  0.88096452  1
  O  O444  1  0.62982172  0.13137750  0.38015410  1
  O  O445  1  0.62938702  0.13818949  0.87445340  1
  O  O446  1  0.62403130  0.63213646  0.38134798  1
  O  O447  1  0.63069497  0.63200375  0.87629756  1
