# generated using pymatgen
data_V3Zn3O8
_symmetry_space_group_name_H-M   'P 1'
_cell_length_a   17.08668392
_cell_length_b   17.08496713
_cell_length_c   17.08412558
_cell_angle_alpha   89.98910839
_cell_angle_beta   90.00175662
_cell_angle_gamma   90.00143334
_symmetry_Int_Tables_number   1
_chemical_formula_structural   V3Zn3O8
_chemical_formula_sum   'V96 Zn96 O256'
_cell_volume   4987.29066710
_cell_formula_units_Z   32
loop_
 _symmetry_equiv_pos_site_id
 _symmetry_equiv_pos_as_xyz
  1  'x, y, z'
loop_
 _atom_site_type_symbol
 _atom_site_label
 _atom_site_symmetry_multiplicity
 _atom_site_fract_x
 _atom_site_fract_y
 _atom_site_fract_z
 _atom_site_occupancy
  V  V0  1  0.74921603  0.62601174  0.87372350  1
  V  V1  1  0.62493380  0.37473183  0.25028525  1
  V  V2  1  0.87655507  0.74815687  0.12580719  1
  V  V3  1  0.49935628  0.12493352  0.12588500  1
  V  V4  1  0.62589509  0.87626023  0.75024704  1
  V  V5  1  0.12410472  0.00132900  0.62692956  1
  V  V6  1  0.87480433  0.50011206  0.37305933  1
  V  V7  1  0.37714352  0.74938555  0.12575905  1
  V  V8  1  0.24964395  0.37446667  0.12441899  1
  V  V9  1  0.74905071  0.24821168  -0.00114181  1
  V  V10  1  0.75045983  0.25085030  0.49963569  1
  V  V11  1  0.12478120  0.87544339  0.75142064  1
  V  V12  1  -0.00065581  0.74965198  0.74907760  1
  V  V13  1  0.49950650  0.50072415  0.50085428  1
  V  V14  1  0.87447375  0.37486161  0.49887205  1
  V  V15  1  0.87573509  0.87569025  0.00003054  1
  V  V16  1  0.50004430  0.12513245  0.62414450  1
  V  V17  1  0.75067627  0.62479253  0.37461837  1
  V  V18  1  0.37366786  0.49967871  0.37475222  1
  V  V19  1  0.75117164  0.87470094  0.62534593  1
  V  V20  1  0.50084961  0.62410680  0.12521408  1
  V  V21  1  0.62430763  0.12489168  0.49941260  1
  V  V22  1  0.62446036  0.25061352  0.37383407  1
  V  V23  1  0.62520693  0.87500440  0.25092871  1
  V  V24  1  0.12656417  0.75037200  0.87485821  1
  V  V25  1  0.74947164  0.37585860  0.62381525  1
  V  V26  1  0.12618435  0.62443324  -0.00033467  1
  V  V27  1  0.49933659  0.87375381  0.37642878  1
  V  V28  1  0.37520850  0.24896945  0.12487866  1
  V  V29  1  0.49899914  0.75030557  0.74960295  1
  V  V30  1  0.49995058  0.37507468  0.37483813  1
  V  V31  1  0.24910685  0.49989488  0.74946791  1
  V  V32  1  0.50098207  0.87489878  0.87468282  1
  V  V33  1  0.50002242  0.25150632  0.74979341  1
  V  V34  1  0.24857638  0.37585795  0.62548251  1
  V  V35  1  0.00149248  0.62507392  0.12323671  1
  V  V36  1  0.49989835  0.00008213  0.50042612  1
  V  V37  1  0.50148781  0.00011091  0.00028518  1
  V  V38  1  0.37437368  0.25042333  0.62508723  1
  V  V39  1  0.12469379  0.25219653  0.87501033  1
  V  V40  1  0.75111809  0.50067870  0.24981588  1
  V  V41  1  0.50070651  0.49929623  0.00004063  1
  V  V42  1  0.75007132  0.00071217  0.75074987  1
  V  V43  1  0.62585579  0.75008684  0.87567794  1
  V  V44  1  0.87541429  -0.00062580  0.37723156  1
  V  V45  1  0.25036453  0.00074709  0.75144615  1
  V  V46  1  0.49878434  0.62560136  0.62541680  1
  V  V47  1  0.25024906  0.49963492  0.24988316  1
  V  V48  1  0.24903675  0.24929134  0.49981272  1
  V  V49  1  0.00036694  -0.00062632  -0.00039735  1
  V  V50  1  -0.00107838  0.25281137  0.75087358  1
  V  V51  1  0.25040813  -0.00145561  0.25001961  1
  V  V52  1  0.62530157  -0.00077247  0.12663194  1
  V  V53  1  0.74876827  -0.00066827  0.25128584  1
  V  V54  1  0.24895948  0.75040464  0.50030896  1
  V  V55  1  0.37619125  0.37510183  -0.00024811  1
  V  V56  1  0.87535255  0.62597529  0.74903041  1
  V  V57  1  0.62443431  0.37545909  0.74898130  1
  V  V58  1  0.12515203  0.24913059  0.37423872  1
  V  V59  1  0.24907363  0.12461284  0.37561106  1
  V  V60  1  0.62554872  0.74886518  0.37564968  1
  V  V61  1  0.37677573  0.87508300  0.00080211  1
  V  V62  1  0.37414069  -0.00023679  0.37571687  1
  V  V63  1  0.37356237  0.87423261  0.50058221  1
  V  V64  1  0.12350149  0.62348453  0.49958921  1
  V  V65  1  0.75064298  0.74960976  -0.00069915  1
  V  V66  1  0.87449602  0.49979909  0.87406011  1
  V  V67  1  0.12493094  0.50002543  0.12322048  1
  V  V68  1  0.62568087  0.12499756  0.00030674  1
  V  V69  1  0.00086562  0.50043485  0.49899551  1
  V  V70  1  0.25017609  0.87449809  0.12559262  1
  V  V71  1  0.37588781  0.00076570  0.87457674  1
  V  V72  1  0.74982619  0.37546193  0.12445995  1
  V  V73  1  0.74995565  0.12462226  0.37572377  1
  V  V74  1  -0.00021127  0.87513092  0.37502296  1
  V  V75  1  0.24928528  0.87490387  0.62498681  1
  V  V76  1  0.37451179  0.37459760  0.49990433  1
  V  V77  1  0.12407783  0.37345244  0.24902279  1
  V  V78  1  0.37517687  0.12525330  0.75032608  1
  V  V79  1  0.12447665  0.12529642  0.00091411  1
  V  V80  1  0.37522272  0.12519037  0.24990014  1
  V  V81  1  0.00036892  0.37402440  0.37332014  1
  V  V82  1  0.87514797  0.37574214  -0.00150840  1
  V  V83  1  0.24946211  0.24964188  -0.00023300  1
  V  V84  1  0.12396338  0.75093369  0.37388930  1
  V  V85  1  0.87265016  0.12468951  0.75259930  1
  V  V86  1  0.62502658  0.50015612  0.12442999  1
  V  V87  1  0.50064667  0.74824581  0.25085561  1
  V  V88  1  0.87519785  0.12478595  0.25046800  1
  V  V89  1  0.75152600  0.74960443  0.50061983  1
  V  V90  1  0.74918651  0.49974992  0.74805101  1
  V  V91  1  0.50039754  0.37564901  0.87443816  1
  V  V92  1  0.00112885  0.12466915  0.62460114  1
  V  V93  1  -0.00077770  0.12558676  0.12677098  1
  V  V94  1  0.24948053  0.62431134  0.37439821  1
  V  V95  1  0.25206168  0.62526019  0.87462634  1
  Zn  Zn96  1  0.25103682  0.12507687  0.87597194  1
  Zn  Zn97  1  0.87484092  0.25094119  0.62450070  1
  Zn  Zn98  1  0.87614799  0.74889463  0.62474711  1
  Zn  Zn99  1  0.12438763  0.12360038  0.49928873  1
  Zn  Zn100  1  0.37448296  0.62709141  0.75031221  1
  Zn  Zn101  1  0.37651864  0.50124803  0.87501892  1
  Zn  Zn102  1  0.62451867  0.24821221  0.87346747  1
  Zn  Zn103  1  0.12696308  -0.00113601  0.12601405  1
  Zn  Zn104  1  0.49974700  0.25029076  0.24984275  1
  Zn  Zn105  1  0.87343106  0.00039984  0.87711489  1
  Zn  Zn106  1  0.00230257  0.74986463  0.24890970  1
  Zn  Zn107  1  -0.00056480  0.62310921  0.62354779  1
  Zn  Zn108  1  -0.00028620  -0.00059798  0.50152216  1
  Zn  Zn109  1  0.12310922  0.37645778  0.74849019  1
  Zn  Zn110  1  0.74758708  0.12295843  0.87528281  1
  Zn  Zn111  1  0.12430769  0.87487696  0.24878224  1
  Zn  Zn112  1  0.62509111  0.62295002  0.50065785  1
  Zn  Zn113  1  0.25200249  0.74984459  0.00029540  1
  Zn  Zn114  1  0.62484275  0.00091101  0.62486414  1
  Zn  Zn115  1  0.62423073  0.50052747  0.62350931  1
  Zn  Zn116  1  0.37328412  0.75047715  0.62643705  1
  Zn  Zn117  1  0.00180092  0.87633230  0.87558973  1
  Zn  Zn118  1  0.62529819  0.62487368  -0.00075750  1
  Zn  Zn119  1  -0.00084538  0.37769509  0.87386599  1
  Zn  Zn120  1  0.87755217  0.62506647  0.24923707  1
  Zn  Zn121  1  -0.00174500  0.24933310  0.25052352  1
  Zn  Zn122  1  0.87502866  0.25079526  0.12686490  1
  Zn  Zn123  1  0.37539985  0.62382920  0.25016989  1
  Zn  Zn124  1  0.87587475  0.87690082  0.50167564  1
  Zn  Zn125  1  0.74960753  0.87366619  0.12639624  1
  Zn  Zn126  1  0.12305494  0.49968019  0.62468996  1
  Zn  Zn127  1  0.00088041  0.49905561  -0.00310657  1
  Zn  Zn128  1  0.18697402  0.18646570  0.18803552  1
  Zn  Zn129  1  0.18759042  0.18814329  0.68914248  1
  Zn  Zn130  1  0.18773874  0.68865092  0.18902965  1
  Zn  Zn131  1  0.18439446  0.68626266  0.68543152  1
  Zn  Zn132  1  0.68780293  0.18763681  0.18685880  1
  Zn  Zn133  1  0.68642369  0.18976103  0.68468884  1
  Zn  Zn134  1  0.68836649  0.68635292  0.18721325  1
  Zn  Zn135  1  0.68489543  0.68761024  0.68736663  1
  Zn  Zn136  1  0.31194562  0.31165627  0.31166194  1
  Zn  Zn137  1  0.31293781  0.31414381  0.81332223  1
  Zn  Zn138  1  0.31316660  0.81031371  0.31210853  1
  Zn  Zn139  1  0.31403536  0.81262904  0.81155423  1
  Zn  Zn140  1  0.81300824  0.31156061  0.31174057  1
  Zn  Zn141  1  0.81024957  0.31224066  0.81310031  1
  Zn  Zn142  1  0.81355420  0.81307393  0.31241077  1
  Zn  Zn143  1  0.81416280  0.81319317  0.81386421  1
  Zn  Zn144  1  0.18663185  0.43665151  0.43711344  1
  Zn  Zn145  1  0.18821473  0.43762249  0.93705213  1
  Zn  Zn146  1  0.18409403  0.93877262  0.43991339  1
  Zn  Zn147  1  0.18878375  0.93766961  0.93833459  1
  Zn  Zn148  1  0.68590769  0.43908520  0.43803153  1
  Zn  Zn149  1  0.68602032  0.43744474  0.93507228  1
  Zn  Zn150  1  0.68651777  0.93706858  0.43846649  1
  Zn  Zn151  1  0.68966951  0.93791772  0.93726371  1
  Zn  Zn152  1  0.31283695  0.06228090  0.06147991  1
  Zn  Zn153  1  0.31184909  0.06241561  0.56291766  1
  Zn  Zn154  1  0.31426622  0.56221793  0.06238139  1
  Zn  Zn155  1  0.31258433  0.56333978  0.56268747  1
  Zn  Zn156  1  0.81229951  0.06202223  0.06606798  1
  Zn  Zn157  1  0.81355046  0.06180430  0.56357721  1
  Zn  Zn158  1  0.81179248  0.56313078  0.06068061  1
  Zn  Zn159  1  0.81502580  0.56279101  0.56313929  1
  Zn  Zn160  1  0.43758335  0.43722811  0.18806311  1
  Zn  Zn161  1  0.43470719  0.43959459  0.68816874  1
  Zn  Zn162  1  0.43765656  0.93698608  0.18900165  1
  Zn  Zn163  1  0.43681387  0.93763301  0.68635888  1
  Zn  Zn164  1  0.93857838  0.43846593  0.18544956  1
  Zn  Zn165  1  0.93545659  0.43888834  0.68419743  1
  Zn  Zn166  1  0.93700489  0.93763346  0.18909197  1
  Zn  Zn167  1  0.93635751  0.93749499  0.68908535  1
  Zn  Zn168  1  0.06439161  0.05916035  0.31130074  1
  Zn  Zn169  1  0.06211931  0.06449763  0.81426044  1
  Zn  Zn170  1  0.06198063  0.56318127  0.30987518  1
  Zn  Zn171  1  0.06259654  0.56302630  0.81323034  1
  Zn  Zn172  1  0.56153477  0.06264026  0.31318333  1
  Zn  Zn173  1  0.56394507  0.06311013  0.81254363  1
  Zn  Zn174  1  0.56348342  0.56262855  0.31299388  1
  Zn  Zn175  1  0.56369137  0.56248045  0.81169043  1
  Zn  Zn176  1  0.43691695  0.18818014  0.43694869  1
  Zn  Zn177  1  0.43863632  0.18841404  0.93677939  1
  Zn  Zn178  1  0.43498963  0.68648653  0.43911800  1
  Zn  Zn179  1  0.43831545  0.68731760  0.93905510  1
  Zn  Zn180  1  0.93739644  0.18821924  0.43736397  1
  Zn  Zn181  1  0.93662266  0.18839147  0.93763058  1
  Zn  Zn182  1  0.93688738  0.68769089  0.43682081  1
  Zn  Zn183  1  0.93922049  0.68651435  0.93610584  1
  Zn  Zn184  1  0.06082866  0.31186964  0.06240199  1
  Zn  Zn185  1  0.06390603  0.31341741  0.56185289  1
  Zn  Zn186  1  0.06479029  0.81043608  0.06106816  1
  Zn  Zn187  1  0.06339667  0.81271868  0.56197899  1
  Zn  Zn188  1  0.56252796  0.31224025  0.06285346  1
  Zn  Zn189  1  0.56319085  0.31300092  0.56242095  1
  Zn  Zn190  1  0.56382554  0.81190796  0.06331239  1
  Zn  Zn191  1  0.56423599  0.81116617  0.56311180  1
  O  O192  1  0.11540527  0.12353464  0.11961198  1
  O  O193  1  0.11493484  0.12059248  0.62812499  1
  O  O194  1  0.12206689  0.62029391  0.11916910  1
  O  O195  1  0.12146157  0.62149023  0.61459914  1
  O  O196  1  0.61913171  0.11850654  0.12070365  1
  O  O197  1  0.61761590  0.12456703  0.61691854  1
  O  O198  1  0.61927429  0.61800480  0.12316736  1
  O  O199  1  0.61144845  0.62345491  0.62357695  1
  O  O200  1  0.37942309  0.37929043  0.38057630  1
  O  O201  1  0.38158908  0.37650716  0.88254349  1
  O  O202  1  0.37985959  0.88029682  0.38068132  1
  O  O203  1  0.38152677  0.88082366  0.88049903  1
  O  O204  1  0.88013161  0.38029642  0.37924629  1
  O  O205  1  0.87314925  0.38033701  0.88416552  1
  O  O206  1  0.88363299  0.88068976  0.37580126  1
  O  O207  1  0.87911652  0.87566092  0.88951459  1
  O  O208  1  0.25534243  0.00427981  0.37104422  1
  O  O209  1  0.25757913  0.00184972  0.86943439  1
  O  O210  1  0.25452679  0.50404753  0.36961556  1
  O  O211  1  0.25006175  0.50891211  0.86751523  1
  O  O212  1  0.75420384  0.00546772  0.37075822  1
  O  O213  1  0.75369597  0.00283789  0.86733023  1
  O  O214  1  0.75497542  0.50461845  0.36971792  1
  O  O215  1  0.75455979  0.50590622  0.86787068  1
  O  O216  1  0.24503725  0.49368861  0.12951123  1
  O  O217  1  0.24964665  0.49503996  0.63368188  1
  O  O218  1  0.25253711  0.98993580  0.13018975  1
  O  O219  1  0.24458725  0.99523550  0.63197456  1
  O  O220  1  0.74478414  0.49528158  0.12957319  1
  O  O221  1  0.74872727  0.49400009  0.63059456  1
  O  O222  1  0.74297467  0.99813945  0.13334650  1
  O  O223  1  0.74841358  0.99063103  0.63081425  1
  O  O224  1  0.00635205  0.37297699  0.25451159  1
  O  O225  1  -0.00113723  0.36295717  0.75027081  1
  O  O226  1  0.00157015  0.87367549  0.26174664  1
  O  O227  1  0.00518330  0.86729219  0.75305144  1
  O  O228  1  0.50683344  0.37382943  0.25678080  1
  O  O229  1  0.50353713  0.37096027  0.75376569  1
  O  O230  1  0.50518844  0.86919532  0.25730714  1
  O  O231  1  0.50594487  0.87132740  0.75498938  1
  O  O232  1  0.49301743  0.12586045  0.24409765  1
  O  O233  1  0.49492762  0.13059254  0.74388536  1
  O  O234  1  0.49944682  0.63068291  0.24385447  1
  O  O235  1  0.49827758  0.63038429  0.74228353  1
  O  O236  1  0.99506908  0.12278526  0.24074894  1
  O  O237  1  0.99257853  0.13268994  0.74438876  1
  O  O238  1  0.99744415  0.62823697  0.23942852  1
  O  O239  1  0.99512487  0.63476061  0.74994000  1
  O  O240  1  0.36945688  0.25471451  0.00546575  1
  O  O241  1  0.36918266  0.25524071  0.50550249  1
  O  O242  1  0.37526611  0.75793246  0.00722478  1
  O  O243  1  0.36654906  0.75763501  0.50070732  1
  O  O244  1  0.86583466  0.25804398  0.00054302  1
  O  O245  1  0.86797481  0.25676659  0.50010873  1
  O  O246  1  0.87225540  0.75718837  0.00667076  1
  O  O247  1  0.86200509  0.75301438  0.50123375  1
  O  O248  1  0.13204038  0.24760995  0.49278634  1
  O  O249  1  0.12853957  0.24567362  0.99280958  1
  O  O250  1  0.13020885  0.74430594  0.49353060  1
  O  O251  1  0.12941171  0.74309905  0.99266437  1
  O  O252  1  0.63023219  0.24490392  0.49316918  1
  O  O253  1  0.63445665  0.24444580  1.00083016  1
  O  O254  1  0.63657909  0.74949347  0.49399996  1
  O  O255  1  0.63256531  0.75022412  0.99347452  1
  O  O256  1  0.49327507  0.24311104  0.12612546  1
  O  O257  1  0.49317555  0.24533922  0.62928512  1
  O  O258  1  0.49691763  0.74465193  0.13108257  1
  O  O259  1  0.49935677  0.74243087  0.63045549  1
  O  O260  1  0.99763971  0.23665341  0.12534490  1
  O  O261  1  1.00006649  0.24215370  0.63505580  1
  O  O262  1  0.99188379  0.74457274  0.12367314  1
  O  O263  1  0.99945303  0.75021662  0.63800627  1
  O  O264  1  0.00693049  0.25577823  0.37349092  1
  O  O265  1  0.00713165  0.25028950  0.86694019  1
  O  O266  1  0.00421709  0.75904926  0.37382054  1
  O  O267  1  0.00736223  0.75070245  0.86484246  1
  O  O268  1  0.50610875  0.25685187  0.37371594  1
  O  O269  1  0.50096415  0.25737866  0.86770776  1
  O  O270  1  0.50491231  0.75437535  0.37155648  1
  O  O271  1  0.50550618  0.75595161  0.87046208  1
  O  O272  1  0.24957884  0.13164692  0.49376633  1
  O  O273  1  0.24337739  0.13162616  0.99929839  1
  O  O274  1  0.24430437  0.63005920  0.49370564  1
  O  O275  1  0.24557494  0.62521415  0.99004338  1
  O  O276  1  0.74477561  0.13014751  0.49512254  1
  O  O277  1  0.74613859  0.13321490  1.00167405  1
  O  O278  1  0.74882918  0.63411683  0.49515771  1
  O  O279  1  0.74889987  0.63167094  0.99129146  1
  O  O280  1  0.25540860  0.36911942  0.00544674  1
  O  O281  1  0.25584627  0.36931558  0.50445642  1
  O  O282  1  0.25818331  0.87484088  0.00939977  1
  O  O283  1  0.25361488  0.87047176  0.50521210  1
  O  O284  1  0.75591171  0.36773801  0.00405581  1
  O  O285  1  0.75475524  0.37057380  0.50303899  1
  O  O286  1  0.76036046  0.86984086  0.00274873  1
  O  O287  1  0.74972808  0.86737444  0.50835453  1
  O  O288  1  0.13088038  0.49319335  0.24321160  1
  O  O289  1  0.13654687  0.49782002  0.74952996  1
  O  O290  1  0.13507658  0.99535728  0.24594847  1
  O  O291  1  0.12972407  0.99583780  0.74738411  1
  O  O292  1  0.63134668  0.49378208  0.24488960  1
  O  O293  1  0.63213617  0.49324291  0.74768279  1
  O  O294  1  0.62909292  0.99478933  0.24665869  1
  O  O295  1  0.63141903  0.99378341  0.74778022  1
  O  O296  1  0.37071482  0.00534554  0.25676672  1
  O  O297  1  0.37047024  0.00527650  0.75530980  1
  O  O298  1  0.36773107  0.49959676  0.25662555  1
  O  O299  1  0.36136516  0.50319375  0.75354895  1
  O  O300  1  0.86821932  0.00535152  0.25640928  1
  O  O301  1  0.86997055  0.00925565  0.75249691  1
  O  O302  1  0.86828847  0.50014200  0.25504546  1
  O  O303  1  0.86878726  0.50528516  0.75473179  1
  O  O304  1  0.12014163  0.36912721  0.36843301  1
  O  O305  1  0.12172071  0.36263081  0.87486294  1
  O  O306  1  0.11543737  0.87020605  0.37531741  1
  O  O307  1  0.12516644  0.86893008  0.86922103  1
  O  O308  1  0.61983756  0.37014005  0.36969756  1
  O  O309  1  0.61827636  0.37224077  0.86709930  1
  O  O310  1  0.61862218  0.86910466  0.37036717  1
  O  O311  1  0.62000074  0.87023054  0.87021279  1
  O  O312  1  0.37995662  0.12937323  0.12989703  1
  O  O313  1  0.38038297  0.13085612  0.63013842  1
  O  O314  1  0.38217012  0.63101128  0.12693361  1
  O  O315  1  0.38619164  0.62835853  0.62641947  1
  O  O316  1  0.88439289  0.12471613  0.13135998  1
  O  O317  1  0.88344468  0.12694617  0.63595641  1
  O  O318  1  0.88168017  0.63424087  0.12185795  1
  O  O319  1  0.87816192  0.62905257  0.63354527  1
  O  O320  1  0.25489260  0.25495817  0.11931526  1
  O  O321  1  0.25536682  0.25491387  0.62060839  1
  O  O322  1  0.25783339  0.75865382  0.12461518  1
  O  O323  1  0.24919176  0.75702204  0.61846557  1
  O  O324  1  0.75106334  0.25581534  0.11459063  1
  O  O325  1  0.75205533  0.25720301  0.61664572  1
  O  O326  1  0.75997735  0.75035042  0.11869728  1
  O  O327  1  0.74926344  0.75759354  0.61754769  1
  O  O328  1  0.24542214  0.24437879  0.38014390  1
  O  O329  1  0.24066691  0.24917890  0.88040080  1
  O  O330  1  0.24450039  0.74490682  0.38043005  1
  O  O331  1  0.24547877  0.74069059  0.87436898  1
  O  O332  1  0.74400479  0.24435132  0.38014004  1
  O  O333  1  0.74744252  0.24765536  0.88799116  1
  O  O334  1  0.74615106  0.74608410  0.38236589  1
  O  O335  1  0.74535723  0.74574628  0.87937409  1
  O  O336  1  0.00207857  0.11800505  0.00767298  1
  O  O337  1  -0.00025321  0.12602795  0.51507616  1
  O  O338  1  0.00816077  0.62316486  0.00517341  1
  O  O339  1  0.00560996  0.61864028  0.49855870  1
  O  O340  1  0.50494607  0.11921505  0.00625566  1
  O  O341  1  0.50393837  0.12017799  0.50413748  1
  O  O342  1  0.50254168  0.61781001  0.00671016  1
  O  O343  1  0.50028503  0.62029193  0.50884598  1
  O  O344  1  0.49347837  0.37981009  0.49502142  1
  O  O345  1  0.49559996  0.37948674  0.99519468  1
  O  O346  1  0.49497633  0.87936027  0.49539975  1
  O  O347  1  0.49655477  0.88086753  0.99473969  1
  O  O348  1  0.99452463  0.37946061  0.49284646  1
  O  O349  1  0.98603182  0.37445607  0.99876948  1
  O  O350  1  0.99715327  0.87595291  0.48945183  1
  O  O351  1  0.99391890  0.88359875  1.00118340  1
  O  O352  1  0.49387738  0.49473616  0.38035625  1
  O  O353  1  0.49895921  0.49409758  0.88106105  1
  O  O354  1  0.49363348  0.99396045  0.38056393  1
  O  O355  1  0.49578281  0.99392296  0.88022216  1
  O  O356  1  0.99453960  0.49349203  0.37816102  1
  O  O357  1  0.99133851  0.49712486  0.87634383  1
  O  O358  1  0.99479913  0.99179520  0.37681021  1
  O  O359  1  0.99737393  1.00053039  0.88858605  1
  O  O360  1  0.00104073  0.00805677  0.11618683  1
  O  O361  1  0.00476746  0.00994770  0.62834294  1
  O  O362  1  0.00737343  0.50664904  0.12093931  1
  O  O363  1  0.00212853  0.50110596  0.61504746  1
  O  O364  1  0.50506136  0.00480682  0.11992272  1
  O  O365  1  0.50090759  0.00671973  0.61795876  1
  O  O366  1  0.50568962  0.50388324  0.12043436  1
  O  O367  1  0.49859127  0.50905448  0.61989373  1
  O  O368  1  0.24412003  0.37954585  0.24370888  1
  O  O369  1  0.24910336  0.38355785  0.74503159  1
  O  O370  1  0.25322496  0.88029917  0.24014955  1
  O  O371  1  0.24486294  0.88113372  0.74495912  1
  O  O372  1  0.74496351  0.38036507  0.24441203  1
  O  O373  1  0.74519389  0.37958519  0.74412473  1
  O  O374  1  0.74284897  0.88142238  0.25013794  1
  O  O375  1  0.74612266  0.87869090  0.74357280  1
  O  O376  1  0.25619023  0.11873255  0.25511398  1
  O  O377  1  0.25727902  0.11905076  0.75162712  1
  O  O378  1  0.25110513  0.61706547  0.25646058  1
  O  O379  1  0.24922857  0.61829091  0.75800048  1
  O  O380  1  0.75421475  0.11925541  0.25642909  1
  O  O381  1  0.75846341  0.12157272  0.74785940  1
  O  O382  1  0.75288771  0.61822648  0.25610399  1
  O  O383  1  0.75477154  0.62089280  0.75440444  1
  O  O384  1  0.36925272  0.11939741  0.37018430  1
  O  O385  1  0.37516802  0.11861703  0.86847055  1
  O  O386  1  0.36752990  0.61744144  0.37398125  1
  O  O387  1  0.36337758  0.62439643  0.87469937  1
  O  O388  1  0.86956631  0.11943624  0.37051987  1
  O  O389  1  0.87364584  0.12447373  0.86282694  1
  O  O390  1  0.86857987  0.61832634  0.37214217  1
  O  O391  1  0.86877093  0.61988895  0.86918422  1
  O  O392  1  0.13025619  0.37900123  0.12835771  1
  O  O393  1  0.13379932  0.37720039  0.62743314  1
  O  O394  1  0.13841630  0.87532983  0.12477232  1
  O  O395  1  0.12991604  0.88142322  0.63185242  1
  O  O396  1  0.63044088  0.38055070  0.13046316  1
  O  O397  1  0.63124167  0.37681247  0.63100677  1
  O  O398  1  0.62572797  0.88128460  0.13304714  1
  O  O399  1  0.63605466  0.87578619  0.63105042  1
  O  O400  1  0.12404735  0.25630010  0.25599605  1
  O  O401  1  0.11603980  0.24953838  0.75912542  1
  O  O402  1  0.12357163  0.75438219  0.25852917  1
  O  O403  1  0.11757010  0.75524359  0.75476745  1
  O  O404  1  0.62465717  0.25653678  0.25608451  1
  O  O405  1  0.61754513  0.25663579  0.75022037  1
  O  O406  1  0.62055022  0.75536144  0.25576038  1
  O  O407  1  0.61964842  0.75723502  0.75659388  1
  O  O408  1  0.37532290  0.24311449  0.24280692  1
  O  O409  1  0.37971433  0.24537178  0.74412784  1
  O  O410  1  0.38372725  0.74788374  0.24444342  1
  O  O411  1  0.38371853  0.74877539  0.74703240  1
  O  O412  1  0.87708672  0.24117305  0.24717184  1
  O  O413  1  0.88287532  0.24262149  0.74996944  1
  O  O414  1  0.87585006  0.75009191  0.23563143  1
  O  O415  1  0.88477964  0.74555119  0.75183807  1
  O  O416  1  0.37880430  0.49316799  0.49425957  1
  O  O417  1  0.38215855  0.49196398  0.99951855  1
  O  O418  1  0.37961934  0.99442391  0.49439507  1
  O  O419  1  0.38247044  0.99537943  0.99467408  1
  O  O420  1  0.88014605  0.49433392  0.49211147  1
  O  O421  1  0.87274638  0.48975255  0.99328508  1
  O  O422  1  0.87750413  0.99776180  0.49277045  1
  O  O423  1  0.88268440  0.99219921  1.00230959  1
  O  O424  1  0.11606207  0.00567044  0.00174366  1
  O  O425  1  0.12114644  0.00455301  0.51098170  1
  O  O426  1  0.12432964  0.50526368  0.00591714  1
  O  O427  1  0.11810606  0.50604820  0.49782720  1
  O  O428  1  0.62060032  0.00425321  0.00637023  1
  O  O429  1  0.61761026  0.00702491  0.50021901  1
  O  O430  1  0.61914433  0.49991789  0.00692660  1
  O  O431  1  0.61539994  0.50243910  0.50236862  1
  O  O432  1  0.36941225  0.36889836  0.11984175  1
  O  O433  1  0.36935527  0.36922919  0.61912762  1
  O  O434  1  0.36993163  0.87000472  0.12045811  1
  O  O435  1  0.36724989  0.87490598  0.61787571  1
  O  O436  1  0.86849686  0.37471553  0.11468941  1
  O  O437  1  0.86764092  0.37280723  0.61655642  1
  O  O438  1  0.87573779  0.86642616  0.11562845  1
  O  O439  1  0.86230464  0.87236850  0.62531037  1
  O  O440  1  0.13169467  0.13027128  0.37527952  1
  O  O441  1  0.12536736  0.13680266  0.88139826  1
  O  O442  1  0.13006837  0.63040197  0.37952504  1
  O  O443  1  0.13454275  0.62982813  0.87951879  1
  O  O444  1  0.63028205  0.13024908  0.37972474  1
  O  O445  1  0.62655738  0.12785206  0.88439491  1
  O  O446  1  0.63221088  0.63184531  0.37667700  1
  O  O447  1  0.63159483  0.63280043  0.87542278  1
