# generated using pymatgen
data_V3Zn3O8
_symmetry_space_group_name_H-M   'P 1'
_cell_length_a   17.08908596
_cell_length_b   17.08693741
_cell_length_c   17.08694526
_cell_angle_alpha   90.00591048
_cell_angle_beta   90.00004084
_cell_angle_gamma   89.97960854
_symmetry_Int_Tables_number   1
_chemical_formula_structural   V3Zn3O8
_chemical_formula_sum   'V96 Zn96 O256'
_cell_volume   4989.39010054
_cell_formula_units_Z   32
loop_
 _symmetry_equiv_pos_site_id
 _symmetry_equiv_pos_as_xyz
  1  'x, y, z'
loop_
 _atom_site_type_symbol
 _atom_site_label
 _atom_site_symmetry_multiplicity
 _atom_site_fract_x
 _atom_site_fract_y
 _atom_site_fract_z
 _atom_site_occupancy
  V  V0  1  0.87783497  0.49982630  0.87641117  1
  V  V1  1  0.50193633  0.50047446  -0.00020138  1
  V  V2  1  0.24970373  0.75022807  0.50184489  1
  V  V3  1  0.62214501  0.87462047  0.25114145  1
  V  V4  1  0.75017260  0.74939575  0.50008993  1
  V  V5  1  0.37328196  0.12450318  0.24890268  1
  V  V6  1  0.37373291  0.12491553  0.75042587  1
  V  V7  1  0.87428791  0.12509601  0.74989564  1
  V  V8  1  0.50190707  0.37621417  0.87454246  1
  V  V9  1  0.49895308  0.12458177  0.62406712  1
  V  V10  1  0.37331735  0.87472550  0.50025194  1
  V  V11  1  0.24941215  0.87401478  0.62547286  1
  V  V12  1  0.12560101  0.12654439  -0.00223557  1
  V  V13  1  0.12632508  0.49917546  0.62713846  1
  V  V14  1  0.00042686  0.75050987  0.75002073  1
  V  V15  1  0.12484562  0.87520051  0.75048533  1
  V  V16  1  0.74721586  0.24920401  0.49820119  1
  V  V17  1  0.37402510  0.25065593  0.62432674  1
  V  V18  1  0.49750740  -0.00100761  0.49803183  1
  V  V19  1  0.87631239  0.37554233  -0.00024727  1
  V  V20  1  0.87466797  0.62441227  0.25022462  1
  V  V21  1  -0.00023337  0.37562958  0.37602857  1
  V  V22  1  0.00037344  0.74911027  0.25095520  1
  V  V23  1  0.62413018  0.12465525  0.00028611  1
  V  V24  1  -0.00040861  0.12492491  0.62498340  1
  V  V25  1  0.25125945  0.49956829  0.74926648  1
  V  V26  1  0.24872625  -0.00004382  0.25024291  1
  V  V27  1  0.24830594  0.12479427  0.37408601  1
  V  V28  1  0.87508262  0.75093436  0.12581056  1
  V  V29  1  0.87591684  0.62508273  0.75106344  1
  V  V30  1  0.62678818  0.50011471  0.62460899  1
  V  V31  1  0.00018002  0.62469070  0.62544533  1
  V  V32  1  0.25007213  0.00060233  0.75076892  1
  V  V33  1  0.62541429  0.50052361  0.12441255  1
  V  V34  1  0.74884806  0.00048571  0.74844333  1
  V  V35  1  0.00313190  0.25185176  0.75268680  1
  V  V36  1  0.62507979  0.62379627  0.49990220  1
  V  V37  1  0.62537196  0.25043140  0.87419792  1
  V  V38  1  0.75048711  0.25030647  -0.00056353  1
  V  V39  1  0.12497656  0.87471236  0.24967747  1
  V  V40  1  -0.00112666  0.24972819  0.25042204  1
  V  V41  1  0.12580251  0.74990601  0.87608963  1
  V  V42  1  0.62320225  0.74968798  0.37464092  1
  V  V43  1  0.00020316  0.49873808  0.50071159  1
  V  V44  1  0.50013920  0.25037184  0.25018836  1
  V  V45  1  0.12292913  -0.00037601  0.12355163  1
  V  V46  1  0.74982264  0.62413000  0.37392634  1
  V  V47  1  0.75035655  0.75089890  0.00035930  1
  V  V48  1  0.37516756  0.37482391  0.00037502  1
  V  V49  1  0.12459583  0.12525064  0.49911323  1
  V  V50  1  0.87386729  0.00001334  0.37505028  1
  V  V51  1  0.00136746  0.62509421  0.12534742  1
  V  V52  1  0.74922287  0.12506939  0.87411586  1
  V  V53  1  0.37421177  0.37364855  0.50048646  1
  V  V54  1  0.37458846  0.00040545  0.87477770  1
  V  V55  1  0.87447925  -0.00044017  0.87529753  1
  V  V56  1  0.37514519  0.74971322  0.12617455  1
  V  V57  1  0.62657088  0.37593272  0.74916134  1
  V  V58  1  0.37672244  0.49842656  0.37566151  1
  V  V59  1  0.75013684  0.87454840  0.62377752  1
  V  V60  1  0.62469860  0.87474436  0.75014526  1
  V  V61  1  0.37311757  0.25106963  0.12285251  1
  V  V62  1  0.12478173  0.74932747  0.37521402  1
  V  V63  1  0.12412077  0.24872692  0.37450061  1
  V  V64  1  0.75232442  0.62666624  0.87586526  1
  V  V65  1  0.62344348  0.00048108  0.62410417  1
  V  V66  1  0.50162817  0.74998625  0.75045595  1
  V  V67  1  0.12468736  0.62444895  0.50109658  1
  V  V68  1  0.25050716  0.49815852  0.24952789  1
  V  V69  1  0.62704444  0.75092506  0.87500721  1
  V  V70  1  0.25079314  0.74927029  -0.00069233  1
  V  V71  1  0.87494028  0.24943324  0.12533112  1
  V  V72  1  0.62412680  0.00020217  0.12521778  1
  V  V73  1  -0.00130430  -0.00036359  0.49963138  1
  V  V74  1  0.75029774  0.37541392  0.12521262  1
  V  V75  1  0.50245139  0.62478781  0.62502513  1
  V  V76  1  0.49930550  0.12460382  0.12404677  1
  V  V77  1  0.87228855  0.12386303  0.25062697  1
  V  V78  1  0.25010493  0.62391778  0.37671483  1
  V  V79  1  0.12615912  0.49891798  0.12488092  1
  V  V80  1  0.75064618  0.50007091  0.24973276  1
  V  V81  1  -0.00060144  0.87575876  0.87574269  1
  V  V82  1  0.12410942  -0.00009484  0.62512082  1
  V  V83  1  0.49941669  0.25039486  0.74911693  1
  V  V84  1  -0.00134195  0.87460998  0.37584784  1
  V  V85  1  0.37811208  0.62545571  0.74973818  1
  V  V86  1  0.87489209  0.75013121  0.62445261  1
  V  V87  1  0.50048646  0.62570731  0.12549897  1
  V  V88  1  0.62428689  0.37331058  0.25053192  1
  V  V89  1  0.74893466  0.87592019  0.12618218  1
  V  V90  1  0.37740790  0.50132178  0.87417884  1
  V  V91  1  0.75014140  0.37545197  0.62500396  1
  V  V92  1  0.87552434  0.87637559  0.00064422  1
  V  V93  1  0.37638128  0.87634362  -0.00145322  1
  V  V94  1  0.12640880  0.62617966  0.00064833  1
  V  V95  1  0.87406564  0.25085137  0.62457355  1
  Zn  Zn96  1  0.37590360  0.62586108  0.25232683  1
  Zn  Zn97  1  0.24997442  0.12907567  0.87524909  1
  Zn  Zn98  1  0.24946019  0.37367478  0.12253353  1
  Zn  Zn99  1  -0.00177331  0.12520003  0.12284143  1
  Zn  Zn100  1  0.49715387  0.74961177  0.25334939  1
  Zn  Zn101  1  0.74642357  0.12294983  0.37688301  1
  Zn  Zn102  1  0.25205025  0.62595691  0.87481337  1
  Zn  Zn103  1  0.12777895  0.25468008  0.87690922  1
  Zn  Zn104  1  0.37594227  0.74945613  0.62609938  1
  Zn  Zn105  1  0.50158908  0.49899566  0.49898920  1
  Zn  Zn106  1  0.50186748  0.87622721  0.87424405  1
  Zn  Zn107  1  0.00300021  0.49810359  0.00029478  1
  Zn  Zn108  1  0.74786539  0.00041913  0.25338478  1
  Zn  Zn109  1  0.75201406  0.50035624  0.74951052  1
  Zn  Zn110  1  0.24780394  0.37252261  0.62554485  1
  Zn  Zn111  1  0.62377305  0.24790906  0.37411217  1
  Zn  Zn112  1  0.37353851  -0.00167821  0.37301113  1
  Zn  Zn113  1  0.87506604  0.50004385  0.37650131  1
  Zn  Zn114  1  -0.00085673  0.00122804  -0.00032377  1
  Zn  Zn115  1  0.24884144  0.25276013  -0.00204307  1
  Zn  Zn116  1  0.50164609  0.37231774  0.37527235  1
  Zn  Zn117  1  0.62261327  0.12505596  0.49608334  1
  Zn  Zn118  1  0.87395772  0.37637474  0.50054367  1
  Zn  Zn119  1  0.24867548  0.24921235  0.50070410  1
  Zn  Zn120  1  0.50008991  0.00047574  -0.00215456  1
  Zn  Zn121  1  0.12507644  0.37239226  0.24830402  1
  Zn  Zn122  1  0.12566763  0.37556687  0.75287896  1
  Zn  Zn123  1  0.00302452  0.37451773  0.87722759  1
  Zn  Zn124  1  0.25014193  0.87413427  0.12610972  1
  Zn  Zn125  1  0.87385067  0.87513510  0.49914819  1
  Zn  Zn126  1  0.49647172  0.87279787  0.37541135  1
  Zn  Zn127  1  0.62735719  0.62607308  -0.00016804  1
  Zn  Zn128  1  0.18720669  0.18716612  0.18497104  1
  Zn  Zn129  1  0.18829435  0.18734394  0.68672491  1
  Zn  Zn130  1  0.18970184  0.68547919  0.18859772  1
  Zn  Zn131  1  0.18859180  0.68606916  0.68852731  1
  Zn  Zn132  1  0.68704773  0.18795246  0.18705916  1
  Zn  Zn133  1  0.68571374  0.18736780  0.68429780  1
  Zn  Zn134  1  0.68692399  0.68871623  0.18802490  1
  Zn  Zn135  1  0.68916223  0.68642506  0.68859769  1
  Zn  Zn136  1  0.31192304  0.31122432  0.31184439  1
  Zn  Zn137  1  0.31174811  0.31301007  0.81507737  1
  Zn  Zn138  1  0.31130777  0.81422278  0.31374136  1
  Zn  Zn139  1  0.31345918  0.81218161  0.81276079  1
  Zn  Zn140  1  0.81293920  0.31286959  0.31389745  1
  Zn  Zn141  1  0.81407077  0.31358129  0.81196904  1
  Zn  Zn142  1  0.81061160  0.81270156  0.31274600  1
  Zn  Zn143  1  0.81250857  0.81346232  0.81181008  1
  Zn  Zn144  1  0.18724982  0.43569012  0.43841980  1
  Zn  Zn145  1  0.18917059  0.43694338  0.93516591  1
  Zn  Zn146  1  0.18666548  0.93799231  0.43695663  1
  Zn  Zn147  1  0.19000012  0.93802162  0.93775578  1
  Zn  Zn148  1  0.68721523  0.43587420  0.43617370  1
  Zn  Zn149  1  0.68992412  0.43888750  0.93766655  1
  Zn  Zn150  1  0.68638747  0.93704577  0.43703261  1
  Zn  Zn151  1  0.68810601  0.93786579  0.93800868  1
  Zn  Zn152  1  0.30924202  0.06307307  0.06244221  1
  Zn  Zn153  1  0.31149799  0.06243877  0.56236152  1
  Zn  Zn154  1  0.31358443  0.56259438  0.06077457  1
  Zn  Zn155  1  0.31415665  0.56261231  0.56401387  1
  Zn  Zn156  1  0.81000318  0.06178536  0.06350407  1
  Zn  Zn157  1  0.81239787  0.06387953  0.56138821  1
  Zn  Zn158  1  0.81373203  0.56290551  0.06186409  1
  Zn  Zn159  1  0.81334848  0.56163663  0.56162326  1
  Zn  Zn160  1  0.43814088  0.43622207  0.18728620  1
  Zn  Zn161  1  0.43905809  0.43829880  0.68554338  1
  Zn  Zn162  1  0.43833451  0.93892814  0.18617997  1
  Zn  Zn163  1  0.43649545  0.93618560  0.68685909  1
  Zn  Zn164  1  0.93809572  0.43732059  0.18855374  1
  Zn  Zn165  1  0.93732794  0.43615214  0.68790646  1
  Zn  Zn166  1  0.93817502  0.93819237  0.18891563  1
  Zn  Zn167  1  0.93627754  0.93701488  0.68726855  1
  Zn  Zn168  1  0.05997887  0.06256065  0.31146568  1
  Zn  Zn169  1  0.06181452  0.06322605  0.81364874  1
  Zn  Zn170  1  0.06327649  0.56146897  0.31246647  1
  Zn  Zn171  1  0.06393354  0.56381501  0.81342947  1
  Zn  Zn172  1  0.56169233  0.06403593  0.31376701  1
  Zn  Zn173  1  0.55987024  0.06188859  0.81258938  1
  Zn  Zn174  1  0.56235010  0.56165996  0.31102926  1
  Zn  Zn175  1  0.56632485  0.56371206  0.81193815  1
  Zn  Zn176  1  0.43552745  0.18680279  0.43483655  1
  Zn  Zn177  1  0.43720500  0.18770530  0.93698341  1
  Zn  Zn178  1  0.43742551  0.68737948  0.44009856  1
  Zn  Zn179  1  0.44036974  0.68798737  0.93678563  1
  Zn  Zn180  1  0.93483587  0.18791959  0.43765615  1
  Zn  Zn181  1  0.93913478  0.18585548  0.93800700  1
  Zn  Zn182  1  0.93629258  0.68623099  0.43806772  1
  Zn  Zn183  1  0.93939337  0.68797551  0.93976336  1
  Zn  Zn184  1  0.06064457  0.31219290  0.06249977  1
  Zn  Zn185  1  0.06381379  0.31314872  0.56415554  1
  Zn  Zn186  1  0.06188580  0.81314096  0.06245377  1
  Zn  Zn187  1  0.06196833  0.81299719  0.56198212  1
  Zn  Zn188  1  0.56147276  0.31208848  0.06347399  1
  Zn  Zn189  1  0.56181381  0.31376843  0.56161895  1
  Zn  Zn190  1  0.56218059  0.81265214  0.06187402  1
  Zn  Zn191  1  0.56232265  0.81223359  0.56281372  1
  O  O192  1  0.12237029  0.11505170  0.11753811  1
  O  O193  1  0.11897836  0.11841332  0.61943038  1
  O  O194  1  0.12137256  0.61773191  0.12147902  1
  O  O195  1  0.11909050  0.62002702  0.62031100  1
  O  O196  1  0.62004649  0.12019854  0.11977012  1
  O  O197  1  0.61618986  0.11761265  0.62336581  1
  O  O198  1  0.61660597  0.62032162  0.12382160  1
  O  O199  1  0.62264227  0.61968945  0.61983372  1
  O  O200  1  0.37410191  0.38322130  0.38242230  1
  O  O201  1  0.38414743  0.38188163  0.87942390  1
  O  O202  1  0.37606271  0.87787887  0.38377548  1
  O  O203  1  0.37616746  0.88059488  0.88380597  1
  O  O204  1  0.88881639  0.37655270  0.37663625  1
  O  O205  1  0.87505519  0.38498039  0.88045307  1
  O  O206  1  0.88123810  0.88089809  0.37518009  1
  O  O207  1  0.87926633  0.88007941  0.88013464  1
  O  O208  1  0.24848247  0.00676062  0.36745408  1
  O  O209  1  0.25720801  0.00137327  0.86749038  1
  O  O210  1  0.25625119  0.50380502  0.36847456  1
  O  O211  1  0.25845589  0.50359120  0.86535387  1
  O  O212  1  0.75864947  0.00124137  0.37370553  1
  O  O213  1  0.75473134  0.00567482  0.86799904  1
  O  O214  1  0.75160126  0.50630750  0.36744914  1
  O  O215  1  0.76223859  0.50667103  0.87496663  1
  O  O216  1  0.24311004  0.50207248  0.13378178  1
  O  O217  1  0.24527810  0.50067531  0.63434307  1
  O  O218  1  0.23821272  0.99792630  0.13140773  1
  O  O219  1  0.24287104  0.99405075  0.63059199  1
  O  O220  1  0.74547643  0.49525961  0.12964229  1
  O  O221  1  0.74494422  0.49397974  0.62651850  1
  O  O222  1  0.74209977  0.99283017  0.12833713  1
  O  O223  1  0.74453915  0.99529908  0.62935050  1
  O  O224  1  0.00127824  0.36935875  0.25985960  1
  O  O225  1  0.00005377  0.36238851  0.75119929  1
  O  O226  1  0.00528098  0.86813818  0.25614769  1
  O  O227  1  0.00520798  0.86968143  0.75517200  1
  O  O228  1  0.50672652  0.36835925  0.24940433  1
  O  O229  1  0.50626683  0.36992002  0.75495180  1
  O  O230  1  0.51110469  0.87343471  0.25067440  1
  O  O231  1  0.50736517  0.86843852  0.74980343  1
  O  O232  1  0.49297933  0.12941265  0.24299660  1
  O  O233  1  0.49369533  0.13081658  0.74401559  1
  O  O234  1  0.49742488  0.62582271  0.23688898  1
  O  O235  1  0.49769493  0.63034846  0.74463650  1
  O  O236  1  0.98741757  0.13065141  0.24906010  1
  O  O237  1  0.99400820  0.13130452  0.74423495  1
  O  O238  1  0.99572615  0.63038855  0.24539877  1
  O  O239  1  0.99579001  0.63167483  0.74467367  1
  O  O240  1  0.37642907  0.25735377  0.00577281  1
  O  O241  1  0.37354415  0.25801031  0.50479651  1
  O  O242  1  0.37145077  0.75648019  0.00642987  1
  O  O243  1  0.36663620  0.75570755  0.50288916  1
  O  O244  1  0.86907152  0.25409754  0.00480167  1
  O  O245  1  0.86579898  0.25119191  0.50722407  1
  O  O246  1  0.87061824  0.75660377  0.00675285  1
  O  O247  1  0.86850690  0.75048868  0.50671544  1
  O  O248  1  0.12538050  0.24237007  0.49387235  1
  O  O249  1  0.12481528  0.23874802  1.00138589  1
  O  O250  1  0.12934187  0.74416319  0.49472961  1
  O  O251  1  0.13111571  0.74662309  0.99610503  1
  O  O252  1  0.63496900  0.24927849  0.50004411  1
  O  O253  1  0.63094422  0.24555016  0.99406962  1
  O  O254  1  0.63098496  0.74394115  0.49480614  1
  O  O255  1  0.63284031  0.75064937  0.99394190  1
  O  O256  1  0.49385225  0.24367129  0.13022652  1
  O  O257  1  0.49446997  0.24489098  0.63033980  1
  O  O258  1  0.49133848  0.74183112  0.12428143  1
  O  O259  1  0.50103086  0.74244197  0.63249578  1
  O  O260  1  0.99155821  0.24922886  0.13325913  1
  O  O261  1  0.99463958  0.24386295  0.63213430  1
  O  O262  1  0.99507673  0.74523940  0.13186947  1
  O  O263  1  0.99553459  0.74469652  0.63040633  1
  O  O264  1  0.00410087  0.25702302  0.37098483  1
  O  O265  1  -0.00045172  0.24950470  0.86238416  1
  O  O266  1  0.00546561  0.75364881  0.37017649  1
  O  O267  1  0.00522640  0.75601647  0.86952272  1
  O  O268  1  0.50039933  0.25149775  0.36476063  1
  O  O269  1  0.50627192  0.25620620  0.86860264  1
  O  O270  1  0.50677851  0.75137450  0.37314785  1
  O  O271  1  0.50910745  0.75180977  0.86850139  1
  O  O272  1  0.24213287  0.12444697  0.49283625  1
  O  O273  1  0.23799982  0.12652341  0.99842016  1
  O  O274  1  0.24400157  0.62963692  0.49638476  1
  O  O275  1  0.24434246  0.63148466  0.99799927  1
  O  O276  1  0.74702338  0.13676842  0.50109143  1
  O  O277  1  0.74399222  0.13097677  0.99395035  1
  O  O278  1  0.74469443  0.63010681  0.49405461  1
  O  O279  1  0.75054150  0.63362484  0.99485410  1
  O  O280  1  0.26107331  0.37596196  0.00195321  1
  O  O281  1  0.26193995  0.37321179  0.50179041  1
  O  O282  1  0.26128908  0.86862484  0.00244149  1
  O  O283  1  0.25258529  0.87000439  0.50558411  1
  O  O284  1  0.75561221  0.36932439  0.00571140  1
  O  O285  1  0.75147118  0.36642529  0.50642440  1
  O  O286  1  0.75631728  0.87009459  0.00635463  1
  O  O287  1  0.75027621  0.86731955  0.50655277  1
  O  O288  1  0.13404237  0.50054107  0.24168240  1
  O  O289  1  0.13553856  0.50308202  0.74523398  1
  O  O290  1  0.12774582  0.99540903  0.24235709  1
  O  O291  1  0.12900320  0.99452345  0.74469051  1
  O  O292  1  0.63100491  0.49452660  0.24300773  1
  O  O293  1  0.62913241  0.49339557  0.74397015  1
  O  O294  1  0.62510027  0.99064115  0.24491059  1
  O  O295  1  0.62984731  0.99537214  0.74444725  1
  O  O296  1  0.36729112  0.00579150  0.24870735  1
  O  O297  1  0.36963615  0.00454504  0.75434973  1
  O  O298  1  0.36680620  0.50002222  0.25831113  1
  O  O299  1  0.37045251  0.50534207  0.75419346  1
  O  O300  1  0.87421986  0.00833116  0.25584988  1
  O  O301  1  0.86849005  0.00528422  0.75453809  1
  O  O302  1  0.86839190  0.50720780  0.25037777  1
  O  O303  1  0.87533652  0.50655239  0.75952614  1
  O  O304  1  0.11497570  0.36918176  0.37403976  1
  O  O305  1  0.11951345  0.37384168  0.87068416  1
  O  O306  1  0.11867402  0.86865709  0.36972504  1
  O  O307  1  0.11992607  0.87014847  0.86984953  1
  O  O308  1  0.62211817  0.37226546  0.36534427  1
  O  O309  1  0.62166220  0.37000225  0.87003073  1
  O  O310  1  0.62345472  0.86875925  0.36593650  1
  O  O311  1  0.62597019  0.86946327  0.86781220  1
  O  O312  1  0.37934457  0.13003490  0.12927111  1
  O  O313  1  0.37963378  0.13028733  0.63065135  1
  O  O314  1  0.38353883  0.63350932  0.12458092  1
  O  O315  1  0.38391750  0.62616756  0.63125947  1
  O  O316  1  0.87499892  0.13005349  0.13308163  1
  O  O317  1  0.88035727  0.12987934  0.63133682  1
  O  O318  1  0.88077903  0.63123330  0.13046247  1
  O  O319  1  0.88101436  0.63038212  0.63086550  1
  O  O320  1  0.25812946  0.25370937  0.12260674  1
  O  O321  1  0.25837529  0.25227486  0.62249169  1
  O  O322  1  0.26057731  0.74917980  0.11959781  1
  O  O323  1  0.24924575  0.75622801  0.61920809  1
  O  O324  1  0.75544096  0.25595714  0.11872117  1
  O  O325  1  0.75401070  0.25533733  0.61821873  1
  O  O326  1  0.75595187  0.75589250  0.12057896  1
  O  O327  1  0.75530518  0.75441322  0.61977895  1
  O  O328  1  0.24177422  0.24277998  0.37498547  1
  O  O329  1  0.24597594  0.24645256  0.87859361  1
  O  O330  1  0.24360357  0.74376730  0.38101398  1
  O  O331  1  0.24325303  0.74853040  0.88075512  1
  O  O332  1  0.75026513  0.24984649  0.38749948  1
  O  O333  1  0.74511108  0.24463237  0.87952196  1
  O  O334  1  0.74362884  0.74366415  0.37992423  1
  O  O335  1  0.74740022  0.74623577  0.88072802  1
  O  O336  1  0.00925994  0.12085132  0.00279498  1
  O  O337  1  0.00442092  0.11959562  0.50536446  1
  O  O338  1  0.00808085  0.62464474  0.00865551  1
  O  O339  1  0.00611416  0.61989246  0.50584254  1
  O  O340  1  0.50720822  0.12523350  0.00629487  1
  O  O341  1  0.49734066  0.11484836  0.50605641  1
  O  O342  1  0.50255104  0.61972549  0.01030668  1
  O  O343  1  0.50805443  0.62311638  0.50678514  1
  O  O344  1  0.48717652  0.37743411  0.49701134  1
  O  O345  1  0.49653326  0.38098101  0.99367009  1
  O  O346  1  0.49297933  0.88370616  0.50208711  1
  O  O347  1  0.48709291  0.87584216  0.99835858  1
  O  O348  1  0.99987949  0.37987994  0.49155404  1
  O  O349  1  0.99074264  0.37777226  0.99813690  1
  O  O350  1  0.99855222  0.88133020  0.49350763  1
  O  O351  1  0.99286673  0.87593473  0.99323625  1
  O  O352  1  0.48698548  0.49853195  0.37460607  1
  O  O353  1  0.49792426  0.49537442  0.87971403  1
  O  O354  1  0.49700628  0.99791698  0.38765431  1
  O  O355  1  0.49116251  0.99667314  0.87761787  1
  O  O356  1  1.00141887  0.49135917  0.38073271  1
  O  O357  1  0.98793073  0.50160610  0.87705845  1
  O  O358  1  0.99413258  0.99418723  0.37994722  1
  O  O359  1  0.99184890  0.99271824  0.87458269  1
  O  O360  1  0.01200782  0.00036854  0.12398633  1
  O  O361  1  0.00443245  0.00496668  0.62062129  1
  O  O362  1  0.01073234  0.50638557  0.12651992  1
  O  O363  1  0.00562806  0.50592095  0.62153650  1
  O  O364  1  0.50638284  0.00721603  0.12145504  1
  O  O365  1  0.50334599  0.00459959  0.61736624  1
  O  O366  1  0.50471418  0.50791707  0.12009076  1
  O  O367  1  0.50890222  0.50689786  0.62321667  1
  O  O368  1  0.24734894  0.38776189  0.24885180  1
  O  O369  1  0.25200374  0.38984029  0.74831245  1
  O  O370  1  0.24182035  0.88078559  0.24851317  1
  O  O371  1  0.24379534  0.87994133  0.74524794  1
  O  O372  1  0.74588555  0.37986830  0.24388701  1
  O  O373  1  0.74363587  0.37519441  0.74329368  1
  O  O374  1  0.73828722  0.87474177  0.24429547  1
  O  O375  1  0.74487794  0.88092317  0.74351536  1
  O  O376  1  0.25368578  0.11918262  0.25433208  1
  O  O377  1  0.25637788  0.11723396  0.74979627  1
  O  O378  1  0.25220082  0.61392997  0.25746629  1
  O  O379  1  0.25820601  0.61578225  0.75081231  1
  O  O380  1  0.76238844  0.12453404  0.25086975  1
  O  O381  1  0.75423220  0.12030456  0.75421425  1
  O  O382  1  0.75473958  0.62021742  0.25393017  1
  O  O383  1  0.75918144  0.62468357  0.75760011  1
  O  O384  1  0.36646938  0.12236132  0.36640802  1
  O  O385  1  0.37503744  0.11827304  0.86778735  1
  O  O386  1  0.36859837  0.61478261  0.37598561  1
  O  O387  1  0.37664380  0.61845286  0.86829646  1
  O  O388  1  0.87369011  0.11860975  0.36591654  1
  O  O389  1  0.86793591  0.11946123  0.86974520  1
  O  O390  1  0.86831038  0.62434215  0.36737990  1
  O  O391  1  0.87239786  0.61944194  0.87141521  1
  O  O392  1  0.12632268  0.38765454  0.12630976  1
  O  O393  1  0.12794998  0.38375563  0.62970860  1
  O  O394  1  0.12614283  0.88253310  0.13058365  1
  O  O395  1  0.12882194  0.88046265  0.63100097  1
  O  O396  1  0.63125115  0.38070056  0.12947151  1
  O  O397  1  0.62971195  0.38049981  0.63049311  1
  O  O398  1  0.62850238  0.87898740  0.13214596  1
  O  O399  1  0.63111172  0.88049632  0.63068792  1
  O  O400  1  0.11717624  0.25013609  0.25546033  1
  O  O401  1  0.11289878  0.24872455  0.74967603  1
  O  O402  1  0.12040043  0.75375552  0.25555004  1
  O  O403  1  0.11971617  0.75526484  0.75520839  1
  O  O404  1  0.61817953  0.25657864  0.24763170  1
  O  O405  1  0.61922157  0.25516012  0.75476353  1
  O  O406  1  0.62271270  0.75901343  0.25485105  1
  O  O407  1  0.62221790  0.75549613  0.75539254  1
  O  O408  1  0.37947716  0.24445059  0.24286534  1
  O  O409  1  0.38124751  0.24579357  0.74482888  1
  O  O410  1  0.37524726  0.74862862  0.23900191  1
  O  O411  1  0.38243221  0.74366046  0.74922838  1
  O  O412  1  0.87843941  0.24242504  0.24548302  1
  O  O413  1  0.88176026  0.24376080  0.74482959  1
  O  O414  1  0.88035358  0.74476206  0.24483342  1
  O  O415  1  0.88138153  0.74534457  0.74487114  1
  O  O416  1  0.37465166  0.49226587  0.49102814  1
  O  O417  1  0.38291479  0.49585803  0.99428203  1
  O  O418  1  0.38280690  0.99369544  0.50068795  1
  O  O419  1  0.37360610  0.99081902  0.99559534  1
  O  O420  1  0.88442933  0.49776379  0.49714718  1
  O  O421  1  0.87704002  0.49520141  0.99233784  1
  O  O422  1  0.88153518  0.99905762  0.49380426  1
  O  O423  1  0.87462106  0.99404178  0.99364873  1
  O  O424  1  0.12453257  0.00509242  0.00846358  1
  O  O425  1  0.11805196  0.00509901  0.50560152  1
  O  O426  1  0.12645627  0.50668749  0.01034253  1
  O  O427  1  0.12061674  0.50566707  0.50631119  1
  O  O428  1  0.62418027  0.00677199  0.00597174  1
  O  O429  1  0.61351786  -0.00113847  0.50620517  1
  O  O430  1  0.61991347  0.50176131  0.00666785  1
  O  O431  1  0.62445582  0.50613157  0.50562283  1
  O  O432  1  0.37561429  0.36966798  0.11736658  1
  O  O433  1  0.37507394  0.37021869  0.61585647  1
  O  O434  1  0.37488241  0.86556804  0.11711394  1
  O  O435  1  0.36615807  0.87260896  0.61920203  1
  O  O436  1  0.86912684  0.37000897  0.12055112  1
  O  O437  1  0.86815047  0.36823264  0.62411607  1
  O  O438  1  0.86994022  0.87013936  0.12174531  1
  O  O439  1  0.86827659  0.86814507  0.62373928  1
  O  O440  1  0.12765363  0.12942107  0.37958150  1
  O  O441  1  0.12582306  0.12415860  0.88674065  1
  O  O442  1  0.12991610  0.62968692  0.38130047  1
  O  O443  1  0.12612008  0.63284652  0.88245251  1
  O  O444  1  0.62913060  0.12908757  0.37805453  1
  O  O445  1  0.62981730  0.13090460  0.87889263  1
  O  O446  1  0.63029896  0.62924108  0.37895748  1
  O  O447  1  0.63420274  0.63216944  0.87703117  1
