# generated using pymatgen
data_V3Zn3O8
_symmetry_space_group_name_H-M   'P 1'
_cell_length_a   17.08486423
_cell_length_b   17.08412614
_cell_length_c   17.08447598
_cell_angle_alpha   89.99341566
_cell_angle_beta   90.00011798
_cell_angle_gamma   89.99218333
_symmetry_Int_Tables_number   1
_chemical_formula_structural   V3Zn3O8
_chemical_formula_sum   'V96 Zn96 O256'
_cell_volume   4986.61635166
_cell_formula_units_Z   32
loop_
 _symmetry_equiv_pos_site_id
 _symmetry_equiv_pos_as_xyz
  1  'x, y, z'
loop_
 _atom_site_type_symbol
 _atom_site_label
 _atom_site_symmetry_multiplicity
 _atom_site_fract_x
 _atom_site_fract_y
 _atom_site_fract_z
 _atom_site_occupancy
  V  V0  1  0.62433220  0.50008926  0.12411133  1
  V  V1  1  0.37461926  0.37442701  0.00062255  1
  V  V2  1  0.50095321  0.25055192  0.74930984  1
  V  V3  1  0.75128988  -0.00004167  0.74967694  1
  V  V4  1  0.37509157  0.12485204  0.75106804  1
  V  V5  1  0.74757157  0.62395611  0.37458430  1
  V  V6  1  0.74916952  0.49964179  0.24987186  1
  V  V7  1  0.25098292  0.37597613  0.62528420  1
  V  V8  1  0.74993518  0.37424377  0.12429849  1
  V  V9  1  0.00002304  0.37604505  0.87621201  1
  V  V10  1  0.50016316  0.75044088  0.74958009  1
  V  V11  1  0.75105033  0.75014082  0.49956072  1
  V  V12  1  0.12327102  0.87477086  0.25070566  1
  V  V13  1  0.25001639  0.12537652  0.37590185  1
  V  V14  1  0.12530876  0.25034983  0.37606261  1
  V  V15  1  0.37637159  0.25039901  0.62521775  1
  V  V16  1  0.75080492  0.87399403  0.62347699  1
  V  V17  1  0.37631871  0.37591220  0.49866536  1
  V  V18  1  -0.00071376  0.49853961  -0.00023205  1
  V  V19  1  0.49932175  0.87518026  0.87470814  1
  V  V20  1  0.62458361  0.75006868  0.87483515  1
  V  V21  1  0.12385454  -0.00012466  0.12582502  1
  V  V22  1  0.62424650  0.87401640  0.24967652  1
  V  V23  1  0.49990146  0.24854074  0.24955319  1
  V  V24  1  0.62418410  0.62406269  0.49992226  1
  V  V25  1  0.37458568  0.74942942  0.12541961  1
  V  V26  1  0.75003298  0.62465112  0.87437179  1
  V  V27  1  0.87619184  0.12513156  0.75042217  1
  V  V28  1  0.00044925  0.25034550  0.75014696  1
  V  V29  1  0.37513021  0.25017279  0.12531531  1
  V  V30  1  0.62432633  0.62433421  -0.00009825  1
  V  V31  1  0.12407145  0.37457349  0.25091076  1
  V  V32  1  0.12462389  0.87568214  0.75104450  1
  V  V33  1  0.62562931  0.24982727  0.87441503  1
  V  V34  1  0.74990336  0.74998720  0.00011906  1
  V  V35  1  -0.00101214  -0.00043235  0.00079760  1
  V  V36  1  0.50030445  0.50053895  0.00031856  1
  V  V37  1  0.37378446  0.87537862  0.00023441  1
  V  V38  1  0.12592797  0.62513828  -0.00093292  1
  V  V39  1  -0.00047189  0.49921023  0.49924578  1
  V  V40  1  0.25006234  0.25007819  0.49968191  1
  V  V41  1  0.37511993  0.50009718  0.87494978  1
  V  V42  1  0.00084710  0.00054941  0.50127806  1
  V  V43  1  0.24992876  0.50067388  0.25110178  1
  V  V44  1  0.50062746  0.00004913  0.00051913  1
  V  V45  1  0.24921031  0.62588993  0.87548792  1
  V  V46  1  0.87488781  0.12435033  0.25020022  1
  V  V47  1  0.24971500  0.87788595  0.62573821  1
  V  V48  1  -0.00239959  0.74894674  0.24945999  1
  V  V49  1  0.74903538  0.50036106  0.74941157  1
  V  V50  1  0.12522983  0.62675136  0.50003537  1
  V  V51  1  0.37457102  0.62563968  0.74970667  1
  V  V52  1  0.24962906  0.62562880  0.37539336  1
  V  V53  1  0.12666633  0.37529693  0.75025868  1
  V  V54  1  0.12575172  0.24892853  0.87647621  1
  V  V55  1  0.37479371  0.87617938  0.50029366  1
  V  V56  1  0.62535043  0.87556096  0.74943450  1
  V  V57  1  0.00012739  0.62691513  0.62621182  1
  V  V58  1  0.25033703  0.37461117  0.12531550  1
  V  V59  1  0.00116671  0.87406473  0.87452338  1
  V  V60  1  0.75081481  0.12359555  0.37373184  1
  V  V61  1  0.62555763  0.12439987  0.49978979  1
  V  V62  1  0.62452241  -0.00046299  0.12382976  1
  V  V63  1  0.74976478  0.87384057  0.12429921  1
  V  V64  1  0.12461715  0.49954547  0.12566208  1
  V  V65  1  0.24879019  0.00068392  0.25167669  1
  V  V66  1  0.62601104  0.24938346  0.37455504  1
  V  V67  1  0.62445617  0.50045383  0.62477639  1
  V  V68  1  0.25029458  0.49996383  0.74915049  1
  V  V69  1  0.87596023  0.25131036  0.62465605  1
  V  V70  1  0.24944625  0.87564872  0.12520403  1
  V  V71  1  0.62452643  0.12418303  -0.00039526  1
  V  V72  1  0.75058983  -0.00039916  0.25013099  1
  V  V73  1  0.49924332  0.37520997  0.37561545  1
  V  V74  1  0.87439273  0.49917471  0.37439825  1
  V  V75  1  0.37507868  0.00108032  0.87487300  1
  V  V76  1  0.87475654  -0.00003959  0.87409143  1
  V  V77  1  0.75158622  0.25002365  0.50016285  1
  V  V78  1  0.00002406  0.24910097  0.25118227  1
  V  V79  1  0.37426491  0.12474302  0.24973331  1
  V  V80  1  0.62596148  0.37548720  0.74890777  1
  V  V81  1  0.50125375  -0.00016872  0.49976816  1
  V  V82  1  0.62605457  0.00063077  0.62423368  1
  V  V83  1  0.49986282  0.37540864  0.87448633  1
  V  V84  1  0.37409267  0.62536000  0.25001606  1
  V  V85  1  0.12415935  0.74997510  0.37476917  1
  V  V86  1  0.87424684  0.87413319  -0.00023049  1
  V  V87  1  0.49973424  0.87381398  0.37315074  1
  V  V88  1  0.49987641  0.62552654  0.62380869  1
  V  V89  1  -0.00091729  0.12482238  0.12668245  1
  V  V90  1  0.62462886  0.37393463  0.24977879  1
  V  V91  1  -0.00018175  0.62443633  0.12491741  1
  V  V92  1  0.12485919  0.12572485  -0.00014578  1
  V  V93  1  0.37496735  0.75138029  0.62475345  1
  V  V94  1  0.87555397  0.62501315  0.75017341  1
  V  V95  1  0.75099507  0.25022972  0.00026905  1
  Zn  Zn96  1  0.87578399  0.75197001  0.62492985  1
  Zn  Zn97  1  0.12509124  0.75013685  0.87648293  1
  Zn  Zn98  1  0.49926561  0.12427763  0.12554722  1
  Zn  Zn99  1  0.62492385  0.74810192  0.37186802  1
  Zn  Zn100  1  0.87420508  0.49791448  0.87662250  1
  Zn  Zn101  1  0.87369564  0.74765213  0.12472236  1
  Zn  Zn102  1  0.12681915  0.12536875  0.50384084  1
  Zn  Zn103  1  0.24808603  0.75085033  -0.00181642  1
  Zn  Zn104  1  -0.00282106  0.87454681  0.37686226  1
  Zn  Zn105  1  0.24900143  0.75123943  0.49943320  1
  Zn  Zn106  1  0.87562091  0.37503559  -0.00005710  1
  Zn  Zn107  1  0.00027253  0.75002563  0.75139258  1
  Zn  Zn108  1  0.87607894  0.25106800  0.12482477  1
  Zn  Zn109  1  0.12581063  0.00388147  0.62669016  1
  Zn  Zn110  1  0.75032785  0.12478684  0.87439655  1
  Zn  Zn111  1  0.37347649  0.00019398  0.37524876  1
  Zn  Zn112  1  0.87565398  0.87552860  0.49949807  1
  Zn  Zn113  1  0.87269433  0.62498450  0.24719274  1
  Zn  Zn114  1  0.50117169  0.74760176  0.25003795  1
  Zn  Zn115  1  0.49924983  0.50077203  0.49803041  1
  Zn  Zn116  1  0.74999525  0.37634999  0.62357740  1
  Zn  Zn117  1  0.37624865  0.50162556  0.37561968  1
  Zn  Zn118  1  0.25061977  0.24857721  -0.00019816  1
  Zn  Zn119  1  0.50119520  0.12526602  0.62361135  1
  Zn  Zn120  1  0.87534247  -0.00288154  0.37586582  1
  Zn  Zn121  1  0.24874952  0.00219547  0.75221313  1
  Zn  Zn122  1  0.49960772  0.62503048  0.12670152  1
  Zn  Zn123  1  0.00563532  0.12594071  0.62574672  1
  Zn  Zn124  1  0.87401189  0.37471804  0.50078145  1
  Zn  Zn125  1  0.25047576  0.12547309  0.87775975  1
  Zn  Zn126  1  -0.00031161  0.37320111  0.37587038  1
  Zn  Zn127  1  0.12604907  0.50053781  0.62491255  1
  Zn  Zn128  1  0.18744457  0.18773805  0.18758122  1
  Zn  Zn129  1  0.18846213  0.18857638  0.68758722  1
  Zn  Zn130  1  0.18703748  0.68780676  0.18722163  1
  Zn  Zn131  1  0.18700850  0.69045567  0.68777530  1
  Zn  Zn132  1  0.68714647  0.18576167  0.18573426  1
  Zn  Zn133  1  0.69015254  0.18663180  0.68648930  1
  Zn  Zn134  1  0.68626093  0.68715050  0.18733427  1
  Zn  Zn135  1  0.68766721  0.68754752  0.68588210  1
  Zn  Zn136  1  0.31261212  0.31245125  0.31264495  1
  Zn  Zn137  1  0.31162198  0.31088948  0.81377779  1
  Zn  Zn138  1  0.31180341  0.81210118  0.31248851  1
  Zn  Zn139  1  0.31065200  0.81229513  0.81255705  1
  Zn  Zn140  1  0.81372587  0.31236860  0.31229335  1
  Zn  Zn141  1  0.81314318  0.31388531  0.81286054  1
  Zn  Zn142  1  0.81393908  0.81411372  0.31527036  1
  Zn  Zn143  1  0.81367126  0.81178924  0.81223128  1
  Zn  Zn144  1  0.18778739  0.43805787  0.43731148  1
  Zn  Zn145  1  0.18740125  0.43732808  0.93793002  1
  Zn  Zn146  1  0.18444119  0.93748558  0.43763147  1
  Zn  Zn147  1  0.18877684  0.94015439  0.93695736  1
  Zn  Zn148  1  0.68709221  0.43594781  0.43931593  1
  Zn  Zn149  1  0.68791028  0.43731698  0.93619980  1
  Zn  Zn150  1  0.68666484  0.93650752  0.43583675  1
  Zn  Zn151  1  0.68797302  0.93754823  0.93638429  1
  Zn  Zn152  1  0.31155812  0.06319309  0.06329168  1
  Zn  Zn153  1  0.31459564  0.06288553  0.56268756  1
  Zn  Zn154  1  0.31127951  0.56208715  0.06263496  1
  Zn  Zn155  1  0.31292897  0.56200276  0.56081049  1
  Zn  Zn156  1  0.81226558  0.06315812  0.06297398  1
  Zn  Zn157  1  0.81556538  0.06405113  0.56306168  1
  Zn  Zn158  1  0.81411720  0.56173179  0.06238413  1
  Zn  Zn159  1  0.81220843  0.56358931  0.56292141  1
  Zn  Zn160  1  0.43746742  0.43797020  0.18840363  1
  Zn  Zn161  1  0.43842613  0.43837767  0.68604687  1
  Zn  Zn162  1  0.43651669  0.93827644  0.18769542  1
  Zn  Zn163  1  0.43868119  0.93945031  0.68651474  1
  Zn  Zn164  1  0.93652224  0.43539568  0.18691052  1
  Zn  Zn165  1  0.93789497  0.43763726  0.68868895  1
  Zn  Zn166  1  0.93532973  0.93604883  0.18741105  1
  Zn  Zn167  1  0.93764647  0.93689807  0.68464515  1
  Zn  Zn168  1  0.06295298  0.06371889  0.31666134  1
  Zn  Zn169  1  0.06182879  0.06263068  0.81310293  1
  Zn  Zn170  1  0.06292261  0.56378993  0.31269882  1
  Zn  Zn171  1  0.06382326  0.56045366  0.81381707  1
  Zn  Zn172  1  0.56241957  0.06115085  0.31223354  1
  Zn  Zn173  1  0.56226519  0.06344114  0.81247942  1
  Zn  Zn174  1  0.56046010  0.56202964  0.31213349  1
  Zn  Zn175  1  0.56221370  0.56252597  0.81192441  1
  Zn  Zn176  1  0.43731478  0.18729992  0.43652995  1
  Zn  Zn177  1  0.43893530  0.18781702  0.93803858  1
  Zn  Zn178  1  0.43566381  0.68923515  0.43783394  1
  Zn  Zn179  1  0.43660115  0.68781823  0.93873900  1
  Zn  Zn180  1  0.93808466  0.18379944  0.43733041  1
  Zn  Zn181  1  0.93748857  0.18738723  0.93690818  1
  Zn  Zn182  1  0.93574429  0.68547712  0.43558034  1
  Zn  Zn183  1  0.93892774  0.68768476  0.93669764  1
  Zn  Zn184  1  0.06254468  0.31163289  0.06320471  1
  Zn  Zn185  1  0.06393944  0.31364151  0.56334592  1
  Zn  Zn186  1  0.06241891  0.81111814  0.06242551  1
  Zn  Zn187  1  0.06369110  0.81416653  0.56301808  1
  Zn  Zn188  1  0.56189737  0.31208788  0.06240875  1
  Zn  Zn189  1  0.56288581  0.31278443  0.56226519  1
  Zn  Zn190  1  0.56125252  0.81246560  0.06243827  1
  Zn  Zn191  1  0.56408894  0.81215472  0.56045180  1
  O  O192  1  0.11861685  0.11862153  0.12112373  1
  O  O193  1  0.12424930  0.12187962  0.62285196  1
  O  O194  1  0.12025318  0.61831976  0.11993859  1
  O  O195  1  0.11585695  0.62409030  0.62068717  1
  O  O196  1  0.62280782  0.11688837  0.11792539  1
  O  O197  1  0.62464983  0.11845005  0.61792023  1
  O  O198  1  0.62313906  0.61795084  0.11746615  1
  O  O199  1  0.61888801  0.62022794  0.62059130  1
  O  O200  1  0.38160352  0.37463994  0.38098102  1
  O  O201  1  0.38061596  0.38063880  0.87973021  1
  O  O202  1  0.38287019  0.87636274  0.38045317  1
  O  O203  1  0.38060305  0.87997287  0.87965955  1
  O  O204  1  0.87701086  0.38774381  0.37713330  1
  O  O205  1  0.88462654  0.37723159  0.87667135  1
  O  O206  1  0.87929239  0.87924137  0.38109077  1
  O  O207  1  0.88042680  0.88052097  0.87970490  1
  O  O208  1  0.24976420  0.00627526  0.36884911  1
  O  O209  1  0.26006018  0.00414958  0.87224075  1
  O  O210  1  0.25102297  0.50765509  0.36815721  1
  O  O211  1  0.25660274  0.50477123  0.86876656  1
  O  O212  1  0.74908803  0.00657165  0.36751891  1
  O  O213  1  0.75678790  -0.00005448  0.86758218  1
  O  O214  1  0.75628545  0.50349995  0.37059854  1
  O  O215  1  0.75000365  0.50748451  0.86773003  1
  O  O216  1  0.24377789  0.49438217  0.13134514  1
  O  O217  1  0.24983307  0.49395128  0.63169706  1
  O  O218  1  0.24301820  0.99474564  0.13160363  1
  O  O219  1  0.25146612  0.98770517  0.62827949  1
  O  O220  1  0.74345318  0.49446480  0.12974694  1
  O  O221  1  0.74293027  0.50004253  0.63169126  1
  O  O222  1  0.74387667  0.99347427  0.12955499  1
  O  O223  1  0.74530313  0.99446371  0.62994455  1
  O  O224  1  0.00693430  0.36828762  0.25139041  1
  O  O225  1  0.00691403  0.37063711  0.75543177  1
  O  O226  1  0.00522629  0.86461875  0.24888967  1
  O  O227  1  0.00821510  0.87461834  0.75452379  1
  O  O228  1  0.50564915  0.36847860  0.25511953  1
  O  O229  1  0.50545827  0.37046628  0.75565170  1
  O  O230  1  0.50435576  0.87568866  0.25877392  1
  O  O231  1  0.50558640  0.86989470  0.75494217  1
  O  O232  1  0.49362246  0.13073336  0.24957926  1
  O  O233  1  0.49109881  0.13176753  0.74881494  1
  O  O234  1  0.49111743  0.62737693  0.24708242  1
  O  O235  1  0.49425889  0.63121200  0.74483496  1
  O  O236  1  0.99529200  0.12909404  0.24584432  1
  O  O237  1  0.99350130  0.13266463  0.74941912  1
  O  O238  1  1.00055832  0.63414648  0.24386517  1
  O  O239  1  0.99318538  0.62280599  0.74217860  1
  O  O240  1  0.37540906  0.25728564  0.00633459  1
  O  O241  1  0.37012035  0.25547497  0.50562939  1
  O  O242  1  0.37297519  0.75640700  0.00895913  1
  O  O243  1  0.37252588  0.75826583  0.50802330  1
  O  O244  1  0.86256975  0.25070393  0.00127545  1
  O  O245  1  0.87157704  0.24980382  0.50871775  1
  O  O246  1  0.86747738  0.75641519  -0.00032053  1
  O  O247  1  0.86113833  0.74712869  0.50140399  1
  O  O248  1  0.13270483  0.25110592  0.49394737  1
  O  O249  1  0.12494704  0.24303959  0.99427699  1
  O  O250  1  0.12495729  0.74380420  0.49310292  1
  O  O251  1  0.12784359  0.74101801  0.99908429  1
  O  O252  1  0.63089321  0.24420824  0.49422020  1
  O  O253  1  0.63157087  0.24527370  0.99465969  1
  O  O254  1  0.63555626  0.74316527  0.49832185  1
  O  O255  1  0.62928392  0.74503567  0.99395045  1
  O  O256  1  0.49384081  0.24910883  0.13223077  1
  O  O257  1  0.49405050  0.24868022  0.63180117  1
  O  O258  1  0.48602956  0.74993397  0.12591661  1
  O  O259  1  0.49544881  0.74603384  0.63075072  1
  O  O260  1  0.99963548  0.24238888  0.13284282  1
  O  O261  1  0.99171117  0.25079280  0.63115626  1
  O  O262  1  0.99958179  0.74379330  0.13460593  1
  O  O263  1  0.99793361  0.73704370  0.62548841  1
  O  O264  1  0.00650749  0.25086578  0.36953524  1
  O  O265  1  0.00565730  0.25601048  0.86949966  1
  O  O266  1  0.00544216  0.74753337  0.36502123  1
  O  O267  1  0.00316180  0.75874458  0.87242965  1
  O  O268  1  0.50697563  0.25487943  0.36894422  1
  O  O269  1  0.50586638  0.25676848  0.86933268  1
  O  O270  1  0.50135218  0.76325196  0.37424772  1
  O  O271  1  0.50467950  0.75541762  0.86940185  1
  O  O272  1  0.25172415  0.13257538  0.49397957  1
  O  O273  1  0.24052354  0.12718633  0.99960814  1
  O  O274  1  0.24298284  0.62715579  0.49465070  1
  O  O275  1  0.24355986  0.62379936  0.99290208  1
  O  O276  1  0.74495847  0.12993299  0.49401593  1
  O  O277  1  0.74364832  0.13387568  0.99868125  1
  O  O278  1  0.74397210  0.63145433  0.49541055  1
  O  O279  1  0.74386684  0.62967140  0.99410166  1
  O  O280  1  0.25718533  0.37501147  0.00744764  1
  O  O281  1  0.25583967  0.37014069  0.50520950  1
  O  O282  1  0.25629910  0.87536591  0.00743336  1
  O  O283  1  0.25478817  0.87493923  0.50964468  1
  O  O284  1  0.74811759  0.36531920  0.00512509  1
  O  O285  1  0.75290964  0.36594994  0.50281468  1
  O  O286  1  0.75403236  0.86951532  0.00417783  1
  O  O287  1  0.74758301  0.86505936  0.50488826  1
  O  O288  1  0.12963955  0.49492162  0.24501765  1
  O  O289  1  0.13281106  0.49308205  0.74833656  1
  O  O290  1  0.12853271  0.99494772  0.24492831  1
  O  O291  1  0.12666773  0.98838566  0.74909231  1
  O  O292  1  0.62992361  0.49337259  0.24431372  1
  O  O293  1  0.62937050  0.49569230  0.74478281  1
  O  O294  1  0.63061856  0.99421132  0.24340047  1
  O  O295  1  0.63022402  0.99467335  0.74511199  1
  O  O296  1  0.36643133  0.00624126  0.25063932  1
  O  O297  1  0.37804186  0.01012778  0.75587962  1
  O  O298  1  0.36716749  0.50713449  0.25013762  1
  O  O299  1  0.37068075  0.50598024  0.75543530  1
  O  O300  1  0.86777673  0.00619133  0.25037275  1
  O  O301  1  0.87064159  0.00470657  0.75434647  1
  O  O302  1  0.86880188  0.50035356  0.25905827  1
  O  O303  1  0.86916275  0.51083093  0.75033180  1
  O  O304  1  0.12381228  0.36887953  0.36820466  1
  O  O305  1  0.12015438  0.36949464  0.86958744  1
  O  O306  1  0.12186051  0.86753032  0.36746093  1
  O  O307  1  0.12016446  0.87610093  0.86723227  1
  O  O308  1  0.62060923  0.36840315  0.36880032  1
  O  O309  1  0.61876366  0.36990511  0.86882188  1
  O  O310  1  0.61529396  0.87385726  0.36852750  1
  O  O311  1  0.61913320  0.86951186  0.86918613  1
  O  O312  1  0.37632377  0.13173380  0.13184367  1
  O  O313  1  0.37816537  0.13137243  0.63428617  1
  O  O314  1  0.37379646  0.63420029  0.12984208  1
  O  O315  1  0.37951710  0.63128254  0.63050593  1
  O  O316  1  0.88169473  0.12616675  0.13181717  1
  O  O317  1  0.87718983  0.13731487  0.63176826  1
  O  O318  1  0.88335001  0.62699418  0.12756807  1
  O  O319  1  0.88320461  0.62534717  0.63349015  1
  O  O320  1  0.25673662  0.25761168  0.12466074  1
  O  O321  1  0.25743247  0.25711285  0.62013822  1
  O  O322  1  0.25963662  0.75658926  0.12441633  1
  O  O323  1  0.25646423  0.76167618  0.62472658  1
  O  O324  1  0.74843730  0.25529282  0.11512929  1
  O  O325  1  0.76021652  0.25077091  0.61939337  1
  O  O326  1  0.75019178  0.75596157  0.11751990  1
  O  O327  1  0.74952781  0.75487009  0.61523028  1
  O  O328  1  0.24504025  0.24532882  0.38029465  1
  O  O329  1  0.24156245  0.24755199  0.87854985  1
  O  O330  1  0.24179971  0.74385230  0.37567153  1
  O  O331  1  0.24851643  0.74110444  0.87748030  1
  O  O332  1  0.74495405  0.24394707  0.37948031  1
  O  O333  1  0.74365874  0.24968710  0.88392364  1
  O  O334  1  0.74835286  0.74302199  0.38340555  1
  O  O335  1  0.74330966  0.74507380  0.87996234  1
  O  O336  1  0.00425363  0.11874916  0.00623625  1
  O  O337  1  0.00318021  0.11298019  0.50206825  1
  O  O338  1  0.00595958  0.61877949  0.00500015  1
  O  O339  1  0.00337867  0.61779267  0.50719896  1
  O  O340  1  0.50673366  0.11766971  0.00157078  1
  O  O341  1  0.50766621  0.11844480  0.49926915  1
  O  O342  1  0.50639035  0.61819367  0.00056906  1
  O  O343  1  0.50581137  0.62614287  0.50653738  1
  O  O344  1  0.49420334  0.37436521  0.49298889  1
  O  O345  1  0.49498725  0.38071053  0.99368616  1
  O  O346  1  0.49638376  0.87955121  0.49227809  1
  O  O347  1  0.49421887  0.88005441  0.99349607  1
  O  O348  1  0.99856401  0.38860133  0.49939498  1
  O  O349  1  1.00072684  0.38090864  0.99433338  1
  O  O350  1  0.99904688  0.88703240  0.50087185  1
  O  O351  1  0.99452369  0.88076233  0.99596235  1
  O  O352  1  0.49743065  0.49037522  0.37680426  1
  O  O353  1  0.49452198  0.49490302  0.87970977  1
  O  O354  1  0.49909823  0.98889935  0.38047316  1
  O  O355  1  0.49563667  0.99349194  0.88042048  1
  O  O356  1  0.99148525  0.50261683  0.38349042  1
  O  O357  1  1.00015058  0.49300954  0.88206996  1
  O  O358  1  0.99981572  0.99867697  0.38844758  1
  O  O359  1  0.99381991  0.99384086  0.88164307  1
  O  O360  1  0.00490566  0.00438568  0.12029094  1
  O  O361  1  0.00118925  0.00253979  0.61333108  1
  O  O362  1  0.00623767  0.50421685  0.12091281  1
  O  O363  1  -0.00025582  0.50967091  0.61623309  1
  O  O364  1  0.50661076  -0.00055849  0.11784261  1
  O  O365  1  0.50868606  0.00064340  0.61756761  1
  O  O366  1  0.50675711  0.49993875  0.11770067  1
  O  O367  1  0.50636954  0.50837633  0.62399024  1
  O  O368  1  0.24435390  0.38058821  0.24488873  1
  O  O369  1  0.24677426  0.38021849  0.74501101  1
  O  O370  1  0.24328686  0.88058490  0.24490681  1
  O  O371  1  0.24328939  0.87675809  0.74243107  1
  O  O372  1  0.74331699  0.37955410  0.24508406  1
  O  O373  1  0.74295850  0.38212099  0.74917324  1
  O  O374  1  0.74441459  0.87963321  0.24435745  1
  O  O375  1  0.74436711  0.87950467  0.74469882  1
  O  O376  1  0.25444285  0.11993393  0.25552208  1
  O  O377  1  0.26516929  0.12509696  0.75161810  1
  O  O378  1  0.25364681  0.61983248  0.25522609  1
  O  O379  1  0.25574276  0.62027860  0.75402005  1
  O  O380  1  0.75420497  0.11924222  0.25393347  1
  O  O381  1  0.75733308  0.11754403  0.75174128  1
  O  O382  1  0.74967057  0.61722950  0.25595355  1
  O  O383  1  0.75663158  0.62103022  0.75417321  1
  O  O384  1  0.36804416  0.12391932  0.36758731  1
  O  O385  1  0.37691241  0.12047274  0.86630335  1
  O  O386  1  0.36750914  0.62625238  0.36834015  1
  O  O387  1  0.37077148  0.61932693  0.86918995  1
  O  O388  1  0.86720706  0.12229950  0.36747967  1
  O  O389  1  0.87391602  0.11763920  0.86861875  1
  O  O390  1  0.86752050  0.61283493  0.37287268  1
  O  O391  1  0.86930492  0.62349995  0.86538764  1
  O  O392  1  0.13046666  0.38031330  0.13124816  1
  O  O393  1  0.13316821  0.37697407  0.63231309  1
  O  O394  1  0.12947709  0.88074928  0.13042926  1
  O  O395  1  0.13430422  0.87582150  0.63352249  1
  O  O396  1  0.62983072  0.38018899  0.13042262  1
  O  O397  1  0.62567515  0.38157518  0.63214738  1
  O  O398  1  0.63007481  0.88006870  0.12893100  1
  O  O399  1  0.63039666  0.88048445  0.63076153  1
  O  O400  1  0.11991186  0.25505228  0.25592268  1
  O  O401  1  0.12008090  0.25609939  0.75596444  1
  O  O402  1  0.11619163  0.75451493  0.25391605  1
  O  O403  1  0.12302488  0.76347974  0.75226052  1
  O  O404  1  0.62068044  0.25430041  0.25494618  1
  O  O405  1  0.62108782  0.25466168  0.75434990  1
  O  O406  1  0.62147540  0.75827154  0.25100209  1
  O  O407  1  0.61989375  0.75544957  0.75522508  1
  O  O408  1  0.38044153  0.24489524  0.24473174  1
  O  O409  1  0.38112166  0.24373904  0.74628440  1
  O  O410  1  0.37466012  0.74500229  0.24003021  1
  O  O411  1  0.38131453  0.74527087  0.74496194  1
  O  O412  1  0.88143317  0.24261583  0.24900361  1
  O  O413  1  0.87991941  0.24579518  0.74342537  1
  O  O414  1  0.88605823  0.74774805  0.24911862  1
  O  O415  1  0.87612078  0.73651060  0.74782119  1
  O  O416  1  0.37807868  0.49165062  0.49729336  1
  O  O417  1  0.38053957  0.49449413  0.99453561  1
  O  O418  1  0.38297157  0.99342968  0.49858146  1
  O  O419  1  0.38092772  0.99492623  0.99577417  1
  O  O420  1  0.88247015  0.50081667  0.49217305  1
  O  O421  1  0.88344874  0.49691909  0.99724372  1
  O  O422  1  0.88792907  1.00054735  0.49950662  1
  O  O423  1  0.87949079  0.99426429  0.99473927  1
  O  O424  1  0.11797641  0.00477664  0.00633466  1
  O  O425  1  0.11298859  0.00118584  0.50286834  1
  O  O426  1  0.11953752  0.50480462  0.00668655  1
  O  O427  1  0.11463501  0.50703547  0.50031359  1
  O  O428  1  0.62026343  0.00382097  0.00388949  1
  O  O429  1  0.62138213  0.00515909  0.50504844  1
  O  O430  1  0.62009550  0.50475519  0.00396027  1
  O  O431  1  0.62375974  0.50665281  0.50694970  1
  O  O432  1  0.37001974  0.37023169  0.12035242  1
  O  O433  1  0.37074674  0.36954245  0.62010407  1
  O  O434  1  0.36931925  0.86837050  0.12074858  1
  O  O435  1  0.36864890  0.87097670  0.62164729  1
  O  O436  1  0.86524017  0.37145137  0.12226828  1
  O  O437  1  0.87352002  0.36315578  0.62532209  1
  O  O438  1  0.86711676  0.87282192  0.11719651  1
  O  O439  1  0.86595539  0.87087416  0.62172056  1
  O  O440  1  0.13353810  0.13350225  0.37739316  1
  O  O441  1  0.12476569  0.13105797  0.88179030  1
  O  O442  1  0.13007779  0.63073223  0.38031287  1
  O  O443  1  0.13173154  0.62514286  0.88085133  1
  O  O444  1  0.63097983  0.13037902  0.37947364  1
  O  O445  1  0.62667602  0.13196634  0.88099914  1
  O  O446  1  0.63038459  0.62524778  0.38127172  1
  O  O447  1  0.62973860  0.63104756  0.87940771  1
