# generated using pymatgen
data_V3Zn3O8
_symmetry_space_group_name_H-M   'P 1'
_cell_length_a   17.08618415
_cell_length_b   17.08612952
_cell_length_c   17.08541387
_cell_angle_alpha   90.01498254
_cell_angle_beta   90.00355450
_cell_angle_gamma   89.99992693
_symmetry_Int_Tables_number   1
_chemical_formula_structural   V3Zn3O8
_chemical_formula_sum   'V96 Zn96 O256'
_cell_volume   4987.86011202
_cell_formula_units_Z   32
loop_
 _symmetry_equiv_pos_site_id
 _symmetry_equiv_pos_as_xyz
  1  'x, y, z'
loop_
 _atom_site_type_symbol
 _atom_site_label
 _atom_site_symmetry_multiplicity
 _atom_site_fract_x
 _atom_site_fract_y
 _atom_site_fract_z
 _atom_site_occupancy
  V  V0  1  0.37510880  0.62516567  0.75003370  1
  V  V1  1  -0.00023890  0.62431712  0.62611766  1
  V  V2  1  0.24939085  0.50029712  0.75061003  1
  V  V3  1  0.25068210  0.37465288  0.62510424  1
  V  V4  1  0.37290247  0.25085294  0.12441809  1
  V  V5  1  0.62332103  0.00126136  0.12452757  1
  V  V6  1  0.12557427  0.62433076  0.50033004  1
  V  V7  1  0.12469880  0.87392713  0.75403394  1
  V  V8  1  0.75102260  0.37377151  0.62365801  1
  V  V9  1  0.62733033  0.75028827  0.37563957  1
  V  V10  1  0.25034884  -0.00116476  0.24874931  1
  V  V11  1  0.37494036  0.87501554  0.50043366  1
  V  V12  1  0.37539812  0.37421526  0.50028388  1
  V  V13  1  0.37166498  0.37600023  0.00104977  1
  V  V14  1  0.62628066  0.62530416  0.49918126  1
  V  V15  1  0.00105520  0.37406574  0.37471579  1
  V  V16  1  -0.00162808  0.62508609  0.12430667  1
  V  V17  1  0.37417143  0.50012526  0.87587556  1
  V  V18  1  -0.00058645  0.24856823  0.74884772  1
  V  V19  1  0.50076425  0.87529411  0.37463718  1
  V  V20  1  0.37546841  0.25065186  0.62508903  1
  V  V21  1  0.00050175  0.24938015  0.25062102  1
  V  V22  1  0.62474188  0.74946664  0.87514855  1
  V  V23  1  0.24906533  0.12755972  0.87586007  1
  V  V24  1  0.62318328  0.62464213  0.00123214  1
  V  V25  1  0.12511675  0.49971487  0.62491003  1
  V  V26  1  0.74946761  0.25076514  -0.00082361  1
  V  V27  1  0.49954436  0.24994082  0.24913864  1
  V  V28  1  0.87398657  0.37452900  -0.00061775  1
  V  V29  1  0.87416123  0.75092502  0.12572733  1
  V  V30  1  0.25121666  0.87460769  0.62503791  1
  V  V31  1  0.62535062  0.49999163  0.62464190  1
  V  V32  1  0.24766594  0.75024402  -0.00006299  1
  V  V33  1  0.62489666  0.37540805  0.75008790  1
  V  V34  1  0.87487343  0.49973240  0.37393663  1
  V  V35  1  0.25033937  0.62479611  0.37551675  1
  V  V36  1  0.37570415  0.00054722  0.37415353  1
  V  V37  1  0.00176428  0.87350916  0.37465466  1
  V  V38  1  0.12416622  0.37487191  0.75065066  1
  V  V39  1  0.87434238  0.49989345  0.87579144  1
  V  V40  1  0.00046278  0.12472928  0.62497736  1
  V  V41  1  0.37538071  0.12588319  0.74927671  1
  V  V42  1  0.25048250  0.12528229  0.37541003  1
  V  V43  1  0.12601489  -0.00114695  0.12505826  1
  V  V44  1  0.87387293  0.12376309  0.25091016  1
  V  V45  1  0.49982517  0.74895000  0.74979710  1
  V  V46  1  0.62498138  0.87474985  0.74951299  1
  V  V47  1  0.74954579  0.49997603  0.74978682  1
  V  V48  1  0.12612265  -0.00042930  0.62471134  1
  V  V49  1  0.37518124  0.49989492  0.37489906  1
  V  V50  1  0.50012848  0.62486830  0.62573842  1
  V  V51  1  0.25220126  0.00080398  0.75005485  1
  V  V52  1  0.87513998  0.75045218  0.62507848  1
  V  V53  1  0.74967017  0.37419275  0.12419897  1
  V  V54  1  0.62537892  -0.00110657  0.62482427  1
  V  V55  1  0.24893850  0.50003870  0.24971408  1
  V  V56  1  0.87631040  0.87345600  0.50068738  1
  V  V57  1  0.37548536  0.62562433  0.25026568  1
  V  V58  1  0.87593394  -0.00076132  0.37479127  1
  V  V59  1  -0.00054305  0.12492267  0.12549945  1
  V  V60  1  0.25097986  0.74985069  0.50049281  1
  V  V61  1  -0.00017823  0.00099945  -0.00144279  1
  V  V62  1  0.50082345  0.50006461  0.49968998  1
  V  V63  1  0.87486308  0.37326697  0.50105227  1
  V  V64  1  0.12565310  0.24923995  0.37502344  1
  V  V65  1  0.49963343  0.62567960  0.12617852  1
  V  V66  1  0.74931984  0.62520374  0.87557769  1
  V  V67  1  0.74873406  0.12486360  0.87361665  1
  V  V68  1  0.49877033  0.37634762  0.87543196  1
  V  V69  1  0.74931769  -0.00095154  0.74982460  1
  V  V70  1  0.00023039  0.49888338  0.49929730  1
  V  V71  1  0.62670169  0.12503092  0.49920118  1
  V  V72  1  0.75087668  0.49996821  0.25124858  1
  V  V73  1  0.49959619  0.75011027  0.25069498  1
  V  V74  1  0.74921598  0.87658173  0.12578020  1
  V  V75  1  0.24811625  0.62604925  0.87545198  1
  V  V76  1  0.00150032  -0.00100772  0.49985964  1
  V  V77  1  0.12390526  0.49967283  0.12528274  1
  V  V78  1  0.12665754  0.12437420  0.49930996  1
  V  V79  1  0.62332502  0.12530785  -0.00038337  1
  V  V80  1  -0.00142465  0.37493400  0.87482140  1
  V  V81  1  0.49938040  0.25033002  0.74966039  1
  V  V82  1  0.74922593  0.75021016  0.00145302  1
  V  V83  1  0.62520247  0.37424514  0.24966502  1
  V  V84  1  0.87519892  -0.00006304  0.87428580  1
  V  V85  1  0.62633794  0.24894163  0.37524236  1
  V  V86  1  0.00020466  0.75089371  0.24990043  1
  V  V87  1  0.87515976  0.62553887  0.75015482  1
  V  V88  1  0.37551974  0.87555210  -0.00024207  1
  V  V89  1  0.62414343  0.50031020  0.12559825  1
  V  V90  1  0.50051169  0.37525421  0.37462312  1
  V  V91  1  0.50100422  -0.00005692  0.49991280  1
  V  V92  1  0.62456489  0.25077125  0.87464552  1
  V  V93  1  0.49939768  0.87510573  0.87524863  1
  V  V94  1  0.37571029  0.12584325  0.24911840  1
  V  V95  1  0.12479046  0.74967098  0.37453756  1
  Zn  Zn96  1  0.12606311  0.12776202  -0.00055931  1
  Zn  Zn97  1  0.87255587  0.62520357  0.25202186  1
  Zn  Zn98  1  0.25143136  0.87342526  0.12594265  1
  Zn  Zn99  1  0.37713612  0.00204048  0.87509783  1
  Zn  Zn100  1  0.49837786  0.00193055  -0.00189425  1
  Zn  Zn101  1  0.62424134  0.87743942  0.25095637  1
  Zn  Zn102  1  0.24616620  0.37496149  0.12578001  1
  Zn  Zn103  1  0.49862801  0.50164205  0.00138802  1
  Zn  Zn104  1  -0.00027908  0.49963961  -0.00007045  1
  Zn  Zn105  1  0.00005493  0.75056299  0.75447392  1
  Zn  Zn106  1  0.49912284  0.12424577  0.12240880  1
  Zn  Zn107  1  0.87374124  0.12468432  0.74654686  1
  Zn  Zn108  1  0.12566671  0.37383828  0.25006764  1
  Zn  Zn109  1  0.87535491  0.87520835  -0.00040884  1
  Zn  Zn110  1  0.49998961  0.12518354  0.62575230  1
  Zn  Zn111  1  0.12383956  0.25107585  0.87961568  1
  Zn  Zn112  1  0.74823281  0.00064045  0.25231570  1
  Zn  Zn113  1  0.37538660  0.74956177  0.62515868  1
  Zn  Zn114  1  0.87290124  0.24678413  0.62288786  1
  Zn  Zn115  1  0.25105760  0.24990477  0.49962553  1
  Zn  Zn116  1  -0.00054758  0.87344431  0.87583242  1
  Zn  Zn117  1  0.12775168  0.87355535  0.24972862  1
  Zn  Zn118  1  0.12279569  0.62621128  -0.00203650  1
  Zn  Zn119  1  0.74993440  0.87384155  0.62354468  1
  Zn  Zn120  1  0.12026751  0.74817830  0.87589834  1
  Zn  Zn121  1  0.75108938  0.12419841  0.37502198  1
  Zn  Zn122  1  0.75142958  0.74938741  0.49895024  1
  Zn  Zn123  1  0.75272011  0.62535119  0.37513239  1
  Zn  Zn124  1  0.24606595  0.25009294  0.00074673  1
  Zn  Zn125  1  0.75240143  0.24864345  0.49978619  1
  Zn  Zn126  1  0.87533660  0.24961327  0.12457340  1
  Zn  Zn127  1  0.37390344  0.75056891  0.12673170  1
  Zn  Zn128  1  0.18729234  0.18532886  0.18823726  1
  Zn  Zn129  1  0.18747152  0.18861003  0.68800995  1
  Zn  Zn130  1  0.18676018  0.68679452  0.18637790  1
  Zn  Zn131  1  0.18788972  0.68894424  0.68779568  1
  Zn  Zn132  1  0.68862937  0.18743789  0.18634606  1
  Zn  Zn133  1  0.68745860  0.18686492  0.68585190  1
  Zn  Zn134  1  0.68716633  0.68697118  0.18993808  1
  Zn  Zn135  1  0.68846631  0.68761797  0.68707503  1
  Zn  Zn136  1  0.31047322  0.31351828  0.31144882  1
  Zn  Zn137  1  0.31201533  0.31162317  0.81266295  1
  Zn  Zn138  1  0.31227077  0.81335038  0.31276228  1
  Zn  Zn139  1  0.31215634  0.81160979  0.81430195  1
  Zn  Zn140  1  0.81236976  0.31101673  0.31404251  1
  Zn  Zn141  1  0.81321365  0.31200863  0.81111449  1
  Zn  Zn142  1  0.81359861  0.81357860  0.31083318  1
  Zn  Zn143  1  0.81171929  0.81360977  0.81210331  1
  Zn  Zn144  1  0.18798096  0.43592306  0.43740927  1
  Zn  Zn145  1  0.18506579  0.43881005  0.93847794  1
  Zn  Zn146  1  0.18862983  0.93680773  0.43656210  1
  Zn  Zn147  1  0.19005310  0.94050605  0.93736654  1
  Zn  Zn148  1  0.68936596  0.43669564  0.43717112  1
  Zn  Zn149  1  0.68693351  0.43859293  0.93854240  1
  Zn  Zn150  1  0.69182778  0.93661131  0.43868925  1
  Zn  Zn151  1  0.68673370  0.93759781  0.93861656  1
  Zn  Zn152  1  0.31230792  0.06229849  0.06131091  1
  Zn  Zn153  1  0.31301199  0.06306720  0.56307179  1
  Zn  Zn154  1  0.31119140  0.56423322  0.06346797  1
  Zn  Zn155  1  0.31337720  0.56174026  0.56340369  1
  Zn  Zn156  1  0.81146942  0.06383773  0.06176145  1
  Zn  Zn157  1  0.81297700  0.06045895  0.56330577  1
  Zn  Zn158  1  0.81214493  0.56198866  0.06314008  1
  Zn  Zn159  1  0.81181883  0.56241605  0.56002279  1
  Zn  Zn160  1  0.43750522  0.43823718  0.18752418  1
  Zn  Zn161  1  0.43723022  0.43812709  0.68789506  1
  Zn  Zn162  1  0.43823973  0.93605454  0.18622402  1
  Zn  Zn163  1  0.43843505  0.93818438  0.68702925  1
  Zn  Zn164  1  0.93662053  0.43570105  0.18820546  1
  Zn  Zn165  1  0.93641307  0.43664564  0.68710622  1
  Zn  Zn166  1  0.93818576  0.93674472  0.18785923  1
  Zn  Zn167  1  0.93895367  0.93744566  0.68814589  1
  Zn  Zn168  1  0.06273814  0.06181800  0.31172221  1
  Zn  Zn169  1  0.06477443  0.06292085  0.81191675  1
  Zn  Zn170  1  0.06141027  0.56320758  0.31069994  1
  Zn  Zn171  1  0.06145329  0.56269414  0.81317349  1
  Zn  Zn172  1  0.56199138  0.06375076  0.31085097  1
  Zn  Zn173  1  0.56111829  0.06178864  0.81251474  1
  Zn  Zn174  1  0.56372981  0.56367298  0.31213147  1
  Zn  Zn175  1  0.56126870  0.56183606  0.81344782  1
  Zn  Zn176  1  0.43933260  0.18782759  0.43772980  1
  Zn  Zn177  1  0.43660883  0.18839403  0.93740764  1
  Zn  Zn178  1  0.43886084  0.68792784  0.43792607  1
  Zn  Zn179  1  0.43590165  0.68867720  0.93839351  1
  Zn  Zn180  1  0.93879513  0.18711609  0.43778749  1
  Zn  Zn181  1  0.93627116  0.18701952  0.93594833  1
  Zn  Zn182  1  0.93816093  0.68586442  0.43768222  1
  Zn  Zn183  1  0.93645675  0.68979481  0.93865578  1
  Zn  Zn184  1  0.06084288  0.31169234  0.06209269  1
  Zn  Zn185  1  0.06297045  0.31078442  0.56222056  1
  Zn  Zn186  1  0.06197971  0.81444868  0.06226700  1
  Zn  Zn187  1  0.06273531  0.81178015  0.56431629  1
  Zn  Zn188  1  0.55976713  0.31338075  0.06166001  1
  Zn  Zn189  1  0.56277776  0.31153221  0.56276244  1
  Zn  Zn190  1  0.56156555  0.81236084  0.06338456  1
  Zn  Zn191  1  0.56188564  0.81222567  0.56245538  1
  O  O192  1  0.11886867  0.11344684  0.12478152  1
  O  O193  1  0.12134178  0.11860582  0.61968212  1
  O  O194  1  0.11475392  0.61715135  0.12409654  1
  O  O195  1  0.12059144  0.61917829  0.62022665  1
  O  O196  1  0.62532438  0.11678382  0.11861451  1
  O  O197  1  0.62277142  0.11866408  0.61552358  1
  O  O198  1  0.61979342  0.62003100  0.12056731  1
  O  O199  1  0.61989066  0.61910937  0.62033315  1
  O  O200  1  0.38090020  0.38031538  0.37981050  1
  O  O201  1  0.37850628  0.37971849  0.88230515  1
  O  O202  1  0.38036878  0.88143393  0.38110318  1
  O  O203  1  0.38073165  0.87550525  0.88372899  1
  O  O204  1  0.88172020  0.37969021  0.38094516  1
  O  O205  1  0.87830173  0.38084699  0.87912215  1
  O  O206  1  0.88274925  0.87864013  0.38032676  1
  O  O207  1  0.87435619  0.88880863  0.87742091  1
  O  O208  1  0.25626786  0.00537539  0.36934130  1
  O  O209  1  0.25309920  0.01072407  0.86785945  1
  O  O210  1  0.25545830  0.50589071  0.37098084  1
  O  O211  1  0.25482363  0.50530489  0.86947645  1
  O  O212  1  0.76003723  0.00173353  0.37172885  1
  O  O213  1  0.75622520  0.00491492  0.87106457  1
  O  O214  1  0.75661658  0.49923351  0.36824988  1
  O  O215  1  0.75371384  0.50583160  0.86912285  1
  O  O216  1  0.23939047  0.50209922  0.13122055  1
  O  O217  1  0.24472340  0.49492954  0.63079251  1
  O  O218  1  0.24076811  1.00055117  0.12948510  1
  O  O219  1  0.24505637  0.99432994  0.62975501  1
  O  O220  1  0.74347792  0.49374220  0.13046499  1
  O  O221  1  0.74419083  0.49523282  0.63085338  1
  O  O222  1  0.74148181  0.99219154  0.12391799  1
  O  O223  1  0.74361229  0.99721791  0.63224834  1
  O  O224  1  0.00072964  0.36710278  0.25738563  1
  O  O225  1  0.00409665  0.36787442  0.75394730  1
  O  O226  1  0.00262329  0.86837434  0.25671817  1
  O  O227  1  0.01322621  0.87588386  0.75145655  1
  O  O228  1  0.50539237  0.37018261  0.25563363  1
  O  O229  1  0.50540559  0.37085982  0.75558777  1
  O  O230  1  0.50098437  0.86872411  0.25738923  1
  O  O231  1  0.50533336  0.86857650  0.75490733  1
  O  O232  1  0.49272881  0.13264515  0.24718777  1
  O  O233  1  0.49403635  0.13287380  0.74962190  1
  O  O234  1  0.49452667  0.62998937  0.24620938  1
  O  O235  1  0.49506272  0.62914766  0.74536566  1
  O  O236  1  0.99182987  0.12878302  0.24585602  1
  O  O237  1  1.00099748  0.13330379  0.74407017  1
  O  O238  1  0.99816223  0.63173548  0.23906761  1
  O  O239  1  0.99264356  0.62544326  0.74331669  1
  O  O240  1  0.37398685  0.25924213  0.00843090  1
  O  O241  1  0.37535368  0.25706071  0.50601664  1
  O  O242  1  0.36534769  0.75842548  0.00068556  1
  O  O243  1  0.36907557  0.75646687  0.50049017  1
  O  O244  1  0.86688462  0.25579273  -0.00024003  1
  O  O245  1  0.87418319  0.25741040  0.50187878  1
  O  O246  1  0.86644844  0.75316124  0.00745560  1
  O  O247  1  0.87695752  0.75417738  0.50939238  1
  O  O248  1  0.12716415  0.24219016  0.49349736  1
  O  O249  1  0.12839612  0.24570843  0.99836599  1
  O  O250  1  0.13052153  0.74346016  0.49535718  1
  O  O251  1  0.13595087  0.75115532  0.99842160  1
  O  O252  1  0.62385013  0.24027955  0.49444700  1
  O  O253  1  0.62929279  0.24664529  0.99362918  1
  O  O254  1  0.62423927  0.74486387  0.49056533  1
  O  O255  1  0.62980580  0.74418412  0.99464162  1
  O  O256  1  0.48870146  0.25067287  0.13065670  1
  O  O257  1  0.49374526  0.25015885  0.63266012  1
  O  O258  1  0.49969698  0.74328891  0.13329820  1
  O  O259  1  0.49921068  0.74236619  0.63178998  1
  O  O260  1  0.99764675  0.24227714  0.13234319  1
  O  O261  1  0.99996271  0.24401296  0.63386292  1
  O  O262  1  0.99532406  0.74431367  0.12879301  1
  O  O263  1  0.99051881  0.74311461  0.62695327  1
  O  O264  1  0.00675508  0.25423698  0.37021046  1
  O  O265  1  0.00020248  0.25498275  0.86460371  1
  O  O266  1  0.00581590  0.75376231  0.37036500  1
  O  O267  1  0.00192848  0.75581137  0.87312688  1
  O  O268  1  0.50540241  0.25633954  0.36856036  1
  O  O269  1  0.50502311  0.25731759  0.86949251  1
  O  O270  1  0.50828926  0.75521717  0.37126320  1
  O  O271  1  0.50610378  0.75397107  0.86903156  1
  O  O272  1  0.24435649  0.12538159  0.49282058  1
  O  O273  1  0.25075611  0.12623697  0.98778633  1
  O  O274  1  0.24532979  0.62883426  0.49524767  1
  O  O275  1  0.25022114  0.63521133  0.99429590  1
  O  O276  1  0.73747470  0.12433808  0.49896970  1
  O  O277  1  0.74358643  0.13122349  0.99325278  1
  O  O278  1  0.74148914  0.62759689  0.49649455  1
  O  O279  1  0.74328466  0.63037664  0.99542517  1
  O  O280  1  0.26186937  0.37401876  0.00128120  1
  O  O281  1  0.25788258  0.37451363  0.50683865  1
  O  O282  1  0.25856649  0.86759531  -0.00095611  1
  O  O283  1  0.25534956  0.86989000  0.50476722  1
  O  O284  1  0.75368498  0.36965560  0.00413022  1
  O  O285  1  0.75646677  0.37440150  0.50670448  1
  O  O286  1  0.74933476  0.86904057  0.01092194  1
  O  O287  1  0.76078741  0.87070185  0.50369641  1
  O  O288  1  0.13006940  0.50045093  0.24099834  1
  O  O289  1  0.12999319  0.49489661  0.74370018  1
  O  O290  1  0.13043226  0.99948392  0.24086767  1
  O  O291  1  0.13182940  0.99285760  0.74363730  1
  O  O292  1  0.62972477  0.49325179  0.24544743  1
  O  O293  1  0.62977672  0.49510002  0.74485234  1
  O  O294  1  0.62741156  0.99978234  0.23861528  1
  O  O295  1  0.62934853  0.99431921  0.74510429  1
  O  O296  1  0.37122378  0.00587189  0.25426999  1
  O  O297  1  0.36920530  0.00710799  0.75010841  1
  O  O298  1  0.37017130  0.50556668  0.25643072  1
  O  O299  1  0.36878403  0.50488663  0.75574538  1
  O  O300  1  0.87707743  0.00948841  0.25556505  1
  O  O301  1  0.86971248  0.00052105  0.75891840  1
  O  O302  1  0.86850585  0.49942009  0.25645320  1
  O  O303  1  0.86849681  0.50542755  0.75526295  1
  O  O304  1  0.11870622  0.36814102  0.37447983  1
  O  O305  1  0.11739090  0.37549456  0.86778129  1
  O  O306  1  0.11932303  0.86728938  0.37492751  1
  O  O307  1  0.12607811  0.87744367  0.86307750  1
  O  O308  1  0.61913602  0.37001393  0.36930670  1
  O  O309  1  0.61963948  0.37075407  0.86977160  1
  O  O310  1  0.61963454  0.86673311  0.37522383  1
  O  O311  1  0.62038754  0.86827322  0.87025296  1
  O  O312  1  0.37569786  0.13455783  0.12967232  1
  O  O313  1  0.37670562  0.13237414  0.63089228  1
  O  O314  1  0.38146897  0.62597544  0.13308438  1
  O  O315  1  0.38212555  0.62470198  0.63188226  1
  O  O316  1  0.88053707  0.12465694  0.13465346  1
  O  O317  1  0.88456279  0.12528268  0.62670261  1
  O  O318  1  0.88294501  0.63088182  0.12647482  1
  O  O319  1  0.87991831  0.63095539  0.62954339  1
  O  O320  1  0.26213523  0.25196503  0.12588116  1
  O  O321  1  0.25681069  0.25758092  0.62404345  1
  O  O322  1  0.25153566  0.75134998  0.11418407  1
  O  O323  1  0.25203134  0.75608291  0.61756486  1
  O  O324  1  0.75087076  0.25693614  0.11715554  1
  O  O325  1  0.75192860  0.25818626  0.62281683  1
  O  O326  1  0.75256875  0.75762650  0.12149168  1
  O  O327  1  0.76347249  0.75007144  0.62376266  1
  O  O328  1  0.24454525  0.24275721  0.37580169  1
  O  O329  1  0.24763373  0.23972055  0.87461154  1
  O  O330  1  0.24483022  0.74385320  0.38100518  1
  O  O331  1  0.24809821  0.74389414  0.88423904  1
  O  O332  1  0.74123505  0.24636918  0.37832819  1
  O  O333  1  0.74355164  0.24534856  0.87855676  1
  O  O334  1  0.73857252  0.74993536  0.37485320  1
  O  O335  1  0.74456875  0.74455408  0.88061264  1
  O  O336  1  -0.00072948  0.11457474  0.00523538  1
  O  O337  1  0.00745074  0.11796753  0.50460250  1
  O  O338  1  0.00003230  0.62399919  0.01317616  1
  O  O339  1  0.00683691  0.61815353  0.50597076  1
  O  O340  1  0.50735969  0.12369666  0.00169039  1
  O  O341  1  0.51063596  0.11858234  0.50024502  1
  O  O342  1  0.50557988  0.62489177  0.00682063  1
  O  O343  1  0.50530657  0.61868441  0.50549659  1
  O  O344  1  0.49562905  0.38108771  0.49445246  1
  O  O345  1  0.48814498  0.37707169  0.99411054  1
  O  O346  1  0.49449957  0.88049368  0.49432001  1
  O  O347  1  0.49065397  0.87224122  0.99348014  1
  O  O348  1  0.99602518  0.38054954  0.49509532  1
  O  O349  1  0.99135474  0.37588516  0.99269149  1
  O  O350  1  0.99667971  0.87991440  0.49484559  1
  O  O351  1  0.99764941  0.88981907  0.99891068  1
  O  O352  1  0.49514359  0.49477457  0.37974254  1
  O  O353  1  0.49230179  0.49382934  0.87682098  1
  O  O354  1  0.49476967  0.99485676  0.37948417  1
  O  O355  1  0.49802504  0.99060392  0.87722533  1
  O  O356  1  0.99626494  0.49437097  0.38018302  1
  O  O357  1  0.99165092  0.49366699  0.87587213  1
  O  O358  1  0.99656310  0.99348602  0.38083330  1
  O  O359  1  0.99212452  1.00186786  0.88227008  1
  O  O360  1  0.00622452  0.00434747  0.11796937  1
  O  O361  1  0.00694880  0.00449571  0.61907828  1
  O  O362  1  0.00622071  0.50867194  0.12633361  1
  O  O363  1  0.00565808  0.50452136  0.61954813  1
  O  O364  1  0.51202178  0.00078770  0.12197501  1
  O  O365  1  0.50737520  0.00167771  0.61763939  1
  O  O366  1  0.50697593  0.50707479  0.12523077  1
  O  O367  1  0.50598842  0.50473867  0.61978100  1
  O  O368  1  0.24694018  0.38476299  0.24740949  1
  O  O369  1  0.24489856  0.38125079  0.74510907  1
  O  O370  1  0.24861730  0.88288185  0.24714660  1
  O  O371  1  0.24424363  0.88018759  0.74508644  1
  O  O372  1  0.74402264  0.37882052  0.24405386  1
  O  O373  1  0.74398672  0.38085529  0.74530507  1
  O  O374  1  0.74774612  0.87716703  0.23661193  1
  O  O375  1  0.74187618  0.88122875  0.74868327  1
  O  O376  1  0.25685949  0.11869628  0.25609088  1
  O  O377  1  0.25529405  0.12085427  0.75587644  1
  O  O378  1  0.25544268  0.62041711  0.25695441  1
  O  O379  1  0.25498087  0.61941492  0.75428526  1
  O  O380  1  0.76305937  0.12371586  0.25044728  1
  O  O381  1  0.75015141  0.11794762  0.75644609  1
  O  O382  1  0.75169562  0.61556861  0.25270336  1
  O  O383  1  0.75469906  0.61921986  0.75602931  1
  O  O384  1  0.37102788  0.12006015  0.36955334  1
  O  O385  1  0.36666053  0.12582728  0.86768957  1
  O  O386  1  0.37033454  0.61881064  0.37106726  1
  O  O387  1  0.36936216  0.61942255  0.86949096  1
  O  O388  1  0.87700463  0.11806024  0.36644419  1
  O  O389  1  0.86803502  0.11423962  0.87259258  1
  O  O390  1  0.87446887  0.61589626  0.37310193  1
  O  O391  1  0.86809741  0.62032675  0.87049608  1
  O  O392  1  0.12412271  0.38714033  0.12745498  1
  O  O393  1  0.13035717  0.38087096  0.62987525  1
  O  O394  1  0.12603628  0.88878258  0.12631618  1
  O  O395  1  0.13125378  0.88025872  0.63229461  1
  O  O396  1  0.62903839  0.37970696  0.13008934  1
  O  O397  1  0.62945322  0.38120338  0.63053967  1
  O  O398  1  0.63256282  0.88334463  0.12515117  1
  O  O399  1  0.62599799  0.88033865  0.63142868  1
  O  O400  1  0.11843106  0.24922859  0.25676226  1
  O  O401  1  0.11394834  0.25681206  0.75010465  1
  O  O402  1  0.11912928  0.75055290  0.25690600  1
  O  O403  1  0.12469771  0.76193119  0.75092251  1
  O  O404  1  0.61962413  0.25473934  0.25417218  1
  O  O405  1  0.61986005  0.25619002  0.75546691  1
  O  O406  1  0.61842588  0.75113784  0.26070370  1
  O  O407  1  0.62018270  0.75393321  0.75586406  1
  O  O408  1  0.37955023  0.24665477  0.24271143  1
  O  O409  1  0.38072782  0.24653816  0.74433188  1
  O  O410  1  0.38138398  0.74304744  0.25133981  1
  O  O411  1  0.38157130  0.74288454  0.74902581  1
  O  O412  1  0.88147105  0.23916495  0.25057076  1
  O  O413  1  0.88779071  0.24827899  0.74752836  1
  O  O414  1  0.88213105  0.74833746  0.24317413  1
  O  O415  1  0.87554445  0.74447986  0.74151608  1
  O  O416  1  0.38131077  0.49471443  0.49451661  1
  O  O417  1  0.37487664  0.49177096  0.99524620  1
  O  O418  1  0.38060249  0.99527926  0.49382617  1
  O  O419  1  0.37632602  0.98807192  0.99818567  1
  O  O420  1  0.88184542  0.49397570  0.49469351  1
  O  O421  1  0.87401882  0.49301840  0.99296503  1
  O  O422  1  0.88284883  0.99383021  0.49521134  1
  O  O423  1  0.88219214  1.00088502  0.99158830  1
  O  O424  1  0.11701911  0.00275938  0.00734022  1
  O  O425  1  0.12089564  0.00414161  0.50494129  1
  O  O426  1  0.12210830  0.50320089  0.01232784  1
  O  O427  1  0.12046629  0.50506639  0.50534218  1
  O  O428  1  0.62423143  0.00639428  0.00865036  1
  O  O429  1  0.62068725  0.00621859  0.50366246  1
  O  O430  1  0.62300935  0.50656636  0.00719884  1
  O  O431  1  0.61927952  0.50415432  0.50491251  1
  O  O432  1  0.37404132  0.36868273  0.11739534  1
  O  O433  1  0.37024154  0.37131360  0.62020967  1
  O  O434  1  0.37393400  0.87203724  0.11323581  1
  O  O435  1  0.36897212  0.87379852  0.61829175  1
  O  O436  1  0.86752107  0.37300599  0.11796586  1
  O  O437  1  0.86845482  0.37505971  0.61832075  1
  O  O438  1  0.86516938  0.87108561  0.12326854  1
  O  O439  1  0.87736175  0.86541616  0.62034454  1
  O  O440  1  0.13048203  0.12875861  0.38005761  1
  O  O441  1  0.13707206  0.12655359  0.87485215  1
  O  O442  1  0.13024259  0.62942925  0.38109520  1
  O  O443  1  0.13240124  0.62594597  0.87758223  1
  O  O444  1  0.62539757  0.12946431  0.38355415  1
  O  O445  1  0.62953165  0.13141170  0.87935103  1
  O  O446  1  0.62416956  0.63496922  0.38081634  1
  O  O447  1  0.62991952  0.62977624  0.88015999  1
