# generated using pymatgen
data_V3Zn3O8
_symmetry_space_group_name_H-M   'P 1'
_cell_length_a   17.08899135
_cell_length_b   17.08875927
_cell_length_c   17.08882785
_cell_angle_alpha   90.00345517
_cell_angle_beta   89.99709202
_cell_angle_gamma   89.98981503
_symmetry_Int_Tables_number   1
_chemical_formula_structural   V3Zn3O8
_chemical_formula_sum   'V96 Zn96 O256'
_cell_volume   4990.44448124
_cell_formula_units_Z   32
loop_
 _symmetry_equiv_pos_site_id
 _symmetry_equiv_pos_as_xyz
  1  'x, y, z'
loop_
 _atom_site_type_symbol
 _atom_site_label
 _atom_site_symmetry_multiplicity
 _atom_site_fract_x
 _atom_site_fract_y
 _atom_site_fract_z
 _atom_site_occupancy
  V  V0  1  0.00075571  0.25041780  0.25096172  1
  V  V1  1  0.24950128  0.62528220  0.37346791  1
  V  V2  1  0.62477184  0.12641724  0.49959187  1
  V  V3  1  0.87581501  0.12534388  0.74990659  1
  V  V4  1  0.62426872  0.62537859  0.50106834  1
  V  V5  1  0.12488435  0.12598475  0.50108188  1
  V  V6  1  0.74951605  0.75065643  0.49991598  1
  V  V7  1  0.74938699  0.49940095  0.75157595  1
  V  V8  1  0.37593322  0.87465050  -0.00203178  1
  V  V9  1  0.00023219  0.37595260  0.37744526  1
  V  V10  1  0.87531218  0.62473305  0.75018912  1
  V  V11  1  0.49925402  0.12495345  0.62353231  1
  V  V12  1  0.62539690  0.49965324  0.12547520  1
  V  V13  1  0.50206099  0.24969243  0.25115163  1
  V  V14  1  0.37490461  0.37499367  0.50059914  1
  V  V15  1  0.62469292  0.50161524  0.62565587  1
  V  V16  1  0.87522907  0.62475729  0.25101444  1
  V  V17  1  0.74847335  0.87623118  0.62463919  1
  V  V18  1  0.24946181  0.62555804  0.87560990  1
  V  V19  1  0.74933881  0.49959484  0.24998901  1
  V  V20  1  0.75034240  0.62478083  0.87649567  1
  V  V21  1  0.62405847  0.25036600  0.87458353  1
  V  V22  1  0.75006403  0.62487583  0.37529973  1
  V  V23  1  0.25030774  0.75075389  -0.00049179  1
  V  V24  1  0.25039855  0.24887028  -0.00014514  1
  V  V25  1  0.50013483  0.75028441  0.24862956  1
  V  V26  1  0.12591351  0.37444127  0.25140698  1
  V  V27  1  0.24890557  0.12523252  0.87383005  1
  V  V28  1  0.74983775  0.12452330  0.87485205  1
  V  V29  1  0.87512447  0.12526489  0.25091328  1
  V  V30  1  -0.00117284  0.74890431  0.75049587  1
  V  V31  1  0.75002557  0.37543079  0.12651698  1
  V  V32  1  0.37557904  -0.00046579  0.87377948  1
  V  V33  1  0.87516595  0.49957228  0.37648675  1
  V  V34  1  0.87459950  0.00049026  0.37536882  1
  V  V35  1  0.00110373  0.37390257  0.87602564  1
  V  V36  1  0.00008190  0.25002007  0.75118311  1
  V  V37  1  0.74936313  -0.00015970  0.74907984  1
  V  V38  1  0.49954989  0.49851387  -0.00069049  1
  V  V39  1  0.74993599  -0.00016069  0.24921049  1
  V  V40  1  0.24773331  0.87651438  0.62419058  1
  V  V41  1  0.12426910  0.50111842  0.62589523  1
  V  V42  1  0.62461884  0.00070474  0.62388213  1
  V  V43  1  -0.00020941  0.74960635  0.24980438  1
  V  V44  1  0.87458998  0.87515411  0.49978625  1
  V  V45  1  0.62474104  0.75127800  0.87346997  1
  V  V46  1  0.87476063  0.74934095  0.12482910  1
  V  V47  1  0.87579103  0.37419632  0.00121216  1
  V  V48  1  0.62491946  0.12387652  -0.00053240  1
  V  V49  1  0.12654576  0.87860729  0.24769299  1
  V  V50  1  0.12389926  0.62400301  0.50053795  1
  V  V51  1  0.62474117  0.75028090  0.37493994  1
  V  V52  1  0.74991356  0.24926940  0.00048406  1
  V  V53  1  0.87494585  -0.00093977  0.87509780  1
  V  V54  1  0.12482694  0.74926019  0.87534798  1
  V  V55  1  0.87492727  0.49920879  0.87622099  1
  V  V56  1  0.00122168  0.49910456  0.00185651  1
  V  V57  1  0.00075461  0.12399445  0.12531466  1
  V  V58  1  0.25134146  0.37344910  0.12513194  1
  V  V59  1  0.37591714  0.75006670  0.62587557  1
  V  V60  1  0.12341356  0.87567867  0.74990477  1
  V  V61  1  0.50050500  0.62404257  0.12507814  1
  V  V62  1  0.25074772  0.37575787  0.62454032  1
  V  V63  1  -0.00052841  0.87478407  0.37519558  1
  V  V64  1  0.50068191  -0.00028232  -0.00175604  1
  V  V65  1  0.12590126  0.50012856  0.12526333  1
  V  V66  1  0.37448234  0.62655480  0.74883025  1
  V  V67  1  0.87512754  0.24968143  0.12569318  1
  V  V68  1  0.37439107  0.87691796  0.49757318  1
  V  V69  1  0.37639228  0.50022460  0.37489397  1
  V  V70  1  0.49874072  0.87585500  0.37414722  1
  V  V71  1  0.50024730  0.50178326  0.50034454  1
  V  V72  1  0.75042229  0.25057861  0.50088993  1
  V  V73  1  0.24994965  0.50033652  0.75100421  1
  V  V74  1  0.00006293  -0.00059750  0.00032210  1
  V  V75  1  0.62554189  0.87509246  0.24918665  1
  V  V76  1  0.12450773  0.74956529  0.37452776  1
  V  V77  1  0.49961957  0.25012405  0.74924215  1
  V  V78  1  0.87474900  0.25030301  0.62657405  1
  V  V79  1  0.75101308  0.87384652  0.12560281  1
  V  V80  1  0.75097097  0.74935108  0.00055753  1
  V  V81  1  0.62366140  0.37535304  0.75104490  1
  V  V82  1  0.37498728  0.75118842  0.12303464  1
  V  V83  1  0.00094912  0.62367733  0.12566929  1
  V  V84  1  0.37573800  0.24811317  0.12539695  1
  V  V85  1  0.37553759  0.62528885  0.24960814  1
  V  V86  1  0.25195358  0.49899126  0.24884216  1
  V  V87  1  0.50066858  0.12441365  0.12376033  1
  V  V88  1  -0.00021660  0.00094951  0.50113081  1
  V  V89  1  0.37471777  0.12508837  0.74782639  1
  V  V90  1  0.74944805  0.12672933  0.37561387  1
  V  V91  1  0.25143547  0.12313253  0.37322169  1
  V  V92  1  0.75014110  0.37464022  0.62549881  1
  V  V93  1  0.37551902  0.50027306  0.87494115  1
  V  V94  1  0.87427150  0.74919959  0.62593893  1
  V  V95  1  0.12505760  0.37493494  0.75093232  1
  Zn  Zn96  1  0.25020871  0.87837722  0.12358881  1
  Zn  Zn97  1  0.50258687  0.37472251  0.37460960  1
  Zn  Zn98  1  0.25008250  0.24988713  0.50003364  1
  Zn  Zn99  1  0.62217617  0.87515454  0.74819215  1
  Zn  Zn100  1  -0.00195970  0.87372893  0.87662471  1
  Zn  Zn101  1  0.50099501  0.62700358  0.62674047  1
  Zn  Zn102  1  0.87546310  0.87358408  -0.00144585  1
  Zn  Zn103  1  0.87524482  0.37616486  0.50237242  1
  Zn  Zn104  1  0.12550600  0.12358125  0.00146387  1
  Zn  Zn105  1  0.62509438  0.37505539  0.25309600  1
  Zn  Zn106  1  0.24860062  0.75064231  0.49777323  1
  Zn  Zn107  1  0.37574087  0.12108260  0.25034217  1
  Zn  Zn108  1  0.12561517  0.62575373  0.00083001  1
  Zn  Zn109  1  0.25357240  0.00090072  0.24513883  1
  Zn  Zn110  1  0.12742728  0.25118894  0.37630251  1
  Zn  Zn111  1  -0.00287896  0.49942305  0.50382564  1
  Zn  Zn112  1  0.62568985  0.25269989  0.37508440  1
  Zn  Zn113  1  0.12215589  0.00095691  0.62633381  1
  Zn  Zn114  1  0.50058076  0.87500121  0.87163619  1
  Zn  Zn115  1  -0.00152019  0.62311206  0.62484782  1
  Zn  Zn116  1  0.00148804  0.12492250  0.62633486  1
  Zn  Zn117  1  0.37546590  -0.00057749  0.37031745  1
  Zn  Zn118  1  0.49963474  0.00242803  0.49731550  1
  Zn  Zn119  1  0.37394869  0.24927560  0.62411905  1
  Zn  Zn120  1  0.62576370  0.62491343  -0.00009208  1
  Zn  Zn121  1  0.50073416  0.75171902  0.75102197  1
  Zn  Zn122  1  0.62585134  -0.00124619  0.12320430  1
  Zn  Zn123  1  0.24846078  0.00170974  0.74948264  1
  Zn  Zn124  1  0.37500096  0.37438282  -0.00184082  1
  Zn  Zn125  1  0.49804973  0.37455310  0.87446093  1
  Zn  Zn126  1  0.12735225  0.00119350  0.12376480  1
  Zn  Zn127  1  0.12454411  0.24901347  0.87563758  1
  Zn  Zn128  1  0.18595676  0.18631529  0.18820459  1
  Zn  Zn129  1  0.18773175  0.19114617  0.68551926  1
  Zn  Zn130  1  0.18801493  0.68919323  0.18633887  1
  Zn  Zn131  1  0.18810555  0.68879301  0.68723390  1
  Zn  Zn132  1  0.68571976  0.18665363  0.18699405  1
  Zn  Zn133  1  0.68655139  0.18711493  0.68713205  1
  Zn  Zn134  1  0.68676661  0.68632989  0.18703524  1
  Zn  Zn135  1  0.68894722  0.68740329  0.68891943  1
  Zn  Zn136  1  0.31493576  0.30862069  0.31443679  1
  Zn  Zn137  1  0.31452310  0.31308265  0.81215433  1
  Zn  Zn138  1  0.31067367  0.81168629  0.31082993  1
  Zn  Zn139  1  0.31098039  0.81351477  0.81216534  1
  Zn  Zn140  1  0.81342908  0.31308184  0.31355290  1
  Zn  Zn141  1  0.81231158  0.31227534  0.81314222  1
  Zn  Zn142  1  0.81244143  0.81235256  0.31217073  1
  Zn  Zn143  1  0.81103164  0.81419577  0.81258599  1
  Zn  Zn144  1  0.18796517  0.43981598  0.43765194  1
  Zn  Zn145  1  0.18765478  0.43677378  0.93817793  1
  Zn  Zn146  1  0.18704270  0.94065816  0.43589231  1
  Zn  Zn147  1  0.18759941  0.93719670  0.93719880  1
  Zn  Zn148  1  0.68618676  0.43569906  0.43768210  1
  Zn  Zn149  1  0.68573172  0.43621456  0.93893649  1
  Zn  Zn150  1  0.68620891  0.93939205  0.43710589  1
  Zn  Zn151  1  0.68858495  0.93525674  0.93797640  1
  Zn  Zn152  1  0.31379779  0.06060409  0.06311564  1
  Zn  Zn153  1  0.31092111  0.06129868  0.56149836  1
  Zn  Zn154  1  0.31331444  0.56371783  0.06143316  1
  Zn  Zn155  1  0.31053973  0.56252237  0.56187868  1
  Zn  Zn156  1  0.81367233  0.06138257  0.06283360  1
  Zn  Zn157  1  0.81261613  0.06411555  0.56321556  1
  Zn  Zn158  1  0.81319399  0.56291154  0.06286920  1
  Zn  Zn159  1  0.81153180  0.56188058  0.56267025  1
  Zn  Zn160  1  0.43769722  0.43417734  0.18618818  1
  Zn  Zn161  1  0.43873198  0.43907449  0.68679122  1
  Zn  Zn162  1  0.43713329  0.93913683  0.18527075  1
  Zn  Zn163  1  0.43952857  0.93852121  0.68896788  1
  Zn  Zn164  1  0.93740727  0.43717092  0.18973308  1
  Zn  Zn165  1  0.93821169  0.43706253  0.68852076  1
  Zn  Zn166  1  0.93757482  0.93713252  0.18676594  1
  Zn  Zn167  1  0.93725897  0.93811051  0.68672392  1
  Zn  Zn168  1  0.06329490  0.06265559  0.31523670  1
  Zn  Zn169  1  0.06211301  0.06190676  0.81391421  1
  Zn  Zn170  1  0.06311250  0.56059241  0.31249202  1
  Zn  Zn171  1  0.06210577  0.56276077  0.81331662  1
  Zn  Zn172  1  0.56275929  0.06220917  0.31249272  1
  Zn  Zn173  1  0.56194558  0.06273924  0.81075082  1
  Zn  Zn174  1  0.56285729  0.56188342  0.31309993  1
  Zn  Zn175  1  0.56070050  0.56654180  0.81226507  1
  Zn  Zn176  1  0.43710547  0.18814431  0.43631613  1
  Zn  Zn177  1  0.43682260  0.18617029  0.93618968  1
  Zn  Zn178  1  0.43741861  0.68886880  0.43835569  1
  Zn  Zn179  1  0.43864754  0.68618368  0.93695680  1
  Zn  Zn180  1  0.93759996  0.18948804  0.43907754  1
  Zn  Zn181  1  0.93756796  0.18578526  0.93771366  1
  Zn  Zn182  1  0.93836488  0.68722859  0.43856198  1
  Zn  Zn183  1  0.93861366  0.68658256  0.93825853  1
  Zn  Zn184  1  0.06499684  0.31120342  0.06366299  1
  Zn  Zn185  1  0.06290624  0.31120335  0.56434838  1
  Zn  Zn186  1  0.06222933  0.81307157  0.06219941  1
  Zn  Zn187  1  0.06019660  0.81018499  0.56271545  1
  Zn  Zn188  1  0.56361899  0.31318534  0.06412721  1
  Zn  Zn189  1  0.56216126  0.31266175  0.56309138  1
  Zn  Zn190  1  0.56344161  0.81339920  0.05973855  1
  Zn  Zn191  1  0.56076459  0.81449276  0.56165092  1
  O  O192  1  0.11523013  0.12255544  0.12296666  1
  O  O193  1  0.12489317  0.12237982  0.61462749  1
  O  O194  1  0.11865666  0.61803823  0.12551284  1
  O  O195  1  0.12558536  0.62094036  0.61599731  1
  O  O196  1  0.61957631  0.12278051  0.11612135  1
  O  O197  1  0.61974788  0.12002262  0.61930363  1
  O  O198  1  0.61800589  0.61813976  0.12343636  1
  O  O199  1  0.62582737  0.61980820  0.61861716  1
  O  O200  1  0.37577134  0.38236139  0.38473521  1
  O  O201  1  0.37781666  0.38443500  0.87746226  1
  O  O202  1  0.37896107  0.87137745  0.38379614  1
  O  O203  1  0.37491378  0.88177934  0.88010142  1
  O  O204  1  0.88511532  0.38109274  0.37528618  1
  O  O205  1  0.88014972  0.37990354  0.88175280  1
  O  O206  1  0.87968196  0.87990537  0.38015108  1
  O  O207  1  0.87678015  0.88365159  0.87661094  1
  O  O208  1  0.25125100  0.01071713  0.37159374  1
  O  O209  1  0.25588317  0.01081689  0.87480527  1
  O  O210  1  0.25623656  0.50587847  0.36745941  1
  O  O211  1  0.25506083  0.50543971  0.87048199  1
  O  O212  1  0.75601259  0.00584075  0.36922095  1
  O  O213  1  0.75463520  0.00586072  0.86974616  1
  O  O214  1  0.75489637  0.50607389  0.37016792  1
  O  O215  1  0.75550419  0.50361463  0.87152621  1
  O  O216  1  0.24656466  0.49449742  0.12989782  1
  O  O217  1  0.24410320  0.49573045  0.63216371  1
  O  O218  1  0.24470349  0.99644615  0.12643353  1
  O  O219  1  0.24669895  0.98622296  0.62683482  1
  O  O220  1  0.74617317  0.49548829  0.13014433  1
  O  O221  1  0.74446118  0.49493069  0.63215289  1
  O  O222  1  0.75032001  0.99305155  0.13201065  1
  O  O223  1  0.74517562  0.99561117  0.62939141  1
  O  O224  1  0.00524852  0.37076889  0.25812418  1
  O  O225  1  0.00506095  0.37005401  0.75742063  1
  O  O226  1  0.00582522  0.86901106  0.25594377  1
  O  O227  1  0.00902139  0.86861617  0.74970799  1
  O  O228  1  0.50115789  0.36300036  0.24996072  1
  O  O229  1  0.50679353  0.36925587  0.75052301  1
  O  O230  1  0.50576963  0.86835608  0.25381279  1
  O  O231  1  0.50413755  0.87029808  0.75360010  1
  O  O232  1  0.50099582  0.13355565  0.24266686  1
  O  O233  1  0.49447728  0.13062891  0.74347025  1
  O  O234  1  0.49455110  0.63067221  0.24528143  1
  O  O235  1  0.49005017  0.62980830  0.74621820  1
  O  O236  1  0.99398860  0.13007422  0.24687058  1
  O  O237  1  0.99388320  0.13150509  0.75034890  1
  O  O238  1  0.99501257  0.62965089  0.24598032  1
  O  O239  1  0.99256983  0.63066107  0.74917317  1
  O  O240  1  0.36512241  0.25045437  0.00481288  1
  O  O241  1  0.37510673  0.26481842  0.50141129  1
  O  O242  1  0.37065110  0.75432572  0.00346737  1
  O  O243  1  0.37181616  0.75925224  0.50779439  1
  O  O244  1  0.86952835  0.25467198  0.00584733  1
  O  O245  1  0.86851285  0.25193751  0.50856723  1
  O  O246  1  0.86950629  0.74985269  0.00735093  1
  O  O247  1  0.86920971  0.75521687  0.50455273  1
  O  O248  1  0.12575620  0.23858159  0.49837508  1
  O  O249  1  0.13825943  0.24740689  0.99855831  1
  O  O250  1  0.12498933  0.74070914  0.49347456  1
  O  O251  1  0.13104488  0.74919747  0.99330649  1
  O  O252  1  0.63262882  0.24351408  0.50056915  1
  O  O253  1  0.63090404  0.24466732  0.99485410  1
  O  O254  1  0.63011867  0.74586794  0.49448845  1
  O  O255  1  0.63235205  0.74721182  0.99128649  1
  O  O256  1  0.49582148  0.24463196  0.13036907  1
  O  O257  1  0.49847398  0.24296773  0.63207084  1
  O  O258  1  0.49547002  0.74400278  0.12913518  1
  O  O259  1  0.48615172  0.74988431  0.62493321  1
  O  O260  1  0.99399596  0.24535254  0.13047430  1
  O  O261  1  0.99283256  0.24943247  0.63369060  1
  O  O262  1  0.99469515  0.74330338  0.13059484  1
  O  O263  1  0.99140629  0.74741220  0.63187280  1
  O  O264  1  -0.00021082  0.26105950  0.36911881  1
  O  O265  1  0.00099633  0.25636420  0.87033878  1
  O  O266  1  0.00417944  0.75517519  0.36908644  1
  O  O267  1  0.00602446  0.75117149  0.86867456  1
  O  O268  1  0.50108641  0.25041040  0.36280021  1
  O  O269  1  0.50650797  0.25041813  0.86836998  1
  O  O270  1  0.50548943  0.75479138  0.36837262  1
  O  O271  1  0.51275445  0.74942863  0.87556224  1
  O  O272  1  0.24082617  0.12412658  0.49301365  1
  O  O273  1  0.25103924  0.13312710  0.99074890  1
  O  O274  1  0.23952218  0.62616851  0.49268621  1
  O  O275  1  0.24885176  0.63199226  0.99339130  1
  O  O276  1  0.74536885  0.13090743  0.49507036  1
  O  O277  1  0.74581791  0.13020451  0.99475174  1
  O  O278  1  0.74433583  0.63137341  0.49424369  1
  O  O279  1  0.74982275  0.63064896  0.99395012  1
  O  O280  1  0.25090502  0.36491503  0.00586000  1
  O  O281  1  0.25960840  0.37826394  0.50527822  1
  O  O282  1  0.25729232  0.86770542  -0.00044471  1
  O  O283  1  0.25556354  0.87308731  0.50674867  1
  O  O284  1  0.75635062  0.36908525  0.00588887  1
  O  O285  1  0.75134712  0.36888040  0.50835116  1
  O  O286  1  0.75309954  0.86772599  0.00793250  1
  O  O287  1  0.75544667  0.86981554  0.50361600  1
  O  O288  1  0.13247178  0.49438672  0.24462504  1
  O  O289  1  0.13076502  0.49495820  0.74604125  1
  O  O290  1  0.12221476  0.98719866  0.25019299  1
  O  O291  1  0.12560864  0.98779330  0.74834996  1
  O  O292  1  0.63205622  0.49990351  0.24340208  1
  O  O293  1  0.63025138  0.49620763  0.74625240  1
  O  O294  1  0.63264410  0.99268217  0.24817941  1
  O  O295  1  0.63262949  1.00083339  0.74225269  1
  O  O296  1  0.37226613  0.00294564  0.25262232  1
  O  O297  1  0.37169519  0.00736456  0.75564678  1
  O  O298  1  0.37113996  0.50560091  0.25402457  1
  O  O299  1  0.36907174  0.50622124  0.75445448  1
  O  O300  1  0.87035593  0.00543844  0.25629534  1
  O  O301  1  0.86940421  0.00585912  0.75472716  1
  O  O302  1  0.86923323  0.50631294  0.25578306  1
  O  O303  1  0.86902439  0.50389668  0.75711600  1
  O  O304  1  0.11654287  0.37627916  0.36970428  1
  O  O305  1  0.11889383  0.37398030  0.86870137  1
  O  O306  1  0.11861338  0.86951220  0.36849066  1
  O  O307  1  0.12483820  0.86858942  0.86370346  1
  O  O308  1  0.62089132  0.37111294  0.37146059  1
  O  O309  1  0.62356165  0.36801087  0.86872941  1
  O  O310  1  0.62014320  0.86878072  0.36981380  1
  O  O311  1  0.62654425  0.86271378  0.87279230  1
  O  O312  1  0.38332115  0.13193473  0.12459742  1
  O  O313  1  0.38001035  0.12524749  0.62949331  1
  O  O314  1  0.38094920  0.63044003  0.13102182  1
  O  O315  1  0.37127422  0.63602499  0.62888799  1
  O  O316  1  0.87988747  0.13108048  0.13160568  1
  O  O317  1  0.87582658  0.13235030  0.63291322  1
  O  O318  1  0.88103538  0.62916402  0.13228964  1
  O  O319  1  0.87383894  0.63130523  0.63207291  1
  O  O320  1  0.25494773  0.25273594  0.11779744  1
  O  O321  1  0.25384613  0.26056516  0.62100383  1
  O  O322  1  0.25765412  0.75114837  0.11786668  1
  O  O323  1  0.25822663  0.76039035  0.62300030  1
  O  O324  1  0.75591031  0.25459343  0.11987738  1
  O  O325  1  0.75498807  0.25550048  0.62159972  1
  O  O326  1  0.75559518  0.75316567  0.12115952  1
  O  O327  1  0.75493184  0.75568220  0.61888515  1
  O  O328  1  0.24769708  0.23957345  0.37923163  1
  O  O329  1  0.25153858  0.24184106  0.88289562  1
  O  O330  1  0.24227872  0.74216824  0.37462972  1
  O  O331  1  0.24467722  0.74437594  0.87967553  1
  O  O332  1  0.75129134  0.24340987  0.38185546  1
  O  O333  1  0.74488516  0.24441207  0.88104856  1
  O  O334  1  0.74478341  0.74484129  0.38022635  1
  O  O335  1  0.74455852  0.74429815  0.88019338  1
  O  O336  1  0.00012749  0.11646996  0.00588449  1
  O  O337  1  0.00868604  0.11991842  0.49954067  1
  O  O338  1  0.00155111  0.61676633  0.00779207  1
  O  O339  1  0.01181902  0.62253705  0.50095022  1
  O  O340  1  0.50582505  0.12022868  0.00375033  1
  O  O341  1  0.50605133  0.12503970  0.50565103  1
  O  O342  1  0.50049217  0.61341872  0.00651251  1
  O  O343  1  0.50657921  0.62032858  0.50202367  1
  O  O344  1  0.49052584  0.38283048  0.50084042  1
  O  O345  1  0.49877440  0.38739332  0.99929290  1
  O  O346  1  0.48959589  0.87499560  0.49299655  1
  O  O347  1  0.49401879  0.88157852  0.99588632  1
  O  O348  1  0.99993050  0.37613406  0.48861269  1
  O  O349  1  0.99502189  0.37908748  0.99673010  1
  O  O350  1  0.99386257  0.87915743  0.49432254  1
  O  O351  1  0.99660986  0.88552014  0.99877995  1
  O  O352  1  0.49309718  0.50011410  0.38170689  1
  O  O353  1  0.49511786  0.50119404  0.88430033  1
  O  O354  1  0.49781984  0.99099883  0.37738685  1
  O  O355  1  0.49319776  1.00113968  0.88076787  1
  O  O356  1  0.99449644  0.49010755  0.37387756  1
  O  O357  1  0.99433493  0.49390856  0.88142470  1
  O  O358  1  0.99276355  0.99409769  0.38092328  1
  O  O359  1  0.99342576  0.99975611  0.88420726  1
  O  O360  1  -0.00198702  0.00594198  0.11579633  1
  O  O361  1  0.00109531  0.00302080  0.61636190  1
  O  O362  1  0.00549144  0.50376650  0.12184650  1
  O  O363  1  0.00808265  0.50225677  0.62428088  1
  O  O364  1  0.50309598  0.00645278  0.11586615  1
  O  O365  1  0.50663923  0.00724509  0.62179655  1
  O  O366  1  0.50402344  0.50411782  0.11821203  1
  O  O367  1  0.50742856  0.50405886  0.61875763  1
  O  O368  1  0.24658873  0.37940190  0.24543554  1
  O  O369  1  0.24523606  0.38129572  0.74534707  1
  O  O370  1  0.23723535  0.87479778  0.24906645  1
  O  O371  1  0.23969579  0.87496039  0.74107372  1
  O  O372  1  0.75123344  0.38202049  0.24341711  1
  O  O373  1  0.74375883  0.38034367  0.74612055  1
  O  O374  1  0.74514997  0.87960554  0.24600412  1
  O  O375  1  0.74850995  0.88262176  0.74133418  1
  O  O376  1  0.24993555  0.12473784  0.26127464  1
  O  O377  1  0.25453193  0.12585570  0.75828340  1
  O  O378  1  0.25589522  0.61926942  0.25365953  1
  O  O379  1  0.25438680  0.61954761  0.75565937  1
  O  O380  1  0.75604595  0.12032309  0.25466357  1
  O  O381  1  0.75548233  0.12007382  0.75584184  1
  O  O382  1  0.75574027  0.62014853  0.25607045  1
  O  O383  1  0.75634171  0.61820822  0.75673116  1
  O  O384  1  0.36346329  0.12246468  0.37686339  1
  O  O385  1  0.36636749  0.12019164  0.86878969  1
  O  O386  1  0.36968844  0.62115222  0.36912144  1
  O  O387  1  0.36854385  0.62042591  0.86863434  1
  O  O388  1  0.87004240  0.11983994  0.37024385  1
  O  O389  1  0.86824356  0.11972686  0.86951195  1
  O  O390  1  0.86962632  0.62087542  0.37025785  1
  O  O391  1  0.87022266  0.61809192  0.87015296  1
  O  O392  1  0.13142155  0.38039147  0.13175096  1
  O  O393  1  0.13051864  0.38154137  0.63077918  1
  O  O394  1  0.12437029  0.87496261  0.13725552  1
  O  O395  1  0.13224881  0.87187043  0.63225745  1
  O  O396  1  0.63357666  0.38196278  0.12683388  1
  O  O397  1  0.63078380  0.38180435  0.63154548  1
  O  O398  1  0.63263836  0.87468904  0.13192390  1
  O  O399  1  0.63183182  0.88173702  0.62322710  1
  O  O400  1  0.11778885  0.25773053  0.25184669  1
  O  O401  1  0.11843954  0.25782539  0.75185206  1
  O  O402  1  0.11857483  0.75682605  0.25489044  1
  O  O403  1  0.11983976  0.75711769  0.75441253  1
  O  O404  1  0.61467965  0.25162371  0.24967072  1
  O  O405  1  0.62000608  0.25508480  0.75533834  1
  O  O406  1  0.61996089  0.75449509  0.25581390  1
  O  O407  1  0.62606983  0.75076418  0.76083971  1
  O  O408  1  0.38505725  0.24640124  0.24340471  1
  O  O409  1  0.38185554  0.24340441  0.74813501  1
  O  O410  1  0.38097575  0.74483471  0.24388609  1
  O  O411  1  0.37264435  0.74560316  0.74004443  1
  O  O412  1  0.88060132  0.24454755  0.24449021  1
  O  O413  1  0.87976164  0.24487417  0.74671865  1
  O  O414  1  0.88037094  0.74364252  0.24587953  1
  O  O415  1  0.87834946  0.74442321  0.74546707  1
  O  O416  1  0.37955904  0.49470290  0.49500807  1
  O  O417  1  0.38410191  0.49959794  0.99467377  1
  O  O418  1  0.37544248  0.98511221  0.49875478  1
  O  O419  1  0.38144432  0.99462361  0.99311546  1
  O  O420  1  0.87691412  0.49778530  0.49255413  1
  O  O421  1  0.88102469  0.49339066  0.99605079  1
  O  O422  1  0.87871809  0.99456359  0.49434386  1
  O  O423  1  0.88386359  0.99981771  0.99390567  1
  O  O424  1  0.11200558  0.00089924  -0.00025988  1
  O  O425  1  0.11763163  0.00876161  0.50056560  1
  O  O426  1  0.11902580  0.50049950  0.00781628  1
  O  O427  1  0.12416257  0.50993164  0.50588163  1
  O  O428  1  0.61972411  0.00658471  -0.00085668  1
  O  O429  1  0.62478772  0.00826697  0.50639758  1
  O  O430  1  0.61617636  0.50165940  0.00586475  1
  O  O431  1  0.62087337  0.50650765  0.50595609  1
  O  O432  1  0.36758859  0.36684557  0.12201803  1
  O  O433  1  0.36902736  0.37857183  0.61529066  1
  O  O434  1  0.37527003  0.86706164  0.11628704  1
  O  O435  1  0.36709809  0.86887666  0.61827805  1
  O  O436  1  0.87042634  0.36952796  0.12039653  1
  O  O437  1  0.86765710  0.36887602  0.62644667  1
  O  O438  1  0.86867887  0.86597629  0.12606282  1
  O  O439  1  0.86842500  0.86944360  0.61866403  1
  O  O440  1  0.13205753  0.12630590  0.38432787  1
  O  O441  1  0.13766308  0.12681829  0.87642729  1
  O  O442  1  0.12928555  0.62851480  0.38107254  1
  O  O443  1  0.13196804  0.63108687  0.87616595  1
  O  O444  1  0.63280339  0.12693192  0.38155283  1
  O  O445  1  0.63116478  0.13103057  0.87954055  1
  O  O446  1  0.63080219  0.63106834  0.38047579  1
  O  O447  1  0.63275916  0.63343925  0.87630395  1
