# generated using pymatgen
data_V3Zn3O8
_symmetry_space_group_name_H-M   'P 1'
_cell_length_a   17.08800301
_cell_length_b   17.08789150
_cell_length_c   17.08888708
_cell_angle_alpha   90.00174656
_cell_angle_beta   89.99547263
_cell_angle_gamma   89.98971552
_symmetry_Int_Tables_number   1
_chemical_formula_structural   V3Zn3O8
_chemical_formula_sum   'V96 Zn96 O256'
_cell_volume   4989.91974966
_cell_formula_units_Z   32
loop_
 _symmetry_equiv_pos_site_id
 _symmetry_equiv_pos_as_xyz
  1  'x, y, z'
loop_
 _atom_site_type_symbol
 _atom_site_label
 _atom_site_symmetry_multiplicity
 _atom_site_fract_x
 _atom_site_fract_y
 _atom_site_fract_z
 _atom_site_occupancy
  V  V0  1  0.87581738  0.87511236  -0.00077555  1
  V  V1  1  0.00178183  0.00096530  0.00003323  1
  V  V2  1  0.87580469  0.87511768  0.49930130  1
  V  V3  1  0.50017649  0.87485470  0.37664961  1
  V  V4  1  0.12466421  0.87450026  0.25039106  1
  V  V5  1  0.25069937  -0.00055029  0.24988415  1
  V  V6  1  0.62504722  0.37566961  0.24972390  1
  V  V7  1  0.62525414  0.25023710  0.37587865  1
  V  V8  1  0.87546490  -0.00030919  0.87441348  1
  V  V9  1  0.00169302  0.75130263  0.24954240  1
  V  V10  1  0.75002515  0.12487375  0.37494245  1
  V  V11  1  0.62425754  0.49985901  0.12509141  1
  V  V12  1  0.12526579  0.00152551  0.12376804  1
  V  V13  1  0.62452901  0.74982161  0.37531351  1
  V  V14  1  -0.00007037  0.62462304  0.12400198  1
  V  V15  1  0.50077088  0.12397970  0.12632157  1
  V  V16  1  0.49926477  0.49961624  0.00022303  1
  V  V17  1  0.24992671  0.37497780  0.12485289  1
  V  V18  1  0.74953843  0.50064832  0.75000145  1
  V  V19  1  0.62456475  0.62404774  0.50047702  1
  V  V20  1  0.62378251  0.50079165  0.62362107  1
  V  V21  1  0.49931494  0.37497179  0.37496786  1
  V  V22  1  0.00061993  0.74990509  0.74981522  1
  V  V23  1  0.62520992  0.87503511  0.75078481  1
  V  V24  1  0.37350446  0.25032679  0.62580061  1
  V  V25  1  -0.00161230  0.62574705  0.62446711  1
  V  V26  1  0.37390092  0.49895807  0.37480863  1
  V  V27  1  0.12427784  0.50040282  0.12437120  1
  V  V28  1  0.25085143  0.87505735  0.12545923  1
  V  V29  1  0.87579700  0.12539138  0.74897023  1
  V  V30  1  0.74954135  0.24952646  0.49957532  1
  V  V31  1  0.74989273  0.75009049  -0.00015735  1
  V  V32  1  0.37286125  0.37453914  0.50037399  1
  V  V33  1  0.12507276  0.87466155  0.75135102  1
  V  V34  1  -0.00070297  0.25101428  0.74979978  1
  V  V35  1  0.75087121  0.87562989  0.12582603  1
  V  V36  1  0.12513546  0.00059638  0.62508199  1
  V  V37  1  -0.00107082  0.37562607  0.37507777  1
  V  V38  1  0.74962870  0.87503469  0.62464043  1
  V  V39  1  0.75042530  -0.00038222  0.75020917  1
  V  V40  1  0.37603016  -0.00101886  0.37594203  1
  V  V41  1  0.49915966  0.74893444  0.74999920  1
  V  V42  1  0.37631025  0.12449032  0.25065691  1
  V  V43  1  0.24913985  0.25015059  0.00000867  1
  V  V44  1  0.87559487  0.37549326  0.49784535  1
  V  V45  1  0.49967049  0.12573792  0.62619691  1
  V  V46  1  0.24918584  0.12543090  0.87569384  1
  V  V47  1  0.62375460  0.62453946  0.00084065  1
  V  V48  1  0.62409575  0.37463760  0.74940691  1
  V  V49  1  0.74946114  0.62457771  0.87418776  1
  V  V50  1  0.50062756  0.00041210  0.00105720  1
  V  V51  1  0.62408136  0.00068194  0.62533607  1
  V  V52  1  0.87462670  0.24988664  0.62533675  1
  V  V53  1  0.49997173  -0.00105681  0.50046809  1
  V  V54  1  0.25042731  0.00006714  0.75109723  1
  V  V55  1  0.74963390  0.37510666  0.62397127  1
  V  V56  1  0.12588673  0.24848791  0.37545064  1
  V  V57  1  0.74919930  0.37472122  0.12487488  1
  V  V58  1  0.50032837  0.87662630  0.87594871  1
  V  V59  1  0.62480291  0.75025409  0.87561510  1
  V  V60  1  0.74999328  0.12487847  0.87551382  1
  V  V61  1  -0.00069470  0.37580528  0.87382014  1
  V  V62  1  0.75045241  0.25033919  0.00012193  1
  V  V63  1  0.12498121  0.62451203  0.49961651  1
  V  V64  1  0.00114685  0.00099653  0.50009095  1
  V  V65  1  0.37567037  0.00040958  0.87599386  1
  V  V66  1  0.37572779  0.62531333  0.74891114  1
  V  V67  1  0.62364494  0.25045016  0.87432357  1
  V  V68  1  0.37528890  0.49923669  0.87521834  1
  V  V69  1  0.49977845  0.24873729  0.25020220  1
  V  V70  1  0.87365057  0.50089969  0.87391491  1
  V  V71  1  0.12385927  0.37567546  0.74927105  1
  V  V72  1  0.75125598  -0.00025098  0.25037523  1
  V  V73  1  0.24904505  0.62439481  0.37501426  1
  V  V74  1  0.12433688  0.37453477  0.25029202  1
  V  V75  1  0.75103499  0.62476876  0.37371936  1
  V  V76  1  0.25096230  0.75094429  0.50058267  1
  V  V77  1  0.37454845  0.37622406  0.00004911  1
  V  V78  1  0.62601599  0.00001080  0.12561441  1
  V  V79  1  0.24974940  0.62535567  0.87527261  1
  V  V80  1  0.50042993  0.74930865  0.25041801  1
  V  V81  1  0.12483319  0.49976396  0.62486228  1
  V  V82  1  -0.00003486  0.24944742  0.24859681  1
  V  V83  1  0.87557325  0.74998694  0.12430363  1
  V  V84  1  0.24980649  0.50003734  0.25029552  1
  V  V85  1  0.24962773  0.74939756  -0.00053340  1
  V  V86  1  -0.00024597  0.50040261  -0.00034956  1
  V  V87  1  0.24904905  0.12486886  0.37577555  1
  V  V88  1  0.87694405  0.12533189  0.24811732  1
  V  V89  1  0.87391374  0.37516256  0.00021686  1
  V  V90  1  0.87425831  0.62500671  0.25035931  1
  V  V91  1  0.25098978  0.87433461  0.62573288  1
  V  V92  1  0.75001078  0.75069990  0.50013209  1
  V  V93  1  0.00089006  0.87413218  0.87389953  1
  V  V94  1  0.37595319  0.74905585  0.12638671  1
  V  V95  1  0.24954658  0.49980158  0.74954420  1
  Zn  Zn96  1  0.12439904  0.75078683  0.37433018  1
  Zn  Zn97  1  0.24802050  0.37357366  0.62489843  1
  Zn  Zn98  1  0.87485446  0.49994738  0.37369411  1
  Zn  Zn99  1  0.87393753  0.62640275  0.74860470  1
  Zn  Zn100  1  0.37586573  0.24973828  0.12576976  1
  Zn  Zn101  1  0.12416627  0.62437425  -0.00158793  1
  Zn  Zn102  1  0.37441488  0.12684160  0.75044812  1
  Zn  Zn103  1  0.12384061  0.25047539  0.87413683  1
  Zn  Zn104  1  0.37689061  0.74976980  0.62577865  1
  Zn  Zn105  1  0.49845382  0.37354435  0.87390357  1
  Zn  Zn106  1  -0.00140726  0.50117217  0.49740464  1
  Zn  Zn107  1  0.87370550  0.74887885  0.62594211  1
  Zn  Zn108  1  0.49902145  0.50209162  0.50070290  1
  Zn  Zn109  1  0.62553072  0.12572229  0.00094251  1
  Zn  Zn110  1  0.49838221  0.62522037  0.62317784  1
  Zn  Zn111  1  0.37456301  0.62344204  0.25134527  1
  Zn  Zn112  1  0.12511564  0.74849756  0.87546309  1
  Zn  Zn113  1  0.00176657  0.12746658  0.12211270  1
  Zn  Zn114  1  0.87670788  -0.00014342  0.37429241  1
  Zn  Zn115  1  0.12293726  0.12668878  0.00108047  1
  Zn  Zn116  1  0.87634692  0.25106395  0.12374909  1
  Zn  Zn117  1  0.50005357  0.62423846  0.12621193  1
  Zn  Zn118  1  0.00197907  0.87453131  0.37440119  1
  Zn  Zn119  1  0.75074388  0.49972258  0.25034840  1
  Zn  Zn120  1  0.37529764  0.87425351  0.50243971  1
  Zn  Zn121  1  0.37627542  0.87553885  0.00051765  1
  Zn  Zn122  1  0.62796261  0.87502695  0.25158387  1
  Zn  Zn123  1  0.00163246  0.12615806  0.62515627  1
  Zn  Zn124  1  0.62618592  0.12502097  0.49994623  1
  Zn  Zn125  1  0.12524513  0.12618474  0.50163605  1
  Zn  Zn126  1  0.24666236  0.24744083  0.50114247  1
  Zn  Zn127  1  0.49817345  0.25133563  0.75153916  1
  Zn  Zn128  1  0.18759010  0.18633225  0.18757000  1
  Zn  Zn129  1  0.18604871  0.18709388  0.68777500  1
  Zn  Zn130  1  0.18654295  0.68600245  0.18726716  1
  Zn  Zn131  1  0.18660638  0.68748396  0.68709480  1
  Zn  Zn132  1  0.68774205  0.18787218  0.18761640  1
  Zn  Zn133  1  0.68753398  0.18739454  0.68814014  1
  Zn  Zn134  1  0.68716443  0.68699004  0.18745718  1
  Zn  Zn135  1  0.68601696  0.68717024  0.68644509  1
  Zn  Zn136  1  0.31179853  0.31098840  0.31256712  1
  Zn  Zn137  1  0.31150113  0.31398634  0.81183289  1
  Zn  Zn138  1  0.31294937  0.81276039  0.31444887  1
  Zn  Zn139  1  0.31447848  0.81336885  0.81323102  1
  Zn  Zn140  1  0.81227685  0.31135592  0.31169134  1
  Zn  Zn141  1  0.81145310  0.31332049  0.81223795  1
  Zn  Zn142  1  0.81420751  0.81154190  0.31330183  1
  Zn  Zn143  1  0.81430892  0.81101414  0.81129914  1
  Zn  Zn144  1  0.18633098  0.43714241  0.43802710  1
  Zn  Zn145  1  0.18629512  0.43772169  0.93626599  1
  Zn  Zn146  1  0.18674113  0.93670830  0.43646418  1
  Zn  Zn147  1  0.18742333  0.93618739  0.93853837  1
  Zn  Zn148  1  0.68867284  0.43930926  0.43657804  1
  Zn  Zn149  1  0.68619193  0.43682927  0.93780546  1
  Zn  Zn150  1  0.68668512  0.93865061  0.43705728  1
  Zn  Zn151  1  0.68693079  0.93822120  0.93920113  1
  Zn  Zn152  1  0.31454333  0.06343377  0.06267001  1
  Zn  Zn153  1  0.31238944  0.06220717  0.56117360  1
  Zn  Zn154  1  0.31265004  0.56391045  0.06322986  1
  Zn  Zn155  1  0.31216149  0.56278394  0.56380381  1
  Zn  Zn156  1  0.81308325  0.06305866  0.06262487  1
  Zn  Zn157  1  0.81344440  0.06274078  0.56247502  1
  Zn  Zn158  1  0.81134950  0.56159385  0.06297198  1
  Zn  Zn159  1  0.81253051  0.56101131  0.55992645  1
  Zn  Zn160  1  0.43721420  0.43654510  0.18676838  1
  Zn  Zn161  1  0.43952801  0.43816252  0.68771151  1
  Zn  Zn162  1  0.43881829  0.93584891  0.18887661  1
  Zn  Zn163  1  0.43520821  0.93688240  0.68875471  1
  Zn  Zn164  1  0.93605293  0.43829782  0.18779816  1
  Zn  Zn165  1  0.93649298  0.43889022  0.68620982  1
  Zn  Zn166  1  0.93922654  0.93870293  0.18590211  1
  Zn  Zn167  1  0.93811949  0.93697543  0.68559705  1
  Zn  Zn168  1  0.06280228  0.06121387  0.31362604  1
  Zn  Zn169  1  0.06313293  0.06342319  0.81254361  1
  Zn  Zn170  1  0.06167203  0.56274829  0.31286060  1
  Zn  Zn171  1  0.06335597  0.56377207  0.81234957  1
  Zn  Zn172  1  0.56485148  0.06212464  0.31265717  1
  Zn  Zn173  1  0.56224217  0.06378716  0.81229822  1
  Zn  Zn174  1  0.56214553  0.56186264  0.31378535  1
  Zn  Zn175  1  0.56135065  0.56163507  0.81253526  1
  Zn  Zn176  1  0.43718979  0.18673385  0.43904004  1
  Zn  Zn177  1  0.43698968  0.18672916  0.94008351  1
  Zn  Zn178  1  0.43636048  0.68551924  0.43746245  1
  Zn  Zn179  1  0.43728629  0.68617296  0.93693500  1
  Zn  Zn180  1  0.93778320  0.18783014  0.43608013  1
  Zn  Zn181  1  0.93700598  0.18790005  0.93645249  1
  Zn  Zn182  1  0.93776415  0.68962937  0.43555719  1
  Zn  Zn183  1  0.93703363  0.68679534  0.93610081  1
  Zn  Zn184  1  0.06193098  0.31317895  0.06250878  1
  Zn  Zn185  1  0.06105794  0.31246399  0.56168525  1
  Zn  Zn186  1  0.06392223  0.81389880  0.06327894  1
  Zn  Zn187  1  0.06437225  0.81245344  0.56353737  1
  Zn  Zn188  1  0.56176478  0.31227271  0.06218639  1
  Zn  Zn189  1  0.56133169  0.31291573  0.56156882  1
  Zn  Zn190  1  0.56372745  0.81488360  0.06332280  1
  Zn  Zn191  1  0.56217369  0.81143858  0.56344593  1
  O  O192  1  0.12393928  0.11632409  0.12245956  1
  O  O193  1  0.12237964  0.11619292  0.62296886  1
  O  O194  1  0.11794090  0.61758535  0.12270180  1
  O  O195  1  0.11670846  0.61980666  0.62007528  1
  O  O196  1  0.61897877  0.11801602  0.12454263  1
  O  O197  1  0.61610670  0.11989900  0.62459015  1
  O  O198  1  0.62367716  0.61911116  0.11785013  1
  O  O199  1  0.62511306  0.61801485  0.61773997  1
  O  O200  1  0.37880064  0.37830981  0.38237334  1
  O  O201  1  0.37517878  0.38180014  0.88181455  1
  O  O202  1  0.38198515  0.88194576  0.37727564  1
  O  O203  1  0.38295921  0.88271830  0.87685771  1
  O  O204  1  0.88103682  0.37372532  0.38023319  1
  O  O205  1  0.87909110  0.38163695  0.88001185  1
  O  O206  1  0.87602486  0.87693119  0.38862955  1
  O  O207  1  0.88024936  0.88059050  0.87991493  1
  O  O208  1  0.25578370  0.00431565  0.36867610  1
  O  O209  1  0.25491911  0.00725260  0.87226261  1
  O  O210  1  0.25415462  0.50400152  0.36930262  1
  O  O211  1  0.25568901  0.50549408  0.86999923  1
  O  O212  1  0.75201174  0.00667253  0.36883044  1
  O  O213  1  0.75554360  0.00403088  0.86978489  1
  O  O214  1  0.75208319  0.50956352  0.37124059  1
  O  O215  1  0.75359270  0.50508470  0.87023601  1
  O  O216  1  0.24470577  0.49485156  0.12986294  1
  O  O217  1  0.24249515  0.49878760  0.63230368  1
  O  O218  1  0.24707245  0.99452043  0.13037040  1
  O  O219  1  0.24557082  0.99472234  0.63106476  1
  O  O220  1  0.74164579  0.49279048  0.12548171  1
  O  O221  1  0.74438473  0.49408717  0.63001774  1
  O  O222  1  0.74614467  0.99478409  0.12989904  1
  O  O223  1  0.74423149  0.99530536  0.63086627  1
  O  O224  1  0.00524150  0.36944797  0.25433843  1
  O  O225  1  0.00337193  0.37088587  0.75476524  1
  O  O226  1  0.00635561  0.86917263  0.24891008  1
  O  O227  1  0.00510157  0.87031421  0.75449222  1
  O  O228  1  0.50481370  0.36839265  0.25545320  1
  O  O229  1  0.50886223  0.37199732  0.75301511  1
  O  O230  1  0.50184410  0.86366856  0.25674092  1
  O  O231  1  0.50662678  0.87072814  0.75648399  1
  O  O232  1  0.49543355  0.12923228  0.24611510  1
  O  O233  1  0.49732011  0.12642662  0.73740577  1
  O  O234  1  0.49770628  0.63819161  0.24976329  1
  O  O235  1  0.49363840  0.63175184  0.75099349  1
  O  O236  1  0.99103971  0.12972075  0.25040807  1
  O  O237  1  0.99278279  0.13185018  0.75022154  1
  O  O238  1  0.99503506  0.63110718  0.24293865  1
  O  O239  1  0.99978725  0.63069290  0.74014439  1
  O  O240  1  0.36400954  0.25607217  0.00135746  1
  O  O241  1  0.37420741  0.25807460  0.50839028  1
  O  O242  1  0.36720986  0.75074562  0.00905697  1
  O  O243  1  0.36186011  0.75023719  0.50166860  1
  O  O244  1  0.86819980  0.25764419  -0.00023980  1
  O  O245  1  0.86933453  0.25517083  0.50544920  1
  O  O246  1  0.86947018  0.75559889  0.00445414  1
  O  O247  1  0.86918254  0.75995406  0.50209144  1
  O  O248  1  0.12599479  0.24752818  0.49178002  1
  O  O249  1  0.13770089  0.25071929  0.99698353  1
  O  O250  1  0.13595428  0.74437907  0.49937915  1
  O  O251  1  0.13899806  0.74885541  1.00102924  1
  O  O252  1  0.63177025  0.24923926  0.49379170  1
  O  O253  1  0.63107387  0.24936920  0.98971232  1
  O  O254  1  0.63091407  0.74510025  0.49449454  1
  O  O255  1  0.63051100  0.74560284  0.99497567  1
  O  O256  1  0.49939948  0.24279643  0.13199764  1
  O  O257  1  0.49196210  0.24150963  0.62476692  1
  O  O258  1  0.49267466  0.75135968  0.13284307  1
  O  O259  1  0.49881086  0.74779505  0.63475552  1
  O  O260  1  0.99776553  0.24813999  0.13244791  1
  O  O261  1  0.99185498  0.24916731  0.63205908  1
  O  O262  1  0.99432959  0.74488288  0.12818013  1
  O  O263  1  1.00070350  0.74041086  0.63060974  1
  O  O264  1  0.00619987  0.25542007  0.36814801  1
  O  O265  1  0.00048976  0.25801767  0.86815590  1
  O  O266  1  0.00355722  0.75327875  0.36541223  1
  O  O267  1  0.00141484  0.75635644  0.86905706  1
  O  O268  1  0.50511965  0.25463794  0.37014823  1
  O  O269  1  0.51089243  0.24947587  0.87415333  1
  O  O270  1  0.50361129  0.75442932  0.36817747  1
  O  O271  1  0.50606918  0.75618480  0.87105880  1
  O  O272  1  0.24753089  0.12575548  0.49044826  1
  O  O273  1  0.25072467  0.13374818  0.99259072  1
  O  O274  1  0.24466137  0.63228702  0.49580328  1
  O  O275  1  0.25016174  0.63441297  0.99493252  1
  O  O276  1  0.75009461  0.13165270  0.49365959  1
  O  O277  1  0.74987263  0.13127548  0.99269579  1
  O  O278  1  0.74526751  0.63176083  0.49427242  1
  O  O279  1  0.74414650  0.63100307  0.99431431  1
  O  O280  1  0.25410356  0.36835150  0.00417844  1
  O  O281  1  0.26201254  0.37177641  0.50124885  1
  O  O282  1  0.25318519  0.86553349  0.00631669  1
  O  O283  1  0.24941944  0.86600612  0.50579137  1
  O  O284  1  0.75476135  0.37005959  0.00458283  1
  O  O285  1  0.75517291  0.36863708  0.50468413  1
  O  O286  1  0.75635274  0.86968690  0.00481120  1
  O  O287  1  0.75692408  0.87164166  0.50495027  1
  O  O288  1  0.13007984  0.49370991  0.24409155  1
  O  O289  1  0.12975637  0.49522288  0.74439826  1
  O  O290  1  0.13153064  0.99458102  0.24402163  1
  O  O291  1  0.13064098  0.99417810  0.74559030  1
  O  O292  1  0.62483034  0.49313033  0.24324086  1
  O  O293  1  0.63088604  0.49448857  0.74502266  1
  O  O294  1  0.63311325  0.99777714  0.24372419  1
  O  O295  1  0.63089475  0.99439145  0.74576417  1
  O  O296  1  0.37057248  0.00439149  0.25593471  1
  O  O297  1  0.36770110  0.00267398  0.75785486  1
  O  O298  1  0.36780478  0.49967560  0.25625484  1
  O  O299  1  0.36941532  0.50440592  0.75549358  1
  O  O300  1  0.87068486  0.00872718  0.25092305  1
  O  O301  1  0.86980856  0.00403733  0.75489245  1
  O  O302  1  0.87201234  0.50990522  0.25098441  1
  O  O303  1  0.86685428  0.50123433  0.75627623  1
  O  O304  1  0.11999349  0.36924195  0.36873213  1
  O  O305  1  0.11679664  0.37542420  0.86710621  1
  O  O306  1  0.12402944  0.87228635  0.36476848  1
  O  O307  1  0.11853632  0.87315402  0.86871490  1
  O  O308  1  0.61940047  0.36984917  0.37000189  1
  O  O309  1  0.62524252  0.36486363  0.86904703  1
  O  O310  1  0.61879506  0.86747659  0.37368894  1
  O  O311  1  0.62077075  0.87008471  0.86997295  1
  O  O312  1  0.38232445  0.12591844  0.13341475  1
  O  O313  1  0.38276681  0.13329464  0.62484323  1
  O  O314  1  0.37702892  0.63763764  0.12849605  1
  O  O315  1  0.37689909  0.62732841  0.63392533  1
  O  O316  1  0.87625968  0.12699308  0.13736059  1
  O  O317  1  0.87541338  0.13203899  0.63236454  1
  O  O318  1  0.87977736  0.63124542  0.12893855  1
  O  O319  1  0.88634665  0.62600912  0.62489090  1
  O  O320  1  0.25091219  0.25564379  0.11603894  1
  O  O321  1  0.26132895  0.25053706  0.62321827  1
  O  O322  1  0.25794375  0.75373829  0.11928618  1
  O  O323  1  0.24967379  0.75550689  0.61607418  1
  O  O324  1  0.75024469  0.25684475  0.11762460  1
  O  O325  1  0.75467652  0.25560007  0.62004334  1
  O  O326  1  0.75575346  0.75517859  0.11876332  1
  O  O327  1  0.74993833  0.75746764  0.61840067  1
  O  O328  1  0.24331814  0.24244167  0.37468334  1
  O  O329  1  0.25005017  0.24238583  0.88271070  1
  O  O330  1  0.24903386  0.74409322  0.38408006  1
  O  O331  1  0.25190242  0.74541810  0.88551431  1
  O  O332  1  0.74414368  0.24486300  0.38016424  1
  O  O333  1  0.74230290  0.24527554  0.87932422  1
  O  O334  1  0.74405797  0.74546635  0.38065936  1
  O  O335  1  0.74444898  0.74579775  0.88038342  1
  O  O336  1  0.00186223  0.11739144  0.00000743  1
  O  O337  1  -0.00076269  0.11254814  0.50183268  1
  O  O338  1  0.00011943  0.61845184  0.00613903  1
  O  O339  1  0.00581872  0.62680063  0.50898980  1
  O  O340  1  0.50165696  0.11829612  0.00808432  1
  O  O341  1  0.50140102  0.11902008  0.51117444  1
  O  O342  1  0.50655631  0.61870240  0.00145590  1
  O  O343  1  0.50890205  0.62344537  0.50093182  1
  O  O344  1  0.48842979  0.37521134  0.49344174  1
  O  O345  1  0.49231577  0.38114848  0.99874426  1
  O  O346  1  0.49872849  0.88056274  0.49435218  1
  O  O347  1  0.49949461  0.88182843  0.99342120  1
  O  O348  1  0.99261983  0.37537402  0.49258194  1
  O  O349  1  0.99392092  0.38086461  0.99401606  1
  O  O350  1  0.99201871  0.88217319  0.50179103  1
  O  O351  1  0.99471966  0.87968667  0.99406326  1
  O  O352  1  0.49241205  0.49217136  0.37621844  1
  O  O353  1  0.49306739  0.49797172  0.88245936  1
  O  O354  1  0.49631080  0.99510724  0.38002809  1
  O  O355  1  0.49623128  0.99662866  0.88036189  1
  O  O356  1  0.99762347  0.49113602  0.37633854  1
  O  O357  1  0.99362853  0.49578300  0.87947433  1
  O  O358  1  0.99832668  0.99594271  0.38672450  1
  O  O359  1  0.99437166  0.99385242  0.87909144  1
  O  O360  1  0.00734739  0.00129918  0.11704957  1
  O  O361  1  0.00617227  0.00052675  0.61648265  1
  O  O362  1  0.00470179  0.50481618  0.11920753  1
  O  O363  1  0.00565837  0.51075386  0.62428627  1
  O  O364  1  0.50570929  0.00365779  0.12165454  1
  O  O365  1  0.50373815  0.00706793  0.62157094  1
  O  O366  1  0.50559090  0.50188442  0.11878498  1
  O  O367  1  0.50901497  0.50264224  0.62196448  1
  O  O368  1  0.24399233  0.37981603  0.24480022  1
  O  O369  1  0.24245161  0.38242840  0.74859167  1
  O  O370  1  0.24578098  0.88016221  0.24457214  1
  O  O371  1  0.24458149  0.88048137  0.74672126  1
  O  O372  1  0.74233025  0.37486295  0.24345511  1
  O  O373  1  0.74432079  0.38070859  0.74343005  1
  O  O374  1  0.75202777  0.88088820  0.24334111  1
  O  O375  1  0.74504100  0.88023552  0.74536818  1
  O  O376  1  0.25657113  0.11835028  0.25528109  1
  O  O377  1  0.25085545  0.11947524  0.76036798  1
  O  O378  1  0.25043815  0.61769845  0.25642818  1
  O  O379  1  0.25490540  0.61986536  0.75577462  1
  O  O380  1  0.75843908  0.12074051  0.25450362  1
  O  O381  1  0.75580471  0.11872209  0.75535500  1
  O  O382  1  0.75666927  0.62652031  0.25604320  1
  O  O383  1  0.74988860  0.61896942  0.75650936  1
  O  O384  1  0.37064098  0.11860646  0.36968133  1
  O  O385  1  0.36475025  0.12037424  0.87424901  1
  O  O386  1  0.36691668  0.61665439  0.37428985  1
  O  O387  1  0.36902284  0.61848273  0.86946345  1
  O  O388  1  0.86901092  0.12462120  0.36370351  1
  O  O389  1  0.86898110  0.11874225  0.86845399  1
  O  O390  1  0.86843757  0.62632348  0.36815993  1
  O  O391  1  0.86702906  0.61833326  0.87354078  1
  O  O392  1  0.13030829  0.38100507  0.13090846  1
  O  O393  1  0.12493982  0.38160475  0.63113941  1
  O  O394  1  0.13221725  0.88145613  0.13060637  1
  O  O395  1  0.13133942  0.88117210  0.63210114  1
  O  O396  1  0.62933220  0.37998109  0.13000810  1
  O  O397  1  0.63091746  0.37953606  0.62898850  1
  O  O398  1  0.63371514  0.88135155  0.12749538  1
  O  O399  1  0.63009162  0.88120577  0.63152268  1
  O  O400  1  0.12019064  0.25564938  0.25492631  1
  O  O401  1  0.11780190  0.25735584  0.75102577  1
  O  O402  1  0.11927580  0.75710232  0.24775645  1
  O  O403  1  0.11849011  0.75727314  0.75157804  1
  O  O404  1  0.61927868  0.25574360  0.25625779  1
  O  O405  1  0.62554704  0.25565784  0.75924465  1
  O  O406  1  0.61594110  0.75121681  0.25546679  1
  O  O407  1  0.62045865  0.75587945  0.75691164  1
  O  O408  1  0.38219585  0.24288850  0.24971313  1
  O  O409  1  0.37683067  0.24983277  0.73858523  1
  O  O410  1  0.38264341  0.74932909  0.24276148  1
  O  O411  1  0.38159174  0.74312617  0.75120819  1
  O  O412  1  0.88072841  0.24066618  0.24848625  1
  O  O413  1  0.87878276  0.24567420  0.74501033  1
  O  O414  1  0.88121741  0.74552727  0.24266921  1
  O  O415  1  0.88397643  0.74766190  0.74600086  1
  O  O416  1  0.37447304  0.48990485  0.49468573  1
  O  O417  1  0.37886095  0.49574369  0.99535308  1
  O  O418  1  0.38235468  0.99813376  0.49319144  1
  O  O419  1  0.38233198  0.99801451  0.99430528  1
  O  O420  1  0.87719172  0.49037225  0.49651953  1
  O  O421  1  0.87977016  0.49477166  0.99387363  1
  O  O422  1  0.88310881  0.99149244  0.50074665  1
  O  O423  1  0.88028800  0.99407369  0.99393995  1
  O  O424  1  0.11944001  0.00005542  0.00626594  1
  O  O425  1  0.11555319  -0.00167748  0.50609037  1
  O  O426  1  0.11771340  0.49991000  0.00682471  1
  O  O427  1  0.12322479  0.50657420  0.50689392  1
  O  O428  1  0.61915227  0.00257298  0.00701832  1
  O  O429  1  0.61840419  0.00201839  0.50788130  1
  O  O430  1  0.61918507  0.50462969  0.00488653  1
  O  O431  1  0.62460704  0.50597409  0.50606365  1
  O  O432  1  0.36701375  0.37292137  0.11835128  1
  O  O433  1  0.37555486  0.36696183  0.61682593  1
  O  O434  1  0.37002818  0.86380869  0.12502586  1
  O  O435  1  0.36633246  0.87179349  0.62333832  1
  O  O436  1  0.86762485  0.37480764  0.11770573  1
  O  O437  1  0.86859198  0.36959814  0.61930322  1
  O  O438  1  0.87051810  0.86949622  0.11813570  1
  O  O439  1  0.86829018  0.87449737  0.61477160  1
  O  O440  1  0.13177890  0.13080256  0.37493953  1
  O  O441  1  0.13814272  0.12653534  0.87777646  1
  O  O442  1  0.13152119  0.62634211  0.38166118  1
  O  O443  1  0.13352179  0.62799010  0.87831468  1
  O  O444  1  0.63174337  0.13252341  0.37645150  1
  O  O445  1  0.63169504  0.13420793  0.87486865  1
  O  O446  1  0.63064169  0.63107512  0.38017363  1
  O  O447  1  0.63040694  0.63072379  0.88096686  1
