# generated using pymatgen
data_V3Zn3O8
_symmetry_space_group_name_H-M   'P 1'
_cell_length_a   17.08577509
_cell_length_b   17.08580156
_cell_length_c   17.08672454
_cell_angle_alpha   90.01332710
_cell_angle_beta   89.99259009
_cell_angle_gamma   89.99975475
_symmetry_Int_Tables_number   1
_chemical_formula_structural   V3Zn3O8
_chemical_formula_sum   'V96 Zn96 O256'
_cell_volume   4988.02757777
_cell_formula_units_Z   32
loop_
 _symmetry_equiv_pos_site_id
 _symmetry_equiv_pos_as_xyz
  1  'x, y, z'
loop_
 _atom_site_type_symbol
 _atom_site_label
 _atom_site_symmetry_multiplicity
 _atom_site_fract_x
 _atom_site_fract_y
 _atom_site_fract_z
 _atom_site_occupancy
  V  V0  1  -0.00033846  0.74903408  0.75085191  1
  V  V1  1  -0.00040884  0.37569046  0.37499957  1
  V  V2  1  0.62407241  0.24943903  0.87443921  1
  V  V3  1  0.12421662  0.50050972  0.12565927  1
  V  V4  1  0.50024368  -0.00035692  0.50018154  1
  V  V5  1  0.25009640  0.12606863  0.37585680  1
  V  V6  1  0.49980902  0.62643641  0.62486559  1
  V  V7  1  0.62491878  0.62532929  -0.00056800  1
  V  V8  1  0.87580341  0.37358503  0.00011872  1
  V  V9  1  0.49907727  0.62616056  0.12517015  1
  V  V10  1  0.37499354  0.62602379  0.24921054  1
  V  V11  1  -0.00102552  -0.00170239  0.00000020  1
  V  V12  1  -0.00077899  0.49840567  -0.00014785  1
  V  V13  1  0.37435297  -0.00050846  0.87547452  1
  V  V14  1  0.25090422  0.62583209  0.37401615  1
  V  V15  1  0.25053650  0.87578078  0.12488667  1
  V  V16  1  0.12504650  -0.00091534  0.62520359  1
  V  V17  1  0.12470761  0.75167042  0.37471436  1
  V  V18  1  0.87595934  -0.00132527  0.87637717  1
  V  V19  1  0.75077407  0.49946698  0.75088857  1
  V  V20  1  0.37688992  0.12613057  0.25053257  1
  V  V21  1  0.75069440  0.75033598  0.50062812  1
  V  V22  1  0.62493375  0.75022143  0.87405961  1
  V  V23  1  -0.00027058  0.49963799  0.49910092  1
  V  V24  1  0.74915712  0.12536778  0.87538616  1
  V  V25  1  0.87398582  0.74868727  0.12524564  1
  V  V26  1  0.00097461  0.12470158  0.12560801  1
  V  V27  1  -0.00121375  0.62509313  0.12572910  1
  V  V28  1  0.75094903  0.25002066  0.50079015  1
  V  V29  1  0.75017074  0.37435533  0.62459598  1
  V  V30  1  0.87455384  0.74986375  0.62473619  1
  V  V31  1  0.87474364  0.62324925  0.75014846  1
  V  V32  1  0.12556227  0.62600447  0.49968768  1
  V  V33  1  0.00019205  0.62411180  0.62488055  1
  V  V34  1  0.00011232  0.12557450  0.62541088  1
  V  V35  1  0.12573856  0.24977890  0.37578865  1
  V  V36  1  0.12427208  0.62562819  -0.00002902  1
  V  V37  1  -0.00054615  -0.00051465  0.49916933  1
  V  V38  1  0.24845437  0.62626113  0.87565454  1
  V  V39  1  0.49978169  0.50104606  -0.00050872  1
  V  V40  1  0.00056525  0.25003754  0.25020443  1
  V  V41  1  0.75073439  0.00053152  0.75038089  1
  V  V42  1  0.37285347  0.37435061  0.50259169  1
  V  V43  1  0.24973608  0.12445807  0.87523786  1
  V  V44  1  0.49847375  0.12566097  0.62639375  1
  V  V45  1  0.12540052  0.37565102  0.25047436  1
  V  V46  1  0.12770185  0.49747374  0.62650445  1
  V  V47  1  0.37370658  0.87596219  0.00020468  1
  V  V48  1  0.37437677  0.37576226  0.00017016  1
  V  V49  1  0.12490631  0.87475434  0.25137165  1
  V  V50  1  0.37470543  0.75114527  0.12436270  1
  V  V51  1  0.62501860  0.62538827  0.49943087  1
  V  V52  1  0.87542448  -0.00091727  0.37581669  1
  V  V53  1  0.62532520  0.00097819  0.12447008  1
  V  V54  1  0.62511147  0.49916387  0.12421479  1
  V  V55  1  0.00099852  0.37362909  0.87485281  1
  V  V56  1  0.12582661  0.12505063  0.49976070  1
  V  V57  1  0.75127249  0.87487348  0.62473958  1
  V  V58  1  0.62596415  0.00027149  0.62562313  1
  V  V59  1  0.25087763  0.75075344  0.50045673  1
  V  V60  1  0.37588216  0.87495425  0.50017039  1
  V  V61  1  0.49989221  0.37595844  0.37376768  1
  V  V62  1  0.49961303  0.37502480  0.87383488  1
  V  V63  1  0.62464643  0.87539012  0.25033395  1
  V  V64  1  0.62517751  0.75066076  0.37428938  1
  V  V65  1  0.00102244  0.24957335  0.75020422  1
  V  V66  1  0.75002840  0.37457685  0.12407687  1
  V  V67  1  0.87533896  0.12421106  0.24978522  1
  V  V68  1  0.12588638  0.12484060  0.00014333  1
  V  V69  1  0.37633005  0.25051957  0.12525238  1
  V  V70  1  0.25018031  0.50184997  0.25036486  1
  V  V71  1  0.25059030  0.00136793  0.25046410  1
  V  V72  1  0.37475798  0.50126907  0.87472107  1
  V  V73  1  0.37492463  0.12498725  0.74976993  1
  V  V74  1  0.75056983  0.87426176  0.12473145  1
  V  V75  1  0.87490819  0.25010218  0.12477545  1
  V  V76  1  0.12382061  0.87417855  0.75042238  1
  V  V77  1  0.62462957  0.25048693  0.37363345  1
  V  V78  1  0.62527159  0.87471928  0.75062458  1
  V  V79  1  0.62548851  0.50054976  0.62459575  1
  V  V80  1  0.12528898  0.24926468  0.87532963  1
  V  V81  1  0.87583351  0.12524549  0.74967720  1
  V  V82  1  0.12527629  0.00018091  0.12556805  1
  V  V83  1  0.50095631  0.87581425  0.37503576  1
  V  V84  1  0.37487890  0.62610386  0.74980415  1
  V  V85  1  0.74973132  0.62457813  0.37498633  1
  V  V86  1  0.87474562  0.49964157  0.37542704  1
  V  V87  1  0.74962046  0.74899780  0.00104306  1
  V  V88  1  0.25036971  0.37617027  0.12535121  1
  V  V89  1  0.74861252  0.49886142  0.24953486  1
  V  V90  1  0.50122026  0.00142151  0.00067253  1
  V  V91  1  0.37561815  0.75002436  0.62464781  1
  V  V92  1  0.75047644  0.00049103  0.24973116  1
  V  V93  1  0.49994578  0.50089325  0.49939451  1
  V  V94  1  0.62402573  0.12538285  0.50120998  1
  V  V95  1  0.87458368  0.62519007  0.24974228  1
  Zn  Zn96  1  0.87511385  0.49839782  0.87500055  1
  Zn  Zn97  1  0.75117930  0.62271603  0.87583549  1
  Zn  Zn98  1  -0.00161250  0.87148522  0.87808665  1
  Zn  Zn99  1  0.24706598  0.75209047  0.00002616  1
  Zn  Zn100  1  0.12814251  0.37363326  0.75032723  1
  Zn  Zn101  1  -0.00066695  0.75116699  0.25142252  1
  Zn  Zn102  1  0.25081859  0.37198156  0.62831540  1
  Zn  Zn103  1  0.25082568  0.87508741  0.62533216  1
  Zn  Zn104  1  0.00013395  0.87301966  0.37531688  1
  Zn  Zn105  1  0.49832650  0.25343168  0.74794905  1
  Zn  Zn106  1  0.87588449  0.37433406  0.49944584  1
  Zn  Zn107  1  0.74942880  0.12502752  0.37498162  1
  Zn  Zn108  1  0.37470621  0.50107927  0.37449984  1
  Zn  Zn109  1  0.74959980  0.24848693  0.00026573  1
  Zn  Zn110  1  0.49987856  0.75115100  0.24943702  1
  Zn  Zn111  1  0.37273355  0.24952542  0.62536446  1
  Zn  Zn112  1  0.87668541  0.25033486  0.62477825  1
  Zn  Zn113  1  0.25022456  0.25006470  0.50298863  1
  Zn  Zn114  1  0.50185608  0.25041876  0.24881715  1
  Zn  Zn115  1  0.49979489  0.75175781  0.74972373  1
  Zn  Zn116  1  0.25011365  0.49775229  0.74971142  1
  Zn  Zn117  1  0.50357739  0.12733900  0.12586176  1
  Zn  Zn118  1  0.12179537  0.75022854  0.87679233  1
  Zn  Zn119  1  0.62394865  0.37365556  0.24705834  1
  Zn  Zn120  1  0.87663105  0.87440415  0.49996394  1
  Zn  Zn121  1  0.24990336  0.25043252  -0.00058708  1
  Zn  Zn122  1  0.49808414  0.87493511  0.87297137  1
  Zn  Zn123  1  0.87613954  0.87286324  -0.00057019  1
  Zn  Zn124  1  0.62676423  0.12531480  0.00157355  1
  Zn  Zn125  1  0.24978137  -0.00249887  0.74900170  1
  Zn  Zn126  1  0.37592891  0.00062085  0.37581044  1
  Zn  Zn127  1  0.62230187  0.37513308  0.74999683  1
  Zn  Zn128  1  0.18943694  0.18843405  0.18792504  1
  Zn  Zn129  1  0.18947193  0.18820979  0.68697980  1
  Zn  Zn130  1  0.18761883  0.68978099  0.18718803  1
  Zn  Zn131  1  0.18835516  0.68762720  0.68809883  1
  Zn  Zn132  1  0.68912947  0.18644883  0.18722598  1
  Zn  Zn133  1  0.68568269  0.18760580  0.68990247  1
  Zn  Zn134  1  0.68666560  0.68722522  0.18773315  1
  Zn  Zn135  1  0.68829176  0.68690536  0.68778361  1
  Zn  Zn136  1  0.31213894  0.31238234  0.31400115  1
  Zn  Zn137  1  0.31016956  0.31210259  0.81142544  1
  Zn  Zn138  1  0.31346781  0.81285731  0.31253315  1
  Zn  Zn139  1  0.31083216  0.81182933  0.81228087  1
  Zn  Zn140  1  0.81252413  0.31375921  0.31129326  1
  Zn  Zn141  1  0.81355177  0.31127761  0.81304430  1
  Zn  Zn142  1  0.81189156  0.81313454  0.31160091  1
  Zn  Zn143  1  0.81254840  0.81246094  0.81328243  1
  Zn  Zn144  1  0.18822515  0.43885073  0.43762266  1
  Zn  Zn145  1  0.18725664  0.43779823  0.93792574  1
  Zn  Zn146  1  0.18910331  0.93800546  0.43722389  1
  Zn  Zn147  1  0.18674546  0.93797859  0.93586072  1
  Zn  Zn148  1  0.68680970  0.43710426  0.43770554  1
  Zn  Zn149  1  0.68737584  0.43445920  0.93795748  1
  Zn  Zn150  1  0.68864439  0.93724213  0.43796886  1
  Zn  Zn151  1  0.68877783  0.93613441  0.93796195  1
  Zn  Zn152  1  0.31249374  0.06339802  0.06236989  1
  Zn  Zn153  1  0.31118953  0.06007855  0.56348129  1
  Zn  Zn154  1  0.31169264  0.56375082  0.06173695  1
  Zn  Zn155  1  0.31301603  0.56226246  0.56116371  1
  Zn  Zn156  1  0.81235133  0.06255816  0.06085118  1
  Zn  Zn157  1  0.81327201  0.06388645  0.56263634  1
  Zn  Zn158  1  0.81210700  0.56153598  0.06143241  1
  Zn  Zn159  1  0.81349807  0.56254224  0.56206589  1
  Zn  Zn160  1  0.43752354  0.43937945  0.18822421  1
  Zn  Zn161  1  0.43728209  0.43987304  0.68844800  1
  Zn  Zn162  1  0.43838167  0.93866683  0.18706574  1
  Zn  Zn163  1  0.43875002  0.93696655  0.68791121  1
  Zn  Zn164  1  0.93636611  0.43768718  0.18771753  1
  Zn  Zn165  1  0.93810046  0.43497643  0.68719524  1
  Zn  Zn166  1  0.93841434  0.93495526  0.18794021  1
  Zn  Zn167  1  0.93841277  0.93694439  0.68803637  1
  Zn  Zn168  1  0.06250333  0.06188521  0.31332959  1
  Zn  Zn169  1  0.06175071  0.06093363  0.81334840  1
  Zn  Zn170  1  0.06227653  0.56444804  0.31264636  1
  Zn  Zn171  1  0.06209445  0.56078116  0.81254218  1
  Zn  Zn172  1  0.56225481  0.06285266  0.31286519  1
  Zn  Zn173  1  0.56130628  0.06258618  0.81351183  1
  Zn  Zn174  1  0.56232943  0.56232183  0.31048632  1
  Zn  Zn175  1  0.56235211  0.56360938  0.81106888  1
  Zn  Zn176  1  0.43752096  0.18915196  0.43879168  1
  Zn  Zn177  1  0.43833335  0.18721137  0.93709956  1
  Zn  Zn178  1  0.43773212  0.68928099  0.43615971  1
  Zn  Zn179  1  0.43675851  0.68957085  0.93813233  1
  Zn  Zn180  1  0.93809120  0.18605329  0.43712127  1
  Zn  Zn181  1  0.93788947  0.18624743  0.93757755  1
  Zn  Zn182  1  0.93824789  0.68750420  0.43729993  1
  Zn  Zn183  1  0.93553169  0.68515855  0.93609842  1
  Zn  Zn184  1  0.06298198  0.31173221  0.06194763  1
  Zn  Zn185  1  0.06288707  0.31227835  0.56184792  1
  Zn  Zn186  1  0.06165801  0.81144361  0.06365953  1
  Zn  Zn187  1  0.06110481  0.81379392  0.56245188  1
  Zn  Zn188  1  0.56230091  0.31302380  0.05905366  1
  Zn  Zn189  1  0.56049703  0.31223496  0.56325687  1
  Zn  Zn190  1  0.56152119  0.81410443  0.06237355  1
  Zn  Zn191  1  0.56290715  0.81268899  0.56281903  1
  O  O192  1  0.12068695  0.12009913  0.12132115  1
  O  O193  1  0.11894498  0.11895760  0.61980995  1
  O  O194  1  0.11962959  0.61924688  0.12087977  1
  O  O195  1  0.11957580  0.61780712  0.61918972  1
  O  O196  1  0.62308848  0.11792477  0.12272056  1
  O  O197  1  0.61956576  0.11925533  0.62116352  1
  O  O198  1  0.61921122  0.61946888  0.11918326  1
  O  O199  1  0.62042327  0.62064182  0.61818384  1
  O  O200  1  0.38513741  0.37587857  0.38225787  1
  O  O201  1  0.37919233  0.38079358  0.88107205  1
  O  O202  1  0.38282159  0.87659235  0.38137749  1
  O  O203  1  0.37513373  0.88108836  0.88118380  1
  O  O204  1  0.88160918  0.38186736  0.37546730  1
  O  O205  1  0.88266980  0.37493263  0.88191864  1
  O  O206  1  0.87530544  0.88793808  0.37543901  1
  O  O207  1  0.87654916  0.88316979  0.87736407  1
  O  O208  1  0.25284937  0.00817196  0.36780158  1
  O  O209  1  0.25673976  0.00722923  0.87315269  1
  O  O210  1  0.25040044  0.50794300  0.36756560  1
  O  O211  1  0.25600827  0.51109088  0.87610182  1
  O  O212  1  0.75839019  0.00230963  0.36968626  1
  O  O213  1  0.75472044  0.00505517  0.86897885  1
  O  O214  1  0.75394169  0.50501743  0.37055389  1
  O  O215  1  0.75033684  0.49817593  0.86189603  1
  O  O216  1  0.24404519  0.49551474  0.13056405  1
  O  O217  1  0.23791998  0.50047507  0.62431990  1
  O  O218  1  0.24452825  0.99606428  0.13105831  1
  O  O219  1  0.23992375  0.99602376  0.62763857  1
  O  O220  1  0.74435017  0.49451558  0.12978213  1
  O  O221  1  0.74558152  0.49258058  0.63001541  1
  O  O222  1  0.74566615  0.99446998  0.13034546  1
  O  O223  1  0.74511255  0.99587267  0.63044887  1
  O  O224  1  0.00597009  0.37005352  0.25493293  1
  O  O225  1  0.00207012  0.36738899  0.75639856  1
  O  O226  1  0.00960566  0.87265001  0.25279738  1
  O  O227  1  0.00853744  0.86785400  0.75035445  1
  O  O228  1  0.50123008  0.37378976  0.26205757  1
  O  O229  1  0.50178590  0.37466239  0.75816977  1
  O  O230  1  0.50716373  0.87537389  0.25643283  1
  O  O231  1  0.50975069  0.87247429  0.75245934  1
  O  O232  1  0.48850287  0.12739055  0.24897572  1
  O  O233  1  0.48956150  0.12347366  0.74491113  1
  O  O234  1  0.49360293  0.62633983  0.24266693  1
  O  O235  1  0.49358245  0.62714098  0.74236416  1
  O  O236  1  0.99573410  0.13055000  0.24469010  1
  O  O237  1  0.99506927  0.12967832  0.74488155  1
  O  O238  1  0.99221417  0.62508580  0.24330299  1
  O  O239  1  0.99455989  0.62847357  0.74368464  1
  O  O240  1  0.37435146  0.25580986  0.00980979  1
  O  O241  1  0.37437850  0.26198783  0.50121639  1
  O  O242  1  0.37332535  0.75825730  0.00659750  1
  O  O243  1  0.37039717  0.75502144  0.50504992  1
  O  O244  1  0.87564028  0.25549196  0.00785876  1
  O  O245  1  0.86218038  0.25050518  0.50034171  1
  O  O246  1  0.86738616  0.74846020  0.00720471  1
  O  O247  1  0.86818837  0.74987692  0.50638494  1
  O  O248  1  0.12472593  0.24259182  0.49232210  1
  O  O249  1  0.12619505  0.24219695  0.99460511  1
  O  O250  1  0.13045371  0.74473503  0.49584320  1
  O  O251  1  0.12635818  0.74132766  0.99796779  1
  O  O252  1  0.63217748  0.24627748  0.49286705  1
  O  O253  1  0.62598445  0.24742533  0.98729224  1
  O  O254  1  0.63137067  0.74444095  0.49454642  1
  O  O255  1  0.62930973  0.74547555  0.99314422  1
  O  O256  1  0.48871498  0.25019180  0.12685097  1
  O  O257  1  0.49726695  0.24124630  0.62775338  1
  O  O258  1  0.49371637  0.74377905  0.12583286  1
  O  O259  1  0.49429938  0.74291489  0.62481003  1
  O  O260  1  0.99564185  0.24443133  0.13175222  1
  O  O261  1  0.99912887  0.24342312  0.63075302  1
  O  O262  1  0.99219529  0.74195686  0.12743423  1
  O  O263  1  0.99411453  0.74283506  0.62968716  1
  O  O264  1  0.00519862  0.25498641  0.36903013  1
  O  O265  1  0.00604176  0.25349109  0.87008651  1
  O  O266  1  0.00808268  0.75151389  0.37292420  1
  O  O267  1  0.00081411  0.75002672  0.86598601  1
  O  O268  1  0.50970644  0.25913362  0.37656545  1
  O  O269  1  0.50769347  0.25598717  0.87450227  1
  O  O270  1  0.50834598  0.75721629  0.37363137  1
  O  O271  1  0.51319849  0.75213361  0.87473221  1
  O  O272  1  0.24358276  0.12487155  0.49302741  1
  O  O273  1  0.24347294  0.12627392  0.99415633  1
  O  O274  1  0.24512771  0.63080790  0.49354269  1
  O  O275  1  0.24337601  0.62549541  0.99138841  1
  O  O276  1  0.74292426  0.13518380  0.49988372  1
  O  O277  1  0.74788013  0.12748029  0.99083925  1
  O  O278  1  0.74427177  0.62982156  0.49454789  1
  O  O279  1  0.74208393  0.63005131  0.99916293  1
  O  O280  1  0.25693700  0.37476001  0.00773967  1
  O  O281  1  0.26260803  0.37568455  0.49891110  1
  O  O282  1  0.25572347  0.87618348  0.00723279  1
  O  O283  1  0.25743983  0.86820755  0.50080756  1
  O  O284  1  0.75775860  0.37313321  0.00672294  1
  O  O285  1  0.74935039  0.36699466  0.50806196  1
  O  O286  1  0.75122346  0.86724678  0.00810372  1
  O  O287  1  0.75148899  0.86822662  0.50731880  1
  O  O288  1  0.12992374  0.49521135  0.24476292  1
  O  O289  1  0.12486088  0.49930024  0.73705037  1
  O  O290  1  0.13104949  0.99624275  0.24459484  1
  O  O291  1  0.12347593  0.99024485  0.74402854  1
  O  O292  1  0.63126498  0.49843542  0.24221671  1
  O  O293  1  0.63490820  0.49977103  0.74285095  1
  O  O294  1  0.63083215  0.99553983  0.24536607  1
  O  O295  1  0.63135604  0.99556847  0.74517852  1
  O  O296  1  0.36971057  0.01117415  0.24974999  1
  O  O297  1  0.37444375  0.00828915  0.75628636  1
  O  O298  1  0.36770469  0.50749175  0.25080627  1
  O  O299  1  0.37372994  0.50893155  0.75733719  1
  O  O300  1  0.87087904  0.00465026  0.25692479  1
  O  O301  1  0.86986379  0.00581044  0.75526081  1
  O  O302  1  0.86837562  0.50538442  0.25556120  1
  O  O303  1  0.86546966  0.50406897  0.74790744  1
  O  O304  1  0.11954756  0.37081176  0.36933093  1
  O  O305  1  0.11856901  0.36777123  0.87591472  1
  O  O306  1  0.12567254  0.86937498  0.36872763  1
  O  O307  1  0.12206232  0.87293921  0.86363037  1
  O  O308  1  0.61619727  0.36677682  0.37617219  1
  O  O309  1  0.61851066  0.36635179  0.87426345  1
  O  O310  1  0.62116985  0.87024901  0.37012433  1
  O  O311  1  0.62579573  0.86530978  0.86933662  1
  O  O312  1  0.37406293  0.13457834  0.13398228  1
  O  O313  1  0.38023034  0.12243321  0.63456778  1
  O  O314  1  0.37967558  0.63053886  0.12902028  1
  O  O315  1  0.38045072  0.62984571  0.62899065  1
  O  O316  1  0.88131092  0.12965999  0.13074537  1
  O  O317  1  0.88182619  0.12636719  0.63179558  1
  O  O318  1  0.87884096  0.62875955  0.13064622  1
  O  O319  1  0.88070554  0.62983175  0.62991259  1
  O  O320  1  0.26038879  0.25726280  0.12474624  1
  O  O321  1  0.25399736  0.25399378  0.62010025  1
  O  O322  1  0.25661598  0.75793241  0.12305020  1
  O  O323  1  0.25732263  0.74980543  0.61732822  1
  O  O324  1  0.75716468  0.25638377  0.12413422  1
  O  O325  1  0.74739726  0.25786297  0.61713111  1
  O  O326  1  0.75381227  0.75411383  0.12023480  1
  O  O327  1  0.75495744  0.75458845  0.62005524  1
  O  O328  1  0.24239580  0.24391193  0.37638596  1
  O  O329  1  0.24351020  0.24235551  0.87778189  1
  O  O330  1  0.24497750  0.74462856  0.38085444  1
  O  O331  1  0.24770881  0.73653712  0.87764056  1
  O  O332  1  0.74112293  0.25168739  0.38365725  1
  O  O333  1  0.74071550  0.24480485  0.87508673  1
  O  O334  1  0.74502466  0.74425106  0.38045645  1
  O  O335  1  0.73958956  0.74777905  0.88064363  1
  O  O336  1  0.00607214  0.11890421  0.00707319  1
  O  O337  1  0.00592341  0.11971541  0.50516178  1
  O  O338  1  0.00396656  0.61789216  0.00613303  1
  O  O339  1  0.00602898  0.61938428  0.50527969  1
  O  O340  1  0.50040930  0.11187248  0.00235826  1
  O  O341  1  0.50500747  0.11985219  0.50552223  1
  O  O342  1  0.50480214  0.61967795  0.00546144  1
  O  O343  1  0.50568369  0.62026900  0.50401835  1
  O  O344  1  0.49411671  0.38039633  0.49195580  1
  O  O345  1  0.49332030  0.38246656  0.99414123  1
  O  O346  1  0.49651325  0.88057844  0.49498514  1
  O  O347  1  0.49341030  0.88664956  0.99961744  1
  O  O348  1  0.99820504  0.38107285  0.49231627  1
  O  O349  1  0.99540467  0.37941049  0.99580254  1
  O  O350  1  0.99653434  0.88379787  0.49715610  1
  O  O351  1  0.99778890  0.88297360  0.99959074  1
  O  O352  1  0.50116442  0.49063724  0.38045587  1
  O  O353  1  0.49503164  0.49623573  0.88083308  1
  O  O354  1  0.50023364  0.99390972  0.38281577  1
  O  O355  1  0.49425698  0.99813427  0.88482876  1
  O  O356  1  0.99519621  0.49551952  0.37943259  1
  O  O357  1  0.99928684  0.49203870  0.88204977  1
  O  O358  1  0.99023364  1.00027944  0.37998446  1
  O  O359  1  0.99304671  0.99952169  0.88288647  1
  O  O360  1  0.00570756  0.00610713  0.12131471  1
  O  O361  1  0.00469198  0.00629759  0.61919462  1
  O  O362  1  0.00528901  0.50471366  0.12046446  1
  O  O363  1  0.00686608  0.50461915  0.61905987  1
  O  O364  1  0.50614953  0.00134478  0.11624331  1
  O  O365  1  0.50749569  0.00527093  0.61932821  1
  O  O366  1  0.50495600  0.50538750  0.11864720  1
  O  O367  1  0.50639309  0.50657730  0.61880658  1
  O  O368  1  0.24478351  0.38141425  0.24574169  1
  O  O369  1  0.24631586  0.38072503  0.74688301  1
  O  O370  1  0.24582798  0.88212098  0.24467949  1
  O  O371  1  0.23740320  0.87517569  0.74743096  1
  O  O372  1  0.74807756  0.38165825  0.24279205  1
  O  O373  1  0.74944974  0.38253465  0.74037430  1
  O  O374  1  0.74389506  0.88122575  0.24455745  1
  O  O375  1  0.74515138  0.88136049  0.74377865  1
  O  O376  1  0.25814673  0.12127105  0.25510277  1
  O  O377  1  0.25947801  0.12181100  0.75616402  1
  O  O378  1  0.25483076  0.62055988  0.25421599  1
  O  O379  1  0.25538406  0.62306394  0.75986354  1
  O  O380  1  0.75770968  0.11827640  0.25224945  1
  O  O381  1  0.75560437  0.11923566  0.75464260  1
  O  O382  1  0.75435313  0.61848127  0.25559733  1
  O  O383  1  0.75545411  0.61319852  0.74769718  1
  O  O384  1  0.37050950  0.12666484  0.36521728  1
  O  O385  1  0.37051869  0.11964785  0.86844780  1
  O  O386  1  0.36897841  0.62475720  0.36804026  1
  O  O387  1  0.36803443  0.62112788  0.87151819  1
  O  O388  1  0.87368548  0.11535570  0.36862324  1
  O  O389  1  0.86963780  0.11933566  0.86893336  1
  O  O390  1  0.86864384  0.61928712  0.36995619  1
  O  O391  1  0.87051324  0.61922373  0.86609151  1
  O  O392  1  0.12994928  0.38018692  0.13109261  1
  O  O393  1  0.12527211  0.38746119  0.62366743  1
  O  O394  1  0.13108024  0.88125910  0.13081660  1
  O  O395  1  0.12449437  0.88036606  0.63429911  1
  O  O396  1  0.63035954  0.38119025  0.12444109  1
  O  O397  1  0.63423709  0.38102274  0.62505939  1
  O  O398  1  0.63080365  0.88043667  0.13093463  1
  O  O399  1  0.63161629  0.88062207  0.63020630  1
  O  O400  1  0.11995969  0.25588504  0.25496060  1
  O  O401  1  0.11797914  0.24908926  0.75761613  1
  O  O402  1  0.12520275  0.75681444  0.25695088  1
  O  O403  1  0.11790699  0.75768230  0.74919218  1
  O  O404  1  0.62403295  0.25132376  0.26180916  1
  O  O405  1  0.62185015  0.25232724  0.76204492  1
  O  O406  1  0.62454165  0.75704714  0.25667533  1
  O  O407  1  0.62628041  0.75454081  0.75883954  1
  O  O408  1  0.37549966  0.24306868  0.24215188  1
  O  O409  1  0.37690557  0.23587933  0.75039291  1
  O  O410  1  0.37668270  0.74402567  0.24233075  1
  O  O411  1  0.37671341  0.74384611  0.74343418  1
  O  O412  1  0.88111541  0.24452886  0.24549410  1
  O  O413  1  0.88188852  0.24249599  0.74850957  1
  O  O414  1  0.87398412  0.74207274  0.24402860  1
  O  O415  1  0.87857096  0.74334238  0.74364004  1
  O  O416  1  0.38230630  0.49254591  0.49656049  1
  O  O417  1  0.38079849  0.49574437  0.99526188  1
  O  O418  1  0.38281079  0.99366248  0.49889273  1
  O  O419  1  0.38234589  0.99592017  0.99647364  1
  O  O420  1  0.88143640  0.49939425  0.49289618  1
  O  O421  1  0.88175890  0.49221695  0.99980313  1
  O  O422  1  0.87927949  1.00146434  0.49042325  1
  O  O423  1  0.88171552  0.99863948  0.99449431  1
  O  O424  1  0.11955442  0.00563995  0.00654341  1
  O  O425  1  0.11934816  0.00565054  0.50432734  1
  O  O426  1  0.11871760  0.50493733  0.00734597  1
  O  O427  1  0.11939562  0.50652770  0.50605086  1
  O  O428  1  0.61639453  -0.00079095  0.00509318  1
  O  O429  1  0.62131951  0.00595612  0.50600234  1
  O  O430  1  0.61939026  0.50523625  0.00424430  1
  O  O431  1  0.62049107  0.50608688  0.50492021  1
  O  O432  1  0.37072641  0.36893717  0.12131715  1
  O  O433  1  0.37673277  0.37610053  0.61296830  1
  O  O434  1  0.36949497  0.87162612  0.12063081  1
  O  O435  1  0.37509810  0.86826283  0.61836716  1
  O  O436  1  0.87063733  0.36911162  0.12051979  1
  O  O437  1  0.86246360  0.37242335  0.62140691  1
  O  O438  1  0.86757993  0.86716463  0.12530435  1
  O  O439  1  0.86831078  0.86818460  0.62453002  1
  O  O440  1  0.12989890  0.13031658  0.37958218  1
  O  O441  1  0.12974081  0.12890307  0.88070182  1
  O  O442  1  0.13100160  0.63073327  0.38031222  1
  O  O443  1  0.13343602  0.62347489  0.88053459  1
  O  O444  1  0.62539281  0.13534814  0.38149450  1
  O  O445  1  0.63039088  0.13330608  0.87490781  1
  O  O446  1  0.63035982  0.62987095  0.37980888  1
  O  O447  1  0.62645819  0.63388745  0.88050964  1
