# generated using pymatgen
data_V3Zn3O8
_symmetry_space_group_name_H-M   'P 1'
_cell_length_a   17.08990092
_cell_length_b   17.08979653
_cell_length_c   17.08789045
_cell_angle_alpha   90.00386127
_cell_angle_beta   89.99750488
_cell_angle_gamma   90.00531681
_symmetry_Int_Tables_number   1
_chemical_formula_structural   V3Zn3O8
_chemical_formula_sum   'V96 Zn96 O256'
_cell_volume   4990.73930489
_cell_formula_units_Z   32
loop_
 _symmetry_equiv_pos_site_id
 _symmetry_equiv_pos_as_xyz
  1  'x, y, z'
loop_
 _atom_site_type_symbol
 _atom_site_label
 _atom_site_symmetry_multiplicity
 _atom_site_fract_x
 _atom_site_fract_y
 _atom_site_fract_z
 _atom_site_occupancy
  V  V0  1  0.25032593  0.25004606  0.50058713  1
  V  V1  1  0.37472089  0.74973292  0.62408108  1
  V  V2  1  0.24933734  -0.00033646  0.74982101  1
  V  V3  1  0.74937889  0.74837346  0.49939525  1
  V  V4  1  0.75011451  0.75054061  0.00105310  1
  V  V5  1  0.87469849  0.74776372  0.62601913  1
  V  V6  1  0.87486031  0.12526164  0.25078859  1
  V  V7  1  0.24891268  0.00142686  0.24941926  1
  V  V8  1  0.62541229  0.24890982  0.87425200  1
  V  V9  1  0.37576789  0.50016043  0.87560392  1
  V  V10  1  0.62609571  0.75049491  0.37482394  1
  V  V11  1  0.62329385  0.87344617  0.74961645  1
  V  V12  1  0.49832931  0.87468548  0.87597804  1
  V  V13  1  0.75042470  0.00126680  0.25039906  1
  V  V14  1  0.87511669  0.87535176  -0.00069743  1
  V  V15  1  0.50009155  0.24879535  0.74956981  1
  V  V16  1  0.37429023  0.37466099  0.00043840  1
  V  V17  1  0.37573955  0.24953491  0.62510355  1
  V  V18  1  0.75019458  0.24966638  -0.00115827  1
  V  V19  1  0.25095583  0.12465627  0.87429060  1
  V  V20  1  0.49970932  0.74891404  0.74966293  1
  V  V21  1  0.37771715  0.37891948  0.49723400  1
  V  V22  1  0.74994527  0.12334650  0.87387989  1
  V  V23  1  0.00002912  0.49938624  0.00019230  1
  V  V24  1  0.62553359  0.49982081  0.12589556  1
  V  V25  1  0.62489158  0.50013750  0.62405583  1
  V  V26  1  0.62570719  0.37441800  0.74990547  1
  V  V27  1  0.12425453  0.12506570  -0.00059477  1
  V  V28  1  0.87476344  0.25017602  0.12475662  1
  V  V29  1  0.00087887  0.12265277  0.62494063  1
  V  V30  1  0.25013156  0.62433342  0.87612234  1
  V  V31  1  0.24945382  0.12537203  0.37412258  1
  V  V32  1  0.25054656  0.87330156  0.62343269  1
  V  V33  1  0.62362303  0.25138228  0.37392910  1
  V  V34  1  0.75032649  0.62421191  0.87577191  1
  V  V35  1  0.12446357  0.12412894  0.50109333  1
  V  V36  1  0.25037194  0.25026010  -0.00075503  1
  V  V37  1  0.25015010  0.37447371  0.12408359  1
  V  V38  1  0.87468060  0.37457644  -0.00033885  1
  V  V39  1  0.12429191  0.62364592  0.00041451  1
  V  V40  1  0.75212183  0.50090052  0.25071029  1
  V  V41  1  0.50072127  0.37461651  0.87546864  1
  V  V42  1  0.74961832  0.87663364  0.12469742  1
  V  V43  1  0.12393448  0.74965172  0.87560086  1
  V  V44  1  0.00116768  0.25054554  0.75092025  1
  V  V45  1  0.62473443  0.12447149  -0.00051141  1
  V  V46  1  0.25046219  0.37565486  0.62580584  1
  V  V47  1  0.00039084  0.37401860  0.87422636  1
  V  V48  1  0.87404311  -0.00099421  0.87382099  1
  V  V49  1  0.87557740  0.75085145  0.12648224  1
  V  V50  1  0.12574817  0.49934918  0.62552792  1
  V  V51  1  0.00004397  0.37560363  0.37532032  1
  V  V52  1  0.87554478  0.50125675  0.37410772  1
  V  V53  1  0.12479141  0.24972864  0.37530473  1
  V  V54  1  0.62419527  0.37457640  0.25017176  1
  V  V55  1  0.87420562  0.49973912  0.87546397  1
  V  V56  1  0.49944555  0.62591606  0.12648690  1
  V  V57  1  0.25102296  0.50317803  0.25296806  1
  V  V58  1  0.37577907  0.62437421  0.75036022  1
  V  V59  1  0.75064956  0.49968754  0.75111540  1
  V  V60  1  0.87587176  0.37490716  0.50048375  1
  V  V61  1  0.24967923  0.87630220  0.12444826  1
  V  V62  1  0.49967326  -0.00020588  0.49792986  1
  V  V63  1  0.24975317  0.75002297  0.00152111  1
  V  V64  1  0.74959403  0.24985372  0.50068083  1
  V  V65  1  0.00187468  0.49980719  0.50041438  1
  V  V66  1  0.62501426  0.62542264  0.00107031  1
  V  V67  1  0.37592532  0.00097814  0.37412379  1
  V  V68  1  0.62351145  -0.00153087  0.62380556  1
  V  V69  1  0.37396481  0.87440845  0.00030943  1
  V  V70  1  -0.00079583  0.24989670  0.24966782  1
  V  V71  1  0.87512799  0.24949201  0.62501108  1
  V  V72  1  -0.00073815  0.75159797  0.25010649  1
  V  V73  1  0.75039910  0.37479275  0.62564993  1
  V  V74  1  0.12479836  0.87350572  0.75065616  1
  V  V75  1  0.00008612  0.62470652  0.62637010  1
  V  V76  1  0.62583254  0.12529056  0.49970172  1
  V  V77  1  0.50149070  0.62327154  0.62380222  1
  V  V78  1  0.37425232  -0.00085375  0.87495143  1
  V  V79  1  0.12834881  0.74968325  0.37589643  1
  V  V80  1  0.00050977  0.00091270  -0.00109846  1
  V  V81  1  0.62546742  0.00156617  0.12396239  1
  V  V82  1  0.12517740  0.87707565  0.24932854  1
  V  V83  1  0.25028606  0.49884974  0.75020556  1
  V  V84  1  0.49994852  0.75155808  0.24953831  1
  V  V85  1  0.49864951  0.12756196  0.12577742  1
  V  V86  1  0.12473653  0.37495270  0.24979065  1
  V  V87  1  0.87695587  0.87675055  0.49966618  1
  V  V88  1  0.00002215  0.87357349  0.87401229  1
  V  V89  1  0.74950395  0.37513393  0.12439637  1
  V  V90  1  0.62458808  0.74965404  0.87562231  1
  V  V91  1  0.74904763  -0.00146917  0.75043588  1
  V  V92  1  0.12398062  0.49978611  0.12411838  1
  V  V93  1  0.74859266  0.87293301  0.62513015  1
  V  V94  1  0.49936013  0.12458301  0.62528472  1
  V  V95  1  0.50040053  0.50047334  0.00075580  1
  Zn  Zn96  1  0.87482973  0.12319981  0.74967562  1
  Zn  Zn97  1  0.87573875  0.00001646  0.37657675  1
  Zn  Zn98  1  -0.00166617  0.62474509  0.12540261  1
  Zn  Zn99  1  0.25263943  0.74821881  0.49751840  1
  Zn  Zn100  1  0.12435739  -0.00308609  0.62338991  1
  Zn  Zn101  1  0.62450006  0.87719430  0.24964805  1
  Zn  Zn102  1  0.37625264  0.87325236  0.49816050  1
  Zn  Zn103  1  0.12350142  0.00132800  0.12546463  1
  Zn  Zn104  1  0.75064231  0.12394759  0.37759546  1
  Zn  Zn105  1  0.87490195  0.62512682  0.75171647  1
  Zn  Zn106  1  0.37367162  0.12890888  0.24776122  1
  Zn  Zn107  1  0.49584094  0.25306066  0.24977931  1
  Zn  Zn108  1  0.50359500  0.50163813  0.49559509  1
  Zn  Zn109  1  0.62597757  0.62282288  0.49868623  1
  Zn  Zn110  1  0.37448881  0.74950673  0.12660410  1
  Zn  Zn111  1  -0.00186462  0.74853402  0.75105480  1
  Zn  Zn112  1  0.12693872  0.37434544  0.75161184  1
  Zn  Zn113  1  0.87489611  0.62636991  0.25086502  1
  Zn  Zn114  1  0.12638389  0.25140787  0.87364191  1
  Zn  Zn115  1  0.37536365  0.25084604  0.12694004  1
  Zn  Zn116  1  0.00037215  0.12442766  0.12416161  1
  Zn  Zn117  1  0.49931400  -0.00024056  0.00018632  1
  Zn  Zn118  1  -0.00012554  -0.00024461  0.49835971  1
  Zn  Zn119  1  0.37408326  0.12450383  0.75011121  1
  Zn  Zn120  1  0.37379645  0.62720508  0.25288558  1
  Zn  Zn121  1  0.50063545  0.87601442  0.37381263  1
  Zn  Zn122  1  0.25231408  0.62438446  0.38000270  1
  Zn  Zn123  1  0.37995489  0.50472648  0.37414294  1
  Zn  Zn124  1  0.75248120  0.62511579  0.37502362  1
  Zn  Zn125  1  0.49953666  0.37896185  0.37234150  1
  Zn  Zn126  1  0.00172103  0.87847691  0.37739418  1
  Zn  Zn127  1  0.12781039  0.62674710  0.50064229  1
  Zn  Zn128  1  0.18750598  0.18812778  0.18628909  1
  Zn  Zn129  1  0.18744776  0.18703157  0.68724685  1
  Zn  Zn130  1  0.18514757  0.68765632  0.18664448  1
  Zn  Zn131  1  0.18697803  0.68757780  0.68929775  1
  Zn  Zn132  1  0.68686357  0.18775684  0.18716743  1
  Zn  Zn133  1  0.68701641  0.18559477  0.68736676  1
  Zn  Zn134  1  0.68805304  0.68662201  0.18980686  1
  Zn  Zn135  1  0.68749479  0.68551352  0.68781854  1
  Zn  Zn136  1  0.31303243  0.31308384  0.31156193  1
  Zn  Zn137  1  0.31366996  0.31121828  0.81297228  1
  Zn  Zn138  1  0.31289118  0.81528969  0.31027925  1
  Zn  Zn139  1  0.31173289  0.81190168  0.81207799  1
  Zn  Zn140  1  0.81056354  0.31338271  0.31306867  1
  Zn  Zn141  1  0.81441025  0.31170398  0.81189827  1
  Zn  Zn142  1  0.81281555  0.81469648  0.31380940  1
  Zn  Zn143  1  0.81266302  0.81068743  0.81135393  1
  Zn  Zn144  1  0.18752318  0.43748918  0.43869114  1
  Zn  Zn145  1  0.18580525  0.43596284  0.93647254  1
  Zn  Zn146  1  0.18683461  0.93781370  0.43834999  1
  Zn  Zn147  1  0.18731092  0.93771404  0.93700810  1
  Zn  Zn148  1  0.68840984  0.43746404  0.43714504  1
  Zn  Zn149  1  0.68673674  0.43758144  0.93795569  1
  Zn  Zn150  1  0.68880143  0.93579207  0.43575099  1
  Zn  Zn151  1  0.68599612  0.93717850  0.93796243  1
  Zn  Zn152  1  0.31258308  0.06136474  0.06198085  1
  Zn  Zn153  1  0.31225866  0.06157314  0.56198084  1
  Zn  Zn154  1  0.31327227  0.56324785  0.06598152  1
  Zn  Zn155  1  0.31149178  0.56462265  0.56151209  1
  Zn  Zn156  1  0.81364256  0.06336681  0.06262743  1
  Zn  Zn157  1  0.81158140  0.06234082  0.56522746  1
  Zn  Zn158  1  0.81418242  0.56431405  0.06455015  1
  Zn  Zn159  1  0.81262670  0.56277219  0.56090123  1
  Zn  Zn160  1  0.43667464  0.43738676  0.18835594  1
  Zn  Zn161  1  0.43849669  0.43709696  0.68616624  1
  Zn  Zn162  1  0.43691775  0.93878834  0.18715266  1
  Zn  Zn163  1  0.43539722  0.93737393  0.68800922  1
  Zn  Zn164  1  0.93739993  0.43695165  0.18741506  1
  Zn  Zn165  1  0.93709028  0.43756338  0.68835804  1
  Zn  Zn166  1  0.93934547  0.93840133  0.18486121  1
  Zn  Zn167  1  0.93663984  0.93561042  0.68773610  1
  Zn  Zn168  1  0.06002627  0.06093944  0.31522329  1
  Zn  Zn169  1  0.06418778  0.06091599  0.81239928  1
  Zn  Zn170  1  0.06346460  0.56567403  0.31205772  1
  Zn  Zn171  1  0.06298598  0.56135515  0.81151489  1
  Zn  Zn172  1  0.56281951  0.06673403  0.31113496  1
  Zn  Zn173  1  0.56116127  0.06098079  0.81201188  1
  Zn  Zn174  1  0.56312142  0.56406943  0.31378428  1
  Zn  Zn175  1  0.56362668  0.56227559  0.81182979  1
  Zn  Zn176  1  0.43778385  0.18782959  0.43807481  1
  Zn  Zn177  1  0.43621098  0.18668769  0.93868359  1
  Zn  Zn178  1  0.43655385  0.68510965  0.43729897  1
  Zn  Zn179  1  0.43672810  0.68840359  0.93876209  1
  Zn  Zn180  1  0.93736861  0.18767501  0.43718993  1
  Zn  Zn181  1  0.93665685  0.18615481  0.93548474  1
  Zn  Zn182  1  0.93917466  0.68801788  0.43729597  1
  Zn  Zn183  1  0.93748194  0.68679526  0.93899307  1
  Zn  Zn184  1  0.06262880  0.31122238  0.06260447  1
  Zn  Zn185  1  0.06434374  0.31243441  0.56359940  1
  Zn  Zn186  1  0.06312296  0.81372764  0.06328194  1
  Zn  Zn187  1  0.06265880  0.81040323  0.56301121  1
  Zn  Zn188  1  0.56280020  0.31178197  0.06214517  1
  Zn  Zn189  1  0.56168818  0.31326394  0.56214459  1
  Zn  Zn190  1  0.56278250  0.81440650  0.06382745  1
  Zn  Zn191  1  0.56022590  0.81174326  0.55933715  1
  O  O192  1  0.12335039  0.12452008  0.11100911  1
  O  O193  1  0.11556834  0.12536434  0.61952853  1
  O  O194  1  0.12251626  0.61796826  0.11692574  1
  O  O195  1  0.11536507  0.61925032  0.62609788  1
  O  O196  1  0.61912403  0.12160766  0.11854328  1
  O  O197  1  0.61936180  0.11827576  0.61936406  1
  O  O198  1  0.62046262  0.61914401  0.11921688  1
  O  O199  1  0.61874912  0.61771323  0.62587859  1
  O  O200  1  0.37545548  0.37573441  0.38696724  1
  O  O201  1  0.38158743  0.38115487  0.88040117  1
  O  O202  1  0.37562557  0.89002473  0.37568817  1
  O  O203  1  0.37900831  0.87871516  0.87999526  1
  O  O204  1  0.88108588  0.37953659  0.38087670  1
  O  O205  1  0.87925968  0.37998923  0.88140300  1
  O  O206  1  0.87584164  0.87474384  0.38958094  1
  O  O207  1  0.87913505  0.87918871  0.88048999  1
  O  O208  1  0.25698979  0.00593552  0.37040336  1
  O  O209  1  0.25514911  0.00419708  0.86898376  1
  O  O210  1  0.24735050  0.49924723  0.36191762  1
  O  O211  1  0.25626234  0.50483231  0.87082368  1
  O  O212  1  0.75275623  0.00212417  0.36311367  1
  O  O213  1  0.75396192  0.00342330  0.86963956  1
  O  O214  1  0.75775288  0.49894849  0.36845163  1
  O  O215  1  0.75429601  0.50432175  0.87137529  1
  O  O216  1  0.24304158  0.49387465  0.13153343  1
  O  O217  1  0.24566294  0.49549388  0.63175829  1
  O  O218  1  0.24782481  0.99456394  0.13158524  1
  O  O219  1  0.24999256  0.98988387  0.63101008  1
  O  O220  1  0.74515997  0.49394874  0.12892093  1
  O  O221  1  0.74607235  0.49357374  0.63118416  1
  O  O222  1  0.74590203  0.99685158  0.13130263  1
  O  O223  1  0.74234639  0.99313666  0.63095179  1
  O  O224  1  0.00503320  0.36926812  0.25572997  1
  O  O225  1  0.00000015  0.36547512  0.75447652  1
  O  O226  1  0.00549958  0.86624024  0.24982594  1
  O  O227  1  0.00633290  0.87261194  0.75616269  1
  O  O228  1  0.50956949  0.37260689  0.25035676  1
  O  O229  1  0.50617661  0.36918712  0.75598071  1
  O  O230  1  0.50353816  0.86528136  0.24996843  1
  O  O231  1  0.50439631  0.86833750  0.75541523  1
  O  O232  1  0.50012827  0.12877551  0.23682193  1
  O  O233  1  0.49932917  0.13113579  0.74331298  1
  O  O234  1  0.50162747  0.63551377  0.24341002  1
  O  O235  1  0.49504351  0.63001894  0.74585964  1
  O  O236  1  0.99060642  0.13143214  0.24873923  1
  O  O237  1  0.99930696  0.13271541  0.74241584  1
  O  O238  1  0.99934745  0.63975143  0.24721828  1
  O  O239  1  0.99724636  0.62434688  0.73892164  1
  O  O240  1  0.36811814  0.25802039  0.00054730  1
  O  O241  1  0.37001333  0.25740945  0.50533352  1
  O  O242  1  0.36715778  0.75630505  0.00081428  1
  O  O243  1  0.37370809  0.75400720  0.50874232  1
  O  O244  1  0.86928551  0.25493949  0.00398932  1
  O  O245  1  0.86975749  0.25565823  0.50513944  1
  O  O246  1  0.86918330  0.75645004  0.00492743  1
  O  O247  1  0.86978798  0.75733329  0.50616636  1
  O  O248  1  0.13082353  0.24536184  0.49461201  1
  O  O249  1  0.13018330  0.24094896  0.99748923  1
  O  O250  1  0.12590791  0.75136463  0.48707567  1
  O  O251  1  0.13020097  0.74432479  0.99464215  1
  O  O252  1  0.63038893  0.24602706  0.49386285  1
  O  O253  1  0.63146057  0.24528024  0.99296783  1
  O  O254  1  0.63086772  0.75033563  0.49073644  1
  O  O255  1  0.63057629  0.74524811  0.99501838  1
  O  O256  1  0.50029071  0.23937982  0.12464785  1
  O  O257  1  0.49643567  0.24408426  0.63033032  1
  O  O258  1  0.50242993  0.74460113  0.13394238  1
  O  O259  1  0.49530559  0.74462364  0.63156526  1
  O  O260  1  0.99246918  0.24931609  0.13188869  1
  O  O261  1  0.99528198  0.24329389  0.63206206  1
  O  O262  1  0.99452934  0.75167853  0.13397067  1
  O  O263  1  0.99473812  0.73919502  0.62630919  1
  O  O264  1  0.00515020  0.25608061  0.36968739  1
  O  O265  1  -0.00135598  0.25448896  0.86520997  1
  O  O266  1  0.00808977  0.75381931  0.36607934  1
  O  O267  1  0.00587122  0.75573723  0.87518892  1
  O  O268  1  0.51392540  0.25167818  0.37518813  1
  O  O269  1  0.50599451  0.25493691  0.87034899  1
  O  O270  1  0.50856967  0.75110455  0.36644427  1
  O  O271  1  0.50525066  0.75422460  0.86953285  1
  O  O272  1  0.24429647  0.13097180  0.49504949  1
  O  O273  1  0.24264763  0.12934068  0.99445065  1
  O  O274  1  0.24436753  0.63045789  0.49904371  1
  O  O275  1  0.24459465  0.62891637  0.99498775  1
  O  O276  1  0.74357995  0.13199705  0.50128805  1
  O  O277  1  0.74517702  0.13063868  0.99383003  1
  O  O278  1  0.74841152  0.63405383  0.49768303  1
  O  O279  1  0.74418543  0.63076267  0.99575990  1
  O  O280  1  0.25465749  0.37046441  0.00371849  1
  O  O281  1  0.25735644  0.36910563  0.50586392  1
  O  O282  1  0.25368830  0.86919368  0.00417854  1
  O  O283  1  0.25152853  0.87341912  0.51331675  1
  O  O284  1  0.75464040  0.36915231  0.00431360  1
  O  O285  1  0.75674251  0.36931506  0.50729443  1
  O  O286  1  0.75536089  0.86975045  0.00429723  1
  O  O287  1  0.75667952  0.86864480  0.50689845  1
  O  O288  1  0.12968545  0.49394723  0.24427247  1
  O  O289  1  0.13292957  0.49750839  0.74413573  1
  O  O290  1  0.13071846  0.99499189  0.24950236  1
  O  O291  1  0.13194698  0.99141204  0.74821852  1
  O  O292  1  0.63171112  0.49437069  0.24405509  1
  O  O293  1  0.63120649  0.49275806  0.74603926  1
  O  O294  1  0.63619681  1.00244014  0.24373838  1
  O  O295  1  0.62878046  0.99249080  0.74418629  1
  O  O296  1  0.36876792  0.00383705  0.25898016  1
  O  O297  1  0.36749631  0.00099238  0.75719010  1
  O  O298  1  0.36178809  0.49978284  0.25006049  1
  O  O299  1  0.37115652  0.50497691  0.75637387  1
  O  O300  1  0.86683665  0.00900556  0.24678980  1
  O  O301  1  0.86666142  -0.00088997  0.75625872  1
  O  O302  1  0.87008105  0.49908904  0.25634517  1
  O  O303  1  0.86771501  0.49965904  0.75795944  1
  O  O304  1  0.11899201  0.36877632  0.37016571  1
  O  O305  1  0.11615238  0.37177603  0.87246519  1
  O  O306  1  0.12425880  0.86734280  0.36780617  1
  O  O307  1  0.11930911  0.86891507  0.87096461  1
  O  O308  1  0.62639596  0.36547526  0.36930683  1
  O  O309  1  0.62025398  0.36882509  0.87019456  1
  O  O310  1  0.62389090  0.86391335  0.37134314  1
  O  O311  1  0.61928864  0.86867999  0.86977554  1
  O  O312  1  0.38633498  0.12625350  0.12320946  1
  O  O313  1  0.38151262  0.13169647  0.62533985  1
  O  O314  1  0.38429440  0.62852611  0.12827904  1
  O  O315  1  0.38090990  0.62963523  0.63258617  1
  O  O316  1  0.87567729  0.13245724  0.13375603  1
  O  O317  1  0.88397226  0.13124081  0.62688693  1
  O  O318  1  0.87823471  0.63495702  0.12781764  1
  O  O319  1  0.88460015  0.62824255  0.62593085  1
  O  O320  1  0.25018933  0.25748674  0.11722510  1
  O  O321  1  0.25557170  0.25512557  0.61989711  1
  O  O322  1  0.25023964  0.75721666  0.11886817  1
  O  O323  1  0.25595980  0.75942322  0.62823296  1
  O  O324  1  0.75458579  0.25577499  0.11841521  1
  O  O325  1  0.75496108  0.25500612  0.62139418  1
  O  O326  1  0.75435878  0.75658667  0.12016465  1
  O  O327  1  0.75403930  0.75445519  0.62045703  1
  O  O328  1  0.24338361  0.24534753  0.38082924  1
  O  O329  1  0.24888507  0.24338758  0.88055833  1
  O  O330  1  0.23898354  0.75114173  0.37235473  1
  O  O331  1  0.24433424  0.74343873  0.88082528  1
  O  O332  1  0.74027120  0.24952857  0.38197777  1
  O  O333  1  0.74495362  0.24429869  0.87892284  1
  O  O334  1  0.74197880  0.75087877  0.37975545  1
  O  O335  1  0.74402597  0.74511034  0.88120464  1
  O  O336  1  0.00845392  0.12037968  -0.00201526  1
  O  O337  1  0.00432837  0.12797485  0.51094918  1
  O  O338  1  0.00670075  0.61719426  0.00093901  1
  O  O339  1  0.00240126  0.61885741  0.51133894  1
  O  O340  1  0.50700910  0.12378501  0.00762229  1
  O  O341  1  0.50663500  0.11968999  0.50603634  1
  O  O342  1  0.50602902  0.62013773  0.00459095  1
  O  O343  1  0.50346752  0.62270760  0.51024452  1
  O  O344  1  0.48862022  0.37633339  0.50006302  1
  O  O345  1  0.49612052  0.38102587  0.99432826  1
  O  O346  1  0.49719403  0.88499397  0.49628244  1
  O  O347  1  0.49337302  0.87522057  0.99332184  1
  O  O348  1  0.99520318  0.37922406  0.49534628  1
  O  O349  1  0.99374224  0.37912234  0.99462196  1
  O  O350  1  0.98764398  0.87647907  0.50412780  1
  O  O351  1  0.99465566  0.88039347  0.99369886  1
  O  O352  1  0.49861686  0.49630309  0.37813345  1
  O  O353  1  0.49614052  0.49465406  0.88051441  1
  O  O354  1  0.49199561  1.00267005  0.37840842  1
  O  O355  1  0.49361595  0.99211105  0.87602722  1
  O  O356  1  0.99669107  0.49421991  0.37990175  1
  O  O357  1  0.99422528  0.49412952  0.88021631  1
  O  O358  1  0.99275079  0.99603070  0.37988679  1
  O  O359  1  0.99364896  0.99340375  0.87874726  1
  O  O360  1  0.00234101  0.00407504  0.11472018  1
  O  O361  1  0.00054079  0.01297586  0.62566602  1
  O  O362  1  0.00584166  0.49953941  0.11805227  1
  O  O363  1  0.00449347  0.50562446  0.62062782  1
  O  O364  1  0.50688293  0.00957499  0.12321700  1
  O  O365  1  0.50456829  0.00435784  0.61986373  1
  O  O366  1  0.50661608  0.50505693  0.11944298  1
  O  O367  1  0.50774342  0.50577212  0.62574713  1
  O  O368  1  0.24284060  0.38201581  0.24432564  1
  O  O369  1  0.25115942  0.38106451  0.74398421  1
  O  O370  1  0.24435927  0.88207982  0.24360713  1
  O  O371  1  0.24466990  0.87912440  0.74295578  1
  O  O372  1  0.74480403  0.38031736  0.24281747  1
  O  O373  1  0.74501154  0.37887089  0.74525703  1
  O  O374  1  0.75159714  0.88716142  0.24289337  1
  O  O375  1  0.74244464  0.87842046  0.74503716  1
  O  O376  1  0.24886276  0.11945588  0.25675209  1
  O  O377  1  0.25049981  0.11863311  0.75608990  1
  O  O378  1  0.24845562  0.61268061  0.24837617  1
  O  O379  1  0.25637588  0.61906198  0.75673067  1
  O  O380  1  0.75856651  0.11760491  0.24862571  1
  O  O381  1  0.75026091  0.11689139  0.75562579  1
  O  O382  1  0.75352287  0.61584793  0.25219780  1
  O  O383  1  0.75030742  0.61750824  0.75844391  1
  O  O384  1  0.36864233  0.11684794  0.37463024  1
  O  O385  1  0.36830861  0.11799397  0.87423906  1
  O  O386  1  0.36932234  0.62184808  0.37028793  1
  O  O387  1  0.37015934  0.61948423  0.87054782  1
  O  O388  1  0.87164127  0.12571445  0.36299192  1
  O  O389  1  0.86734486  0.11701887  0.87298767  1
  O  O390  1  0.87509913  0.61658590  0.37293970  1
  O  O391  1  0.86773492  0.61795934  0.87603697  1
  O  O392  1  0.13016582  0.38000616  0.12986257  1
  O  O393  1  0.13281480  0.38104245  0.62682785  1
  O  O394  1  0.13201005  0.87782084  0.13094766  1
  O  O395  1  0.13418210  0.87361768  0.63151315  1
  O  O396  1  0.63101066  0.38033860  0.12867349  1
  O  O397  1  0.63115119  0.37868069  0.63131631  1
  O  O398  1  0.63273571  0.88324476  0.12555694  1
  O  O399  1  0.62859341  0.87888240  0.63023637  1
  O  O400  1  0.11927548  0.25527393  0.25539891  1
  O  O401  1  0.11270830  0.25163852  0.75075334  1
  O  O402  1  0.11775222  0.75658308  0.25543093  1
  O  O403  1  0.12318335  0.75549479  0.75899310  1
  O  O404  1  0.62658787  0.25561153  0.25923023  1
  O  O405  1  0.62026281  0.25510461  0.75503522  1
  O  O406  1  0.61840757  0.75229110  0.25714713  1
  O  O407  1  0.61932638  0.75442915  0.75607215  1
  O  O408  1  0.37782389  0.24689948  0.24575485  1
  O  O409  1  0.38300812  0.24912979  0.74316656  1
  O  O410  1  0.38788539  0.75073733  0.24878355  1
  O  O411  1  0.38066999  0.74336290  0.74587936  1
  O  O412  1  0.87795786  0.24391188  0.24543576  1
  O  O413  1  0.88483552  0.24789423  0.74419264  1
  O  O414  1  0.88403000  0.75336637  0.24520149  1
  O  O415  1  0.87661270  0.74633060  0.74203221  1
  O  O416  1  0.37430577  0.48761560  0.50056975  1
  O  O417  1  0.38080903  0.49529151  0.99441055  1
  O  O418  1  0.38055341  1.00079808  0.48941970  1
  O  O419  1  0.37530614  0.99166543  0.99213136  1
  O  O420  1  0.88152932  0.49285889  0.49520993  1
  O  O421  1  0.87923977  0.49346623  0.99533081  1
  O  O422  1  0.87250985  0.98797373  0.50186731  1
  O  O423  1  0.87935908  0.99475455  0.99369411  1
  O  O424  1  0.11952528  0.00978320  -0.00139021  1
  O  O425  1  0.12206480  0.00849228  0.50339885  1
  O  O426  1  0.11939241  0.50414622  0.00441692  1
  O  O427  1  0.11833433  0.50019471  0.50741747  1
  O  O428  1  0.62457572  0.00732762  0.00583829  1
  O  O429  1  0.62114162  0.00498744  0.50441522  1
  O  O430  1  0.61998802  0.50537896  0.00565603  1
  O  O431  1  0.62584409  0.50074187  0.50931761  1
  O  O432  1  0.36817978  0.37580530  0.11637069  1
  O  O433  1  0.37011004  0.36927254  0.61796828  1
  O  O434  1  0.36770263  0.87395941  0.11802411  1
  O  O435  1  0.36541992  0.86843754  0.62633490  1
  O  O436  1  0.86876030  0.36947987  0.11905900  1
  O  O437  1  0.86998392  0.36961532  0.61979130  1
  O  O438  1  0.86908941  0.87063474  0.11776957  1
  O  O439  1  0.86819484  0.86837274  0.61926040  1
  O  O440  1  0.12933119  0.13128036  0.38080726  1
  O  O441  1  0.13101007  0.12611170  0.88457950  1
  O  O442  1  0.12665765  0.63772918  0.37586000  1
  O  O443  1  0.13094435  0.62852746  0.88062064  1
  O  O444  1  0.62774021  0.13460617  0.38131584  1
  O  O445  1  0.63015959  0.12951625  0.87920570  1
  O  O446  1  0.62875865  0.63881213  0.37635411  1
  O  O447  1  0.62980592  0.63009640  0.88147512  1
