# generated using pymatgen
data_V3Zn3O8
_symmetry_space_group_name_H-M   'P 1'
_cell_length_a   17.08498165
_cell_length_b   17.08452361
_cell_length_c   17.08543630
_cell_angle_alpha   90.01428590
_cell_angle_beta   90.00837495
_cell_angle_gamma   89.99456437
_symmetry_Int_Tables_number   1
_chemical_formula_structural   V3Zn3O8
_chemical_formula_sum   'V96 Zn96 O256'
_cell_volume   4987.04679439
_cell_formula_units_Z   32
loop_
 _symmetry_equiv_pos_site_id
 _symmetry_equiv_pos_as_xyz
  1  'x, y, z'
loop_
 _atom_site_type_symbol
 _atom_site_label
 _atom_site_symmetry_multiplicity
 _atom_site_fract_x
 _atom_site_fract_y
 _atom_site_fract_z
 _atom_site_occupancy
  V  V0  1  0.12488057  0.24775006  0.87429343  1
  V  V1  1  0.62550925  0.62356401  0.00214905  1
  V  V2  1  0.12431819  0.12319897  -0.00174682  1
  V  V3  1  0.49978503  0.12748055  0.62479931  1
  V  V4  1  0.49897628  0.37641068  0.37513462  1
  V  V5  1  0.25086517  0.37426666  0.12402882  1
  V  V6  1  -0.00207990  -0.00156511  -0.00151982  1
  V  V7  1  0.75006043  0.74822525  0.00237631  1
  V  V8  1  0.24932362  0.25109714  0.50143380  1
  V  V9  1  0.62455453  0.25085351  0.37471152  1
  V  V10  1  0.37467107  0.00336714  0.37250925  1
  V  V11  1  0.62524512  0.50036388  0.62553191  1
  V  V12  1  0.37408226  0.62628074  0.25034895  1
  V  V13  1  0.87344054  0.75132542  0.62444847  1
  V  V14  1  0.62527227  0.87587757  0.25015842  1
  V  V15  1  0.74948129  0.62508661  0.37665679  1
  V  V16  1  0.62743936  -0.00107083  0.62636299  1
  V  V17  1  0.62448516  0.50036875  0.12534592  1
  V  V18  1  0.00065705  0.62569520  0.62632109  1
  V  V19  1  0.12452625  0.87581141  0.24963623  1
  V  V20  1  0.37589270  0.62469226  0.75023446  1
  V  V21  1  0.49963562  0.37452915  0.87515839  1
  V  V22  1  0.49895567  0.12595805  0.12341938  1
  V  V23  1  0.62488299  0.75025550  0.37602048  1
  V  V24  1  0.12463030  0.12542936  0.50031013  1
  V  V25  1  0.12408910  0.87370575  0.74970489  1
  V  V26  1  0.25080219  0.12289700  0.87331223  1
  V  V27  1  0.49933790  0.50055192  0.49997255  1
  V  V28  1  -0.00064539  0.62388562  0.12651246  1
  V  V29  1  0.12513422  -0.00098684  0.12389418  1
  V  V30  1  0.37433081  0.75009208  0.12528258  1
  V  V31  1  0.49937685  0.75168970  0.25002000  1
  V  V32  1  0.49862274  0.25034063  0.24840750  1
  V  V33  1  0.00045209  0.49796128  -0.00022641  1
  V  V34  1  0.87576146  0.37438308  0.00043444  1
  V  V35  1  0.62517121  0.74892210  0.87550258  1
  V  V36  1  0.87525684  0.49967383  0.37711105  1
  V  V37  1  0.37497144  0.25018823  0.62564798  1
  V  V38  1  0.87146924  0.12174093  0.75116589  1
  V  V39  1  0.24907646  0.62676978  0.37604298  1
  V  V40  1  0.24997149  0.49995988  0.75090878  1
  V  V41  1  0.62606485  0.24963112  0.87528220  1
  V  V42  1  0.37611986  0.87465738  -0.00111194  1
  V  V43  1  0.50083327  0.75017074  0.75059578  1
  V  V44  1  0.74978975  0.37399924  0.12543300  1
  V  V45  1  0.75023778  0.12491299  0.37337907  1
  V  V46  1  0.75042484  0.37601827  0.62509667  1
  V  V47  1  0.62476932  0.62574318  0.49952199  1
  V  V48  1  0.00015718  0.12397457  0.62338305  1
  V  V49  1  0.00067121  0.00110007  0.49873179  1
  V  V50  1  -0.00054905  0.24873801  0.74947550  1
  V  V51  1  0.12488612  0.75029405  0.87524731  1
  V  V52  1  0.12557109  0.49991344  0.12524012  1
  V  V53  1  0.37429942  0.37283062  0.00031494  1
  V  V54  1  0.87453885  0.87442473  0.50022062  1
  V  V55  1  0.12506087  0.62437687  0.00079593  1
  V  V56  1  0.49992022  0.25041282  0.74959818  1
  V  V57  1  0.37271894  0.87526000  0.50051000  1
  V  V58  1  0.25038996  0.74947562  0.00085680  1
  V  V59  1  0.87611925  0.37591602  0.50005420  1
  V  V60  1  0.50025252  0.62472836  0.12551062  1
  V  V61  1  0.00076563  0.87502065  0.37408464  1
  V  V62  1  0.62461441  0.37529624  0.25019321  1
  V  V63  1  0.12518306  0.37534481  0.25051612  1
  V  V64  1  0.74984092  -0.00031872  0.25026428  1
  V  V65  1  0.24888739  0.87586504  0.12490465  1
  V  V66  1  0.62470593  0.12649565  0.49926622  1
  V  V67  1  0.25095370  -0.00185386  0.74749110  1
  V  V68  1  0.87472679  0.00010606  0.37403373  1
  V  V69  1  0.75044254  0.25096639  0.49918823  1
  V  V70  1  0.00015798  0.12506098  0.12486493  1
  V  V71  1  0.74959208  0.87427479  0.12630361  1
  V  V72  1  0.49989077  0.00255357  0.49857298  1
  V  V73  1  0.24996093  0.12752802  0.37265126  1
  V  V74  1  0.24969659  0.50073688  0.25027223  1
  V  V75  1  0.87484822  0.24981089  0.62441932  1
  V  V76  1  -0.00028986  0.49989232  0.50098334  1
  V  V77  1  0.50092008  -0.00095706  -0.00172465  1
  V  V78  1  0.25060660  0.62447654  0.87596126  1
  V  V79  1  0.49981915  0.62492776  0.62544246  1
  V  V80  1  0.49958438  0.87754027  0.37353064  1
  V  V81  1  0.12456812  0.37449785  0.75044110  1
  V  V82  1  0.75065718  0.49967425  0.75189242  1
  V  V83  1  0.25022063  0.37469728  0.62512148  1
  V  V84  1  0.00025093  0.37431112  0.87566451  1
  V  V85  1  0.87570046  0.62568174  0.75219414  1
  V  V86  1  0.37610589  0.49905878  0.87528572  1
  V  V87  1  0.87503543  0.87383794  -0.00063620  1
  V  V88  1  0.12482742  0.75091333  0.37577577  1
  V  V89  1  0.87608775  0.62424555  0.25084678  1
  V  V90  1  0.00056716  0.25034942  0.24970899  1
  V  V91  1  0.74993580  0.49910567  0.25151608  1
  V  V92  1  0.12544207  0.50124094  0.62623450  1
  V  V93  1  0.37502285  0.50115215  0.37579389  1
  V  V94  1  0.12600918  0.62671759  0.50093226  1
  V  V95  1  0.74994957  0.24767374  0.00061035  1
  Zn  Zn96  1  0.74891128  0.87507762  0.62566616  1
  Zn  Zn97  1  0.74856382  -0.00438743  0.75373218  1
  Zn  Zn98  1  0.62671391  0.87437053  0.74865378  1
  Zn  Zn99  1  0.62529399  -0.00030926  0.12420548  1
  Zn  Zn100  1  0.62687121  0.12065572  -0.00091843  1
  Zn  Zn101  1  0.50031947  0.87695398  0.87299884  1
  Zn  Zn102  1  0.24960713  0.87307007  0.62347165  1
  Zn  Zn103  1  -0.00126643  0.74961467  0.24976588  1
  Zn  Zn104  1  0.37264879  0.24964982  0.12556397  1
  Zn  Zn105  1  0.50115473  0.49953626  0.00045339  1
  Zn  Zn106  1  0.25068190  0.75137689  0.50246300  1
  Zn  Zn107  1  0.75004871  0.12150431  0.87602575  1
  Zn  Zn108  1  0.37427805  0.37610764  0.50057411  1
  Zn  Zn109  1  -0.00226830  0.87431710  0.87452630  1
  Zn  Zn110  1  0.74809046  0.75173891  0.50070863  1
  Zn  Zn111  1  0.37825656  -0.00204564  0.87132012  1
  Zn  Zn112  1  0.37592810  0.12262959  0.74910406  1
  Zn  Zn113  1  0.87571882  0.49978018  0.87601257  1
  Zn  Zn114  1  0.75204156  0.62284717  0.87910312  1
  Zn  Zn115  1  0.37333174  0.12697842  0.24729314  1
  Zn  Zn116  1  0.00153679  0.37448227  0.37562364  1
  Zn  Zn117  1  0.87402050  0.24779996  0.12591359  1
  Zn  Zn118  1  0.12522635  -0.00237803  0.62304724  1
  Zn  Zn119  1  0.87500184  0.12556297  0.24876486  1
  Zn  Zn120  1  0.87118644  -0.00131353  0.87432730  1
  Zn  Zn121  1  0.12470489  0.25317690  0.37667438  1
  Zn  Zn122  1  0.25072006  0.00312363  0.24723041  1
  Zn  Zn123  1  0.37480366  0.75090468  0.62427739  1
  Zn  Zn124  1  -0.00057327  0.75146378  0.75311437  1
  Zn  Zn125  1  0.24938958  0.24736953  0.00109146  1
  Zn  Zn126  1  0.62513561  0.37584841  0.75018021  1
  Zn  Zn127  1  0.87621650  0.74802660  0.12729200  1
  Zn  Zn128  1  0.18587398  0.18957581  0.18583099  1
  Zn  Zn129  1  0.18647591  0.18597409  0.68620232  1
  Zn  Zn130  1  0.18555718  0.68942190  0.18891855  1
  Zn  Zn131  1  0.19125476  0.69122790  0.68645127  1
  Zn  Zn132  1  0.68405642  0.18547436  0.18678005  1
  Zn  Zn133  1  0.68701052  0.18784379  0.68736572  1
  Zn  Zn134  1  0.68856325  0.68786178  0.18920442  1
  Zn  Zn135  1  0.68870528  0.68582003  0.68729704  1
  Zn  Zn136  1  0.31395077  0.31287431  0.31188837  1
  Zn  Zn137  1  0.31284493  0.30997853  0.81198870  1
  Zn  Zn138  1  0.31000082  0.81461579  0.31294873  1
  Zn  Zn139  1  0.31349981  0.81271050  0.81458133  1
  Zn  Zn140  1  0.81481359  0.31220122  0.31274323  1
  Zn  Zn141  1  0.81403235  0.31189731  0.81349531  1
  Zn  Zn142  1  0.81303545  0.81091253  0.31272803  1
  Zn  Zn143  1  0.80692421  0.81363599  0.81271060  1
  Zn  Zn144  1  0.18682187  0.43807799  0.43775882  1
  Zn  Zn145  1  0.18802434  0.43658795  0.93748450  1
  Zn  Zn146  1  0.18774669  0.94060489  0.43496468  1
  Zn  Zn147  1  0.18742699  0.93720502  0.93611644  1
  Zn  Zn148  1  0.68665375  0.43808091  0.43827099  1
  Zn  Zn149  1  0.68783953  0.43577240  0.93820543  1
  Zn  Zn150  1  0.68891995  0.93738587  0.43892477  1
  Zn  Zn151  1  0.68847586  0.93603917  0.93632751  1
  Zn  Zn152  1  0.31435290  0.06057698  0.05981771  1
  Zn  Zn153  1  0.31226511  0.06325254  0.56216649  1
  Zn  Zn154  1  0.31345265  0.56049502  0.06252838  1
  Zn  Zn155  1  0.31293507  0.56357223  0.56284970  1
  Zn  Zn156  1  0.81425298  0.06115269  0.06542239  1
  Zn  Zn157  1  0.81254773  0.06281654  0.56131334  1
  Zn  Zn158  1  0.81341317  0.56059947  0.06445613  1
  Zn  Zn159  1  0.81194812  0.56396490  0.56349297  1
  Zn  Zn160  1  0.43694466  0.43852344  0.18770415  1
  Zn  Zn161  1  0.43749314  0.43612901  0.68823138  1
  Zn  Zn162  1  0.43525908  0.94055760  0.18634015  1
  Zn  Zn163  1  0.44001434  0.93749919  0.68594277  1
  Zn  Zn164  1  0.93662094  0.43593240  0.18690009  1
  Zn  Zn165  1  0.93762153  0.43757091  0.68726353  1
  Zn  Zn166  1  0.93707236  0.93735525  0.18665871  1
  Zn  Zn167  1  0.93933185  0.93783269  0.68652133  1
  Zn  Zn168  1  0.06445710  0.06325066  0.31160547  1
  Zn  Zn169  1  0.06030092  0.05838937  0.81257972  1
  Zn  Zn170  1  0.06157643  0.56238081  0.31432030  1
  Zn  Zn171  1  0.06230830  0.56239803  0.81412973  1
  Zn  Zn172  1  0.56254865  0.06392039  0.30985653  1
  Zn  Zn173  1  0.56337159  0.06550927  0.81174597  1
  Zn  Zn174  1  0.56194983  0.56344207  0.31254507  1
  Zn  Zn175  1  0.56278947  0.56302963  0.81438382  1
  Zn  Zn176  1  0.43548423  0.19042004  0.43834641  1
  Zn  Zn177  1  0.43657910  0.18600656  0.93585916  1
  Zn  Zn178  1  0.43810609  0.68903522  0.43685823  1
  Zn  Zn179  1  0.43895079  0.68630137  0.93830729  1
  Zn  Zn180  1  0.93754324  0.18767053  0.43466995  1
  Zn  Zn181  1  0.93683183  0.18684014  0.93679438  1
  Zn  Zn182  1  0.93870837  0.68802452  0.43800495  1
  Zn  Zn183  1  0.93900217  0.68890911  0.93830140  1
  Zn  Zn184  1  0.06435202  0.31035250  0.06298836  1
  Zn  Zn185  1  0.06290255  0.31182159  0.56301259  1
  Zn  Zn186  1  0.06039165  0.81052864  0.06389431  1
  Zn  Zn187  1  0.06095047  0.81244636  0.56347944  1
  Zn  Zn188  1  0.56236530  0.31214954  0.06170222  1
  Zn  Zn189  1  0.56281744  0.31498407  0.56215203  1
  Zn  Zn190  1  0.56297008  0.81285782  0.06286658  1
  Zn  Zn191  1  0.55934300  0.81369241  0.56132169  1
  O  O192  1  0.12049568  0.11884784  0.11757530  1
  O  O193  1  0.11749373  0.12312542  0.61820596  1
  O  O194  1  0.12105850  0.61878448  0.11995556  1
  O  O195  1  0.12071967  0.62060414  0.62204193  1
  O  O196  1  0.61153079  0.12245842  0.12097060  1
  O  O197  1  0.61966593  0.12000855  0.61811650  1
  O  O198  1  0.61973300  0.62000453  0.12223153  1
  O  O199  1  0.61957320  0.61935788  0.61945436  1
  O  O200  1  0.38125358  0.38369581  0.37642810  1
  O  O201  1  0.37844708  0.37940118  0.88169293  1
  O  O202  1  0.38009631  0.88265003  0.38059310  1
  O  O203  1  0.37940104  0.87634298  0.88390949  1
  O  O204  1  0.87584361  0.38236182  0.38292419  1
  O  O205  1  0.88322525  0.37589090  0.88128648  1
  O  O206  1  0.88060678  0.88018551  0.38013334  1
  O  O207  1  0.87413260  0.87326947  0.88847502  1
  O  O208  1  0.25557780  0.01300239  0.37358360  1
  O  O209  1  0.24980779  0.00808170  0.86553149  1
  O  O210  1  0.25491525  0.50686211  0.36938868  1
  O  O211  1  0.25495367  0.50512307  0.86963403  1
  O  O212  1  0.75489421  0.00552709  0.37043939  1
  O  O213  1  0.75190460  0.00478940  0.87170468  1
  O  O214  1  0.75452582  0.50503989  0.37065800  1
  O  O215  1  0.75171727  0.50018773  0.86390628  1
  O  O216  1  0.24482853  0.49559735  0.13122077  1
  O  O217  1  0.24478869  0.49551198  0.63180494  1
  O  O218  1  0.24318362  0.99372215  0.12342532  1
  O  O219  1  0.24747268  0.99850194  0.63587319  1
  O  O220  1  0.74380458  0.49352501  0.13222683  1
  O  O221  1  0.74554883  0.49604142  0.63285915  1
  O  O222  1  0.74728040  0.99282286  0.13193071  1
  O  O223  1  0.73694962  1.00166967  0.62409823  1
  O  O224  1  0.00624030  0.36692948  0.24935998  1
  O  O225  1  0.00509519  0.36917924  0.75429220  1
  O  O226  1  0.00641053  0.87444267  0.25648263  1
  O  O227  1  0.01132759  0.87412525  0.75270640  1
  O  O228  1  0.50590779  0.37134076  0.25524135  1
  O  O229  1  0.50230877  0.36870398  0.75709129  1
  O  O230  1  0.50411348  0.87087680  0.25429972  1
  O  O231  1  0.50390941  0.86250698  0.75091209  1
  O  O232  1  0.49911585  0.13133310  0.23995240  1
  O  O233  1  0.49847872  0.13309748  0.74281730  1
  O  O234  1  0.49383669  0.63180597  0.24558139  1
  O  O235  1  0.49547846  0.63100538  0.74541865  1
  O  O236  1  1.00191568  0.13454191  0.24393843  1
  O  O237  1  0.99246457  0.12939195  0.74420560  1
  O  O238  1  0.99376699  0.62312614  0.24429934  1
  O  O239  1  0.99080186  0.62436488  0.74486513  1
  O  O240  1  0.37248822  0.26280226  -0.00106588  1
  O  O241  1  0.36794215  0.25359303  0.50792753  1
  O  O242  1  0.36998815  0.75323336  0.00620050  1
  O  O243  1  0.37625983  0.76336240  0.49897779  1
  O  O244  1  0.86493413  0.25523055  0.00051703  1
  O  O245  1  0.86977666  0.25510170  0.50467081  1
  O  O246  1  0.86882997  0.75706085  0.00247144  1
  O  O247  1  0.87468472  0.75434076  0.50961113  1
  O  O248  1  0.13111782  0.24403892  0.49927878  1
  O  O249  1  0.12636073  0.24157033  0.99170391  1
  O  O250  1  0.12575040  0.74403133  0.49430366  1
  O  O251  1  0.13158824  0.74364486  0.99612092  1
  O  O252  1  0.63082912  0.24633942  0.49427005  1
  O  O253  1  0.63403202  0.25081810  0.99167488  1
  O  O254  1  0.62372547  0.74373138  0.49384585  1
  O  O255  1  0.62899014  0.74388339  0.99391983  1
  O  O256  1  0.49918887  0.24194113  0.12882534  1
  O  O257  1  0.49621848  0.24688916  0.62916468  1
  O  O258  1  0.49389652  0.74474603  0.13099159  1
  O  O259  1  0.50008053  0.74348458  0.63520181  1
  O  O260  1  1.00026024  0.24413857  0.13354519  1
  O  O261  1  0.99377066  0.24428449  0.63016503  1
  O  O262  1  0.99817967  0.73902025  0.12820067  1
  O  O263  1  0.98917450  0.74411336  0.62843477  1
  O  O264  1  0.00256991  0.25204662  0.36359520  1
  O  O265  1  0.00571319  0.25460665  0.86903115  1
  O  O266  1  0.00697689  0.75719111  0.37457329  1
  O  O267  1  0.00946781  0.75247572  0.87304965  1
  O  O268  1  0.50555733  0.25595438  0.37013092  1
  O  O269  1  0.50756145  0.25413724  0.87076679  1
  O  O270  1  0.50512661  0.75683932  0.36848545  1
  O  O271  1  0.50884939  0.74682118  0.86655353  1
  O  O272  1  0.24484844  0.13095319  0.49313336  1
  O  O273  1  0.24383693  0.12290395  0.98833493  1
  O  O274  1  0.24352061  0.62531725  0.49353283  1
  O  O275  1  0.24528003  0.62923334  0.99579617  1
  O  O276  1  0.74467959  0.13195423  0.49350542  1
  O  O277  1  0.74867886  0.13635246  1.00037680  1
  O  O278  1  0.74235529  0.62522542  0.49401834  1
  O  O279  1  0.74397306  0.62945022  1.00109878  1
  O  O280  1  0.25854010  0.37392655  0.00406665  1
  O  O281  1  0.24986477  0.36995287  0.50790753  1
  O  O282  1  0.25508232  0.86875541  0.00500690  1
  O  O283  1  0.26178354  0.87743258  0.49852702  1
  O  O284  1  0.75480807  0.36678419  0.00547585  1
  O  O285  1  0.75569019  0.37056543  0.50517671  1
  O  O286  1  0.75664491  0.86857206  0.00630993  1
  O  O287  1  0.75875446  0.87203601  0.50367582  1
  O  O288  1  0.13064772  0.49588421  0.24459182  1
  O  O289  1  0.13046849  0.49493499  0.74579886  1
  O  O290  1  0.12675475  0.99382014  0.24164452  1
  O  O291  1  0.13302205  0.99004218  0.74971347  1
  O  O292  1  0.63057668  0.49486366  0.24600109  1
  O  O293  1  0.63540288  0.50074671  0.74515580  1
  O  O294  1  0.63149574  0.99258520  0.24993997  1
  O  O295  1  0.62326158  1.00073817  0.73693617  1
  O  O296  1  0.37157664  0.00479341  0.25715528  1
  O  O297  1  0.36498591  0.00014399  0.75093067  1
  O  O298  1  0.36929681  0.50692234  0.25546186  1
  O  O299  1  0.36948506  0.50469680  0.75601639  1
  O  O300  1  0.86809978  0.00069023  0.25689659  1
  O  O301  1  0.87401892  0.01100677  0.74867339  1
  O  O302  1  0.86866857  0.50328185  0.25682483  1
  O  O303  1  0.86738266  0.50858162  0.74873947  1
  O  O304  1  0.12296147  0.37415294  0.36661120  1
  O  O305  1  0.12045764  0.36863146  0.86938013  1
  O  O306  1  0.12021637  0.87131758  0.36984882  1
  O  O307  1  0.12571969  0.86804842  0.86597806  1
  O  O308  1  0.61953155  0.37052593  0.36975871  1
  O  O309  1  0.61906430  0.36491755  0.87466835  1
  O  O310  1  0.61875096  0.87054253  0.37073264  1
  O  O311  1  0.62212205  0.85890649  0.87464274  1
  O  O312  1  0.38611518  0.12751765  0.12370872  1
  O  O313  1  0.38210815  0.13179719  0.62553694  1
  O  O314  1  0.37925862  0.63008539  0.13086073  1
  O  O315  1  0.38257382  0.62541790  0.63250674  1
  O  O316  1  0.88436508  0.12752318  0.12848093  1
  O  O317  1  0.88026052  0.13083748  0.63068527  1
  O  O318  1  0.88171114  0.62287969  0.13301964  1
  O  O319  1  0.88012089  0.63170889  0.63262597  1
  O  O320  1  0.25237236  0.25795219  0.12106875  1
  O  O321  1  0.25432113  0.25500112  0.62142353  1
  O  O322  1  0.25514224  0.75489633  0.11988712  1
  O  O323  1  0.25792496  0.75509437  0.62062884  1
  O  O324  1  0.74772953  0.25543229  0.11614787  1
  O  O325  1  0.75486978  0.25584028  0.61840996  1
  O  O326  1  0.75138481  0.75600036  0.11985949  1
  O  O327  1  0.76261232  0.74831062  0.62287358  1
  O  O328  1  0.24987400  0.24260427  0.38137059  1
  O  O329  1  0.24328094  0.23804148  0.87272777  1
  O  O330  1  0.24320656  0.74375158  0.37713386  1
  O  O331  1  0.24552519  0.74312907  0.88175736  1
  O  O332  1  0.74430554  0.24592659  0.37975363  1
  O  O333  1  0.74224108  0.25140403  0.88392464  1
  O  O334  1  0.74237666  0.74279855  0.37691167  1
  O  O335  1  0.73984685  0.74562706  0.88194653  1
  O  O336  1  0.00482686  0.11942098  0.00432722  1
  O  O337  1  0.00459331  0.12096886  0.50353973  1
  O  O338  1  0.00614022  0.61780241  0.00517755  1
  O  O339  1  0.00585281  0.61925990  0.50689589  1
  O  O340  1  0.49981246  0.11683995  0.00616391  1
  O  O341  1  0.50579866  0.12214424  0.50428310  1
  O  O342  1  0.50622585  0.62283751  0.00836861  1
  O  O343  1  0.50507079  0.62008560  0.50477010  1
  O  O344  1  0.49921555  0.38300417  0.49286435  1
  O  O345  1  0.49061617  0.37618572  0.99439837  1
  O  O346  1  0.49229278  0.88266169  0.49228148  1
  O  O347  1  0.49459190  0.88336992  1.00092441  1
  O  O348  1  0.99364690  0.38166630  0.50125791  1
  O  O349  1  0.99630069  0.37836094  0.99564744  1
  O  O350  1  0.99467176  0.88131159  0.49379060  1
  O  O351  1  0.99004881  0.87916406  1.00128030  1
  O  O352  1  0.49487785  0.49630959  0.37959155  1
  O  O353  1  0.49411350  0.49324499  0.87612520  1
  O  O354  1  0.49510827  0.99736317  0.37939670  1
  O  O355  1  0.49990629  0.99985245  0.88456141  1
  O  O356  1  0.99294565  0.49895619  0.38371704  1
  O  O357  1  1.00031900  0.49190370  0.88195909  1
  O  O358  1  0.99484206  0.99545125  0.37952051  1
  O  O359  1  0.99471555  0.99542482  0.88374279  1
  O  O360  1  0.00578677  0.00511003  0.11849232  1
  O  O361  1  0.00129883  0.00676851  0.61607222  1
  O  O362  1  0.00680221  0.50329885  0.11919191  1
  O  O363  1  0.00622035  0.50541751  0.62082441  1
  O  O364  1  0.50033616  0.00808835  0.11613250  1
  O  O365  1  0.50775234  0.00749957  0.61828966  1
  O  O366  1  0.50692292  0.50713156  0.12559347  1
  O  O367  1  0.50545242  0.50504690  0.62081970  1
  O  O368  1  0.24583167  0.38162644  0.24440929  1
  O  O369  1  0.24392396  0.38026955  0.74603195  1
  O  O370  1  0.24298951  0.87765303  0.24248620  1
  O  O371  1  0.24295310  0.88292494  0.75111594  1
  O  O372  1  0.74416607  0.37929877  0.24609618  1
  O  O373  1  0.75198749  0.38489178  0.74407728  1
  O  O374  1  0.74490891  0.87976223  0.24665288  1
  O  O375  1  0.74383681  0.87755792  0.74308986  1
  O  O376  1  0.25058558  0.12660180  0.26016954  1
  O  O377  1  0.24750921  0.11474379  0.75721586  1
  O  O378  1  0.25488279  0.62039347  0.25514894  1
  O  O379  1  0.25559136  0.61929435  0.75655084  1
  O  O380  1  0.74960354  0.11919398  0.25610881  1
  O  O381  1  0.76229483  0.12613432  0.74931854  1
  O  O382  1  0.75454306  0.61772850  0.25678714  1
  O  O383  1  0.75960439  0.61537518  0.74972678  1
  O  O384  1  0.36543358  0.12181286  0.37545292  1
  O  O385  1  0.36262134  0.12260560  0.87179140  1
  O  O386  1  0.37015773  0.62111250  0.36907780  1
  O  O387  1  0.36994104  0.61880893  0.87104173  1
  O  O388  1  0.86760215  0.11810069  0.37307489  1
  O  O389  1  0.87346812  0.12515118  0.86233593  1
  O  O390  1  0.86961008  0.61848637  0.37204276  1
  O  O391  1  0.87428018  0.62310555  0.86395439  1
  O  O392  1  0.13134926  0.38152082  0.12920583  1
  O  O393  1  0.13003309  0.38098929  0.63184593  1
  O  O394  1  0.12992557  0.87939628  0.12879535  1
  O  O395  1  0.12695141  0.87541284  0.63622498  1
  O  O396  1  0.62930441  0.38041927  0.13108997  1
  O  O397  1  0.63265529  0.38261866  0.62638681  1
  O  O398  1  0.63125207  0.87492362  0.13309656  1
  O  O399  1  0.62377357  0.88759834  0.62269013  1
  O  O400  1  0.11559500  0.25696620  0.25041965  1
  O  O401  1  0.11861612  0.25477950  0.75407192  1
  O  O402  1  0.12267224  0.75743065  0.25747866  1
  O  O403  1  0.12617464  0.75828564  0.75616863  1
  O  O404  1  0.61923543  0.25638648  0.25584684  1
  O  O405  1  0.62067689  0.25283373  0.75903052  1
  O  O406  1  0.61863975  0.75547772  0.25644160  1
  O  O407  1  0.61683403  0.74488134  0.75824202  1
  O  O408  1  0.38409976  0.24916574  0.24643119  1
  O  O409  1  0.38172699  0.24763267  0.74325974  1
  O  O410  1  0.37961604  0.74600773  0.24510617  1
  O  O411  1  0.38594689  0.74320087  0.75224522  1
  O  O412  1  0.88666104  0.24898425  0.24782362  1
  O  O413  1  0.88024636  0.24316164  0.74378781  1
  O  O414  1  0.87738751  0.74012786  0.24901990  1
  O  O415  1  0.87458392  0.74093368  0.74315065  1
  O  O416  1  0.38169698  0.50020859  0.49355168  1
  O  O417  1  0.37612378  0.48962146  0.99393477  1
  O  O418  1  0.38073281  0.99478449  0.49343625  1
  O  O419  1  0.38530598  0.99306551  0.99735185  1
  O  O420  1  0.87980635  0.49578129  0.49746266  1
  O  O421  1  0.88183340  0.49265449  0.99863011  1
  O  O422  1  0.88051062  0.99495997  0.49388441  1
  O  O423  1  0.87942295  0.98902137  1.00037761  1
  O  O424  1  0.11843374  0.00356120  0.00433689  1
  O  O425  1  0.11801443  0.00684017  0.50035835  1
  O  O426  1  0.12083635  0.50468383  0.00546813  1
  O  O427  1  0.12000626  0.50650041  0.50730793  1
  O  O428  1  0.61361367  -0.00044935  0.00165616  1
  O  O429  1  0.61931210  0.00706150  0.50556101  1
  O  O430  1  0.62460574  0.50477196  0.00740192  1
  O  O431  1  0.61897895  0.50608622  0.50525332  1
  O  O432  1  0.37007693  0.37659134  0.11526255  1
  O  O433  1  0.36745484  0.36931352  0.62426040  1
  O  O434  1  0.36904716  0.86888101  0.11966455  1
  O  O435  1  0.37672695  0.87599982  0.61069877  1
  O  O436  1  0.86709783  0.37223194  0.11857844  1
  O  O437  1  0.86999320  0.36950212  0.61963053  1
  O  O438  1  0.86905783  0.87245400  0.11538441  1
  O  O439  1  0.87656126  0.86494701  0.61991679  1
  O  O440  1  0.13508040  0.12752932  0.38109350  1
  O  O441  1  0.13155896  0.12786548  0.87814426  1
  O  O442  1  0.12981626  0.62993212  0.38101429  1
  O  O443  1  0.13140290  0.62909170  0.88122967  1
  O  O444  1  0.62967917  0.13174324  0.38004373  1
  O  O445  1  0.62690874  0.13931954  0.87741131  1
  O  O446  1  0.62911789  0.63025054  0.37986937  1
  O  O447  1  0.62630511  0.63343257  0.88268739  1
