# generated using pymatgen
data_V3Zn3O8
_symmetry_space_group_name_H-M   'P 1'
_cell_length_a   17.08660791
_cell_length_b   17.08749938
_cell_length_c   17.08636733
_cell_angle_alpha   90.00628506
_cell_angle_beta   89.98894032
_cell_angle_gamma   90.01036259
_symmetry_Int_Tables_number   1
_chemical_formula_structural   V3Zn3O8
_chemical_formula_sum   'V96 Zn96 O256'
_cell_volume   4988.66207463
_cell_formula_units_Z   32
loop_
 _symmetry_equiv_pos_site_id
 _symmetry_equiv_pos_as_xyz
  1  'x, y, z'
loop_
 _atom_site_type_symbol
 _atom_site_label
 _atom_site_symmetry_multiplicity
 _atom_site_fract_x
 _atom_site_fract_y
 _atom_site_fract_z
 _atom_site_occupancy
  V  V0  1  0.87456863  0.75019131  0.12448165  1
  V  V1  1  0.37543715  0.62496420  0.24972901  1
  V  V2  1  0.62508721  0.12552203  -0.00057185  1
  V  V3  1  0.62449312  0.62417460  -0.00001185  1
  V  V4  1  0.12480230  0.37586060  0.25054893  1
  V  V5  1  0.12583795  0.74972019  0.87492477  1
  V  V6  1  0.25050340  0.37480780  0.12506013  1
  V  V7  1  0.75029968  0.62426962  0.87427346  1
  V  V8  1  0.00048262  0.87565562  0.87593159  1
  V  V9  1  0.24931065  0.62611214  0.37454369  1
  V  V10  1  0.75039670  0.00079927  0.25047273  1
  V  V11  1  0.75086222  0.49866154  0.74891193  1
  V  V12  1  -0.00030047  0.12413326  0.62434030  1
  V  V13  1  0.50061681  0.62457607  0.62515680  1
  V  V14  1  0.87439470  0.25126470  0.12422661  1
  V  V15  1  0.87503751  0.12434405  0.74983870  1
  V  V16  1  0.62272900  0.00035943  0.12505246  1
  V  V17  1  0.74879885  0.49983267  0.24965426  1
  V  V18  1  0.75092216  -0.00059271  0.75048147  1
  V  V19  1  0.87526696  0.62488139  0.74989416  1
  V  V20  1  0.25010850  0.12440148  0.87620154  1
  V  V21  1  0.00097438  0.75027242  0.75001878  1
  V  V22  1  0.37526461  0.74999652  0.12635126  1
  V  V23  1  0.87398776  0.50039442  0.37365280  1
  V  V24  1  0.37376754  0.25046187  0.62567478  1
  V  V25  1  0.62587338  0.49940379  0.62452901  1
  V  V26  1  0.37485138  0.12505118  0.75081826  1
  V  V27  1  0.25125491  0.62475059  0.87422924  1
  V  V28  1  0.12432911  0.25023095  0.37603518  1
  V  V29  1  0.24982848  0.50047094  0.25047656  1
  V  V30  1  -0.00075169  0.12592005  0.12465291  1
  V  V31  1  0.87627904  0.49944342  0.87545399  1
  V  V32  1  0.87473921  0.37414977  0.49909247  1
  V  V33  1  0.87571966  0.87498045  0.49918150  1
  V  V34  1  0.00060764  0.50056059  0.00014917  1
  V  V35  1  0.25074532  0.75074826  0.00067558  1
  V  V36  1  0.12433687  0.87573592  0.24927788  1
  V  V37  1  0.50028985  0.37434638  0.87488215  1
  V  V38  1  0.25290327  0.75251589  0.50025058  1
  V  V39  1  0.12607944  -0.00099611  0.62520887  1
  V  V40  1  0.62404998  0.87472917  0.25088128  1
  V  V41  1  0.37365367  0.25007954  0.12354985  1
  V  V42  1  0.74931917  0.37546026  0.12436897  1
  V  V43  1  0.62471338  0.75004601  0.37414267  1
  V  V44  1  0.12420956  0.12582653  0.49953508  1
  V  V45  1  0.37514032  0.50096351  0.87484135  1
  V  V46  1  0.24915504  0.87714211  0.12627107  1
  V  V47  1  0.25001515  -0.00091955  0.74996693  1
  V  V48  1  0.74995420  0.37452800  0.62493572  1
  V  V49  1  -0.00057086  0.87509749  0.37507134  1
  V  V50  1  0.37577695  0.62526051  0.74958853  1
  V  V51  1  0.12531868  0.62452155  0.00029017  1
  V  V52  1  -0.00069062  0.25009229  0.24889708  1
  V  V53  1  0.62609923  0.87435187  0.75056038  1
  V  V54  1  0.87535724  0.37620877  -0.00012196  1
  V  V55  1  0.49993394  0.87498651  0.87614525  1
  V  V56  1  0.24885301  0.25036841  0.50086770  1
  V  V57  1  0.74958986  0.24913116  0.49922516  1
  V  V58  1  0.87504910  0.24884881  0.62423336  1
  V  V59  1  0.12493584  0.50091678  0.12489246  1
  V  V60  1  0.37186396  0.12426190  0.25133541  1
  V  V61  1  0.50068444  0.24915406  0.75047628  1
  V  V62  1  0.50012457  0.25137276  0.25175815  1
  V  V63  1  0.12595999  0.49963380  0.62663321  1
  V  V64  1  -0.00037204  0.00070445  0.00025866  1
  V  V65  1  0.62409299  0.25015816  0.37488429  1
  V  V66  1  -0.00165883  0.75001728  0.24944353  1
  V  V67  1  0.75081697  0.75036012  -0.00001603  1
  V  V68  1  -0.00026309  0.50091286  0.49958686  1
  V  V69  1  0.37475606  0.49904114  0.37581091  1
  V  V70  1  0.00076782  0.25019713  0.74982923  1
  V  V71  1  0.62456901  0.62425691  0.50034478  1
  V  V72  1  0.74985948  0.74970822  0.49945033  1
  V  V73  1  0.74991349  0.12541349  0.87558554  1
  V  V74  1  0.62493861  0.00041113  0.62473126  1
  V  V75  1  -0.00030679  0.62486237  0.62400485  1
  V  V76  1  0.12489990  0.75003937  0.37481740  1
  V  V77  1  0.37601434  -0.00167674  0.87604052  1
  V  V78  1  0.12647809  0.87525534  0.74965803  1
  V  V79  1  0.50088502  0.74851507  0.74971157  1
  V  V80  1  0.62585441  0.74949994  0.87529173  1
  V  V81  1  0.87616272  -0.00026148  0.87535315  1
  V  V82  1  0.62416166  0.12365087  0.50180589  1
  V  V83  1  0.00003797  -0.00118433  0.49909036  1
  V  V84  1  0.12474362  0.12495094  0.00057671  1
  V  V85  1  0.37497587  0.37586632  0.50050824  1
  V  V86  1  0.62455878  0.49920616  0.12489868  1
  V  V87  1  0.74987035  0.62410058  0.37400041  1
  V  V88  1  0.75054265  0.87429849  0.62534057  1
  V  V89  1  0.12481548  0.25093174  0.87404734  1
  V  V90  1  0.87567331  0.74984988  0.62488876  1
  V  V91  1  0.37603289  -0.00027454  0.37777757  1
  V  V92  1  0.50029579  0.49968227  -0.00000277  1
  V  V93  1  0.50030201  0.74975154  0.25053436  1
  V  V94  1  0.74980100  0.12488640  0.37399395  1
  V  V95  1  -0.00034488  0.37577770  0.37452851  1
  Zn  Zn96  1  0.49989165  0.49991253  0.49949517  1
  Zn  Zn97  1  0.25033212  0.25078676  -0.00099596  1
  Zn  Zn98  1  0.12655997  0.37591804  0.75070694  1
  Zn  Zn99  1  0.37707529  0.87596906  0.00161942  1
  Zn  Zn100  1  0.74961324  0.25194702  -0.00170042  1
  Zn  Zn101  1  0.24970470  0.49904998  0.75034274  1
  Zn  Zn102  1  0.62694332  0.25014658  0.87514713  1
  Zn  Zn103  1  0.87390582  0.87566968  -0.00045127  1
  Zn  Zn104  1  0.12518838  0.62560868  0.49962789  1
  Zn  Zn105  1  0.24755185  0.00087035  0.25174766  1
  Zn  Zn106  1  0.37640854  0.75210133  0.62378473  1
  Zn  Zn107  1  0.12393417  0.00176680  0.12683661  1
  Zn  Zn108  1  0.87564532  0.62486139  0.24940246  1
  Zn  Zn109  1  0.49842410  -0.00138193  0.00067847  1
  Zn  Zn110  1  0.49967296  0.87568785  0.37857242  1
  Zn  Zn111  1  0.87482750  0.12543432  0.24961911  1
  Zn  Zn112  1  0.25332425  0.87411141  0.62507944  1
  Zn  Zn113  1  0.00113099  0.37601989  0.87334834  1
  Zn  Zn114  1  0.37829055  0.87760902  0.50373407  1
  Zn  Zn115  1  0.62679770  0.37306383  0.74959978  1
  Zn  Zn116  1  0.49819191  0.12487301  0.12275723  1
  Zn  Zn117  1  0.49958529  0.12296205  0.62480786  1
  Zn  Zn118  1  0.00027950  0.62562192  0.12624887  1
  Zn  Zn119  1  0.50191900  0.37724035  0.37623813  1
  Zn  Zn120  1  0.37394461  0.37508166  -0.00016267  1
  Zn  Zn121  1  0.74953516  0.87492857  0.12281008  1
  Zn  Zn122  1  0.49958013  0.62433610  0.12474571  1
  Zn  Zn123  1  0.49957530  -0.00083829  0.50272963  1
  Zn  Zn124  1  0.87538782  0.00095566  0.37349822  1
  Zn  Zn125  1  0.24784343  0.12393599  0.37596262  1
  Zn  Zn126  1  0.62414577  0.37507507  0.25076780  1
  Zn  Zn127  1  0.24931227  0.37659191  0.62861789  1
  Zn  Zn128  1  0.18673666  0.18832837  0.18752541  1
  Zn  Zn129  1  0.18848544  0.18687835  0.68729805  1
  Zn  Zn130  1  0.18736727  0.68877329  0.18764963  1
  Zn  Zn131  1  0.18867644  0.68553693  0.68609103  1
  Zn  Zn132  1  0.68762771  0.18779243  0.18569197  1
  Zn  Zn133  1  0.68700862  0.18688301  0.68774179  1
  Zn  Zn134  1  0.68778837  0.68579884  0.18666054  1
  Zn  Zn135  1  0.68748166  0.68647858  0.68702377  1
  Zn  Zn136  1  0.31096828  0.31250885  0.31463012  1
  Zn  Zn137  1  0.31104916  0.31481814  0.81091157  1
  Zn  Zn138  1  0.31330041  0.81424576  0.31317362  1
  Zn  Zn139  1  0.31436913  0.81241357  0.81196357  1
  Zn  Zn140  1  0.81140192  0.31330886  0.31029684  1
  Zn  Zn141  1  0.81368463  0.31190055  0.81348182  1
  Zn  Zn142  1  0.81185747  0.81391406  0.31110317  1
  Zn  Zn143  1  0.81381698  0.81255741  0.81351796  1
  Zn  Zn144  1  0.18795972  0.43787797  0.44016811  1
  Zn  Zn145  1  0.18938591  0.43617350  0.93869532  1
  Zn  Zn146  1  0.18969277  0.93770243  0.43601806  1
  Zn  Zn147  1  0.18730552  0.93817455  0.93924597  1
  Zn  Zn148  1  0.68632240  0.43640449  0.43695106  1
  Zn  Zn149  1  0.68729483  0.43716995  0.93737615  1
  Zn  Zn150  1  0.68653084  0.93713381  0.43711132  1
  Zn  Zn151  1  0.68822352  0.93719642  0.93848890  1
  Zn  Zn152  1  0.31169493  0.06190173  0.06129439  1
  Zn  Zn153  1  0.31148811  0.06479937  0.56352696  1
  Zn  Zn154  1  0.31322719  0.56265854  0.06174957  1
  Zn  Zn155  1  0.31203773  0.56567633  0.56229672  1
  Zn  Zn156  1  0.81249312  0.06396659  0.06258408  1
  Zn  Zn157  1  0.81197833  0.06124019  0.56131770  1
  Zn  Zn158  1  0.81226953  0.56376160  0.06273457  1
  Zn  Zn159  1  0.81241244  0.56211506  0.56133756  1
  Zn  Zn160  1  0.43763515  0.43696917  0.18745982  1
  Zn  Zn161  1  0.43772269  0.43838185  0.68734464  1
  Zn  Zn162  1  0.43746788  0.93615102  0.19074212  1
  Zn  Zn163  1  0.43787003  0.93578361  0.68706608  1
  Zn  Zn164  1  0.93698015  0.43824859  0.18656689  1
  Zn  Zn165  1  0.93917203  0.43574747  0.68778579  1
  Zn  Zn166  1  0.93670788  0.93651768  0.18550607  1
  Zn  Zn167  1  0.93878765  0.93679414  0.68735277  1
  Zn  Zn168  1  0.06205544  0.06219287  0.31156947  1
  Zn  Zn169  1  0.06290016  0.06315024  0.81257631  1
  Zn  Zn170  1  0.06177614  0.56506871  0.31171810  1
  Zn  Zn171  1  0.06250116  0.56326934  0.81255288  1
  Zn  Zn172  1  0.56000909  0.06460196  0.31360885  1
  Zn  Zn173  1  0.56234274  0.06116338  0.81305117  1
  Zn  Zn174  1  0.56085730  0.56209716  0.31241050  1
  Zn  Zn175  1  0.56343031  0.56093376  0.81122029  1
  Zn  Zn176  1  0.43821193  0.18617931  0.43865975  1
  Zn  Zn177  1  0.43915612  0.18491377  0.93776529  1
  Zn  Zn178  1  0.43802070  0.68670384  0.43689762  1
  Zn  Zn179  1  0.43755465  0.68804493  0.93859624  1
  Zn  Zn180  1  0.93650841  0.18566968  0.43505780  1
  Zn  Zn181  1  0.93753300  0.18853896  0.93833535  1
  Zn  Zn182  1  0.93710767  0.68698026  0.43660862  1
  Zn  Zn183  1  0.93836985  0.68683318  0.93892882  1
  Zn  Zn184  1  0.06215779  0.31344406  0.06093758  1
  Zn  Zn185  1  0.06188461  0.31425774  0.56326587  1
  Zn  Zn186  1  0.06190771  0.81296440  0.06214788  1
  Zn  Zn187  1  0.06559778  0.81257361  0.56170188  1
  Zn  Zn188  1  0.56174142  0.31224509  0.06298028  1
  Zn  Zn189  1  0.56176061  0.31192523  0.56318980  1
  Zn  Zn190  1  0.56215379  0.81284724  0.06324079  1
  Zn  Zn191  1  0.56075867  0.81381930  0.56142762  1
  O  O192  1  0.11799167  0.12573257  0.11869707  1
  O  O193  1  0.11828045  0.11933756  0.61967984  1
  O  O194  1  0.12594283  0.61855977  0.11826007  1
  O  O195  1  0.11670214  0.61681901  0.62344630  1
  O  O196  1  0.62425730  0.11682962  0.11682587  1
  O  O197  1  0.62612776  0.11798158  0.61931061  1
  O  O198  1  0.62372472  0.61752398  0.11713006  1
  O  O199  1  0.62160438  0.61908942  0.61966026  1
  O  O200  1  0.37426345  0.38007068  0.38507997  1
  O  O201  1  0.38563183  0.38035024  0.87600414  1
  O  O202  1  0.37617371  0.88855401  0.37450544  1
  O  O203  1  0.38198916  0.88062241  0.87605687  1
  O  O204  1  0.87987603  0.38006032  0.38020216  1
  O  O205  1  0.87653181  0.38231385  0.88149507  1
  O  O206  1  0.88107835  0.87602069  0.38197043  1
  O  O207  1  0.88299476  0.88187702  0.87450811  1
  O  O208  1  0.26015081  0.00403014  0.37154717  1
  O  O209  1  0.25485698  0.00485614  0.86959786  1
  O  O210  1  0.25408564  0.50529406  0.36942224  1
  O  O211  1  0.25673120  0.50762536  0.87568849  1
  O  O212  1  0.74879605  0.00562964  0.36483445  1
  O  O213  1  0.75611112  0.00470172  0.86892723  1
  O  O214  1  0.75468239  0.50416708  0.37016631  1
  O  O215  1  0.75590162  0.50537617  0.86902128  1
  O  O216  1  0.24512843  0.49481566  0.13120620  1
  O  O217  1  0.23670923  0.50272287  0.62487240  1
  O  O218  1  0.24843998  0.98801242  0.12733319  1
  O  O219  1  0.24262194  1.00015390  0.63250820  1
  O  O220  1  0.74469013  0.49543009  0.12971168  1
  O  O221  1  0.74680004  0.49416635  0.62954984  1
  O  O222  1  0.74008683  1.00044460  0.13347333  1
  O  O223  1  0.74641069  0.99318281  0.63146758  1
  O  O224  1  0.00580935  0.37069538  0.25533570  1
  O  O225  1  0.00268517  0.36514694  0.75231138  1
  O  O226  1  0.00429730  0.86980720  0.25530930  1
  O  O227  1  0.00627659  0.86943091  0.75558821  1
  O  O228  1  0.49928633  0.36187924  0.25279862  1
  O  O229  1  0.50015724  0.36610307  0.75835591  1
  O  O230  1  0.50709500  0.86750142  0.25364371  1
  O  O231  1  0.50790366  0.86802427  0.75614085  1
  O  O232  1  0.48960076  0.13571347  0.24811019  1
  O  O233  1  0.49404571  0.13534570  0.75236324  1
  O  O234  1  0.49273935  0.63131117  0.24780592  1
  O  O235  1  0.49653943  0.62986167  0.74546594  1
  O  O236  1  0.99869535  0.13247741  0.24329174  1
  O  O237  1  0.99405960  0.12907088  0.74343486  1
  O  O238  1  0.99665060  0.63417509  0.24729504  1
  O  O239  1  0.99375872  0.63155302  0.74476668  1
  O  O240  1  0.37565557  0.24834170  0.01370953  1
  O  O241  1  0.36966786  0.25663226  0.50485695  1
  O  O242  1  0.36800220  0.75142553  0.00743577  1
  O  O243  1  0.36370179  0.75100124  0.49826505  1
  O  O244  1  0.87412948  0.25767187  0.00642333  1
  O  O245  1  0.86974930  0.25431030  0.50469683  1
  O  O246  1  0.86976635  0.75037789  0.00736988  1
  O  O247  1  0.86962273  0.75518316  0.50579897  1
  O  O248  1  0.12781309  0.24572894  0.49569927  1
  O  O249  1  0.12492994  0.24375013  0.98975930  1
  O  O250  1  0.13375133  0.74871455  0.49255915  1
  O  O251  1  0.13049699  0.74470051  0.99409807  1
  O  O252  1  0.63115285  0.24438465  0.49595474  1
  O  O253  1  0.62596796  0.23751441  0.99930715  1
  O  O254  1  0.63189358  0.74433905  0.49487373  1
  O  O255  1  0.63047198  0.74409125  0.99437371  1
  O  O256  1  0.49034902  0.24928020  0.13426660  1
  O  O257  1  0.49372301  0.24996616  0.63679490  1
  O  O258  1  0.49345566  0.74855284  0.13218247  1
  O  O259  1  0.50228390  0.74209110  0.63287754  1
  O  O260  1  0.99487073  0.24635614  0.12993297  1
  O  O261  1  0.99419768  0.24336400  0.62868488  1
  O  O262  1  0.99120678  0.74990761  0.12990374  1
  O  O263  1  0.99520840  0.74560120  0.63006932  1
  O  O264  1  0.00439106  0.25666858  0.36992414  1
  O  O265  1  0.00955852  0.24870325  0.86865391  1
  O  O266  1  0.00440862  0.75592837  0.37032441  1
  O  O267  1  0.00590984  0.75448354  0.86935845  1
  O  O268  1  0.50484603  0.24991413  0.36596836  1
  O  O269  1  0.49900328  0.25791137  0.86691447  1
  O  O270  1  0.50788949  0.74941157  0.36795712  1
  O  O271  1  0.50747055  0.75412745  0.86979899  1
  O  O272  1  0.24080618  0.13291678  0.49941327  1
  O  O273  1  0.24293587  0.12718069  0.99374654  1
  O  O274  1  0.24841852  0.63481555  0.49188563  1
  O  O275  1  0.24471628  0.63107391  0.99425830  1
  O  O276  1  0.74512391  0.13064873  0.49465389  1
  O  O277  1  0.74072071  0.12560809  0.99397392  1
  O  O278  1  0.74496287  0.63079636  0.49479892  1
  O  O279  1  0.74425538  0.62967969  0.99261884  1
  O  O280  1  0.25418082  0.37094617  0.00888116  1
  O  O281  1  0.25987754  0.36945875  0.50267256  1
  O  O282  1  0.24966212  0.86890610  0.01030956  1
  O  O283  1  0.25161288  0.86368541  0.50042442  1
  O  O284  1  0.75690922  0.37517987  0.00610787  1
  O  O285  1  0.75607002  0.36842466  0.50492793  1
  O  O286  1  0.75286138  0.86618858  0.00128207  1
  O  O287  1  0.75527161  0.86895011  0.50586173  1
  O  O288  1  0.13024900  0.49498055  0.24540874  1
  O  O289  1  0.12380025  0.49995273  0.73877258  1
  O  O290  1  0.12705716  0.99180321  0.24715414  1
  O  O291  1  0.12983333  0.99535476  0.74532124  1
  O  O292  1  0.63029510  0.49830013  0.24344236  1
  O  O293  1  0.63373734  0.49811498  0.74289689  1
  O  O294  1  0.63122988  0.99749583  0.24350322  1
  O  O295  1  0.63259011  0.99402849  0.74582203  1
  O  O296  1  0.37510622  0.01080942  0.25682923  1
  O  O297  1  0.36948502  0.00569676  0.75605702  1
  O  O298  1  0.36842380  0.50436421  0.25482088  1
  O  O299  1  0.37539776  0.50799378  0.75725167  1
  O  O300  1  0.86127639  0.00037189  0.24915416  1
  O  O301  1  0.87056525  0.00506641  0.75451661  1
  O  O302  1  0.86810561  0.50107950  0.25642053  1
  O  O303  1  0.87083878  0.50574127  0.75439002  1
  O  O304  1  0.11888291  0.37089083  0.37043196  1
  O  O305  1  0.12387991  0.36242325  0.87478783  1
  O  O306  1  0.11891022  0.86944832  0.36915413  1
  O  O307  1  0.12000964  0.86928360  0.86958836  1
  O  O308  1  0.62232701  0.36576442  0.37272591  1
  O  O309  1  0.61271877  0.37334883  0.87269886  1
  O  O310  1  0.62529158  0.86715414  0.36826627  1
  O  O311  1  0.62145409  0.86915670  0.86911998  1
  O  O312  1  0.37496293  0.13253685  0.13380923  1
  O  O313  1  0.37692391  0.13229829  0.63349967  1
  O  O314  1  0.37477639  0.63177129  0.13261445  1
  O  O315  1  0.38288132  0.62697371  0.63157662  1
  O  O316  1  0.88126606  0.13309371  0.12617908  1
  O  O317  1  0.87991148  0.12932052  0.62972742  1
  O  O318  1  0.87653010  0.63786522  0.12638575  1
  O  O319  1  0.87939505  0.63055472  0.63016193  1
  O  O320  1  0.25943847  0.25590198  0.12632236  1
  O  O321  1  0.25590927  0.25175880  0.61875870  1
  O  O322  1  0.25489243  0.75834324  0.12080456  1
  O  O323  1  0.25055641  0.74937585  0.61262960  1
  O  O324  1  0.75626079  0.25730653  0.12352027  1
  O  O325  1  0.75611593  0.25416365  0.61949138  1
  O  O326  1  0.75780863  0.75046717  0.11901554  1
  O  O327  1  0.75605010  0.75464331  0.62003712  1
  O  O328  1  0.24116975  0.24904887  0.38224367  1
  O  O329  1  0.24152046  0.24309586  0.87524453  1
  O  O330  1  0.24479763  0.74577412  0.38036854  1
  O  O331  1  0.24469812  0.74513144  0.88055372  1
  O  O332  1  0.74456847  0.24516240  0.37971342  1
  O  O333  1  0.74738920  0.24150793  0.87652125  1
  O  O334  1  0.74501271  0.74448274  0.38011981  1
  O  O335  1  0.74563419  0.74349979  0.87868143  1
  O  O336  1  0.00504148  0.11998130  0.00504926  1
  O  O337  1  0.00419036  0.11931750  0.50529239  1
  O  O338  1  0.00824982  0.61874464  0.00155750  1
  O  O339  1  0.00013527  0.61886256  0.50617181  1
  O  O340  1  0.51162343  0.12044080  0.00168653  1
  O  O341  1  0.50982128  0.12382667  0.50430109  1
  O  O342  1  0.50737186  0.61815589  0.00035684  1
  O  O343  1  0.50744566  0.62415393  0.50676912  1
  O  O344  1  0.48656305  0.37492699  0.49896181  1
  O  O345  1  0.49801998  0.37950218  0.99017016  1
  O  O346  1  0.49701964  0.88015112  0.49585699  1
  O  O347  1  0.49895098  0.87708603  0.99155867  1
  O  O348  1  0.99335006  0.38023050  0.49377001  1
  O  O349  1  0.99340902  0.38325592  0.99826785  1
  O  O350  1  0.99537892  0.87915278  0.49507113  1
  O  O351  1  0.99947282  0.88198223  0.99241700  1
  O  O352  1  0.49078209  0.49747081  0.37803138  1
  O  O353  1  0.49609878  0.49200637  0.87889139  1
  O  O354  1  0.48872570  1.00060157  0.37648041  1
  O  O355  1  0.49384019  0.99200801  0.87407043  1
  O  O356  1  0.99465660  0.49478626  0.37922947  1
  O  O357  1  0.99372667  0.49983102  0.88135550  1
  O  O358  1  0.99830704  0.99289495  0.38132836  1
  O  O359  1  0.99521032  0.99573497  0.87947288  1
  O  O360  1  0.00000311  0.00704048  0.11836208  1
  O  O361  1  0.00566180  0.00480471  0.61940913  1
  O  O362  1  0.00733934  0.50218431  0.11919839  1
  O  O363  1  0.00500047  0.50538207  0.61936126  1
  O  O364  1  0.51233757  0.00186306  0.12650272  1
  O  O365  1  0.51050603  0.00283842  0.62670581  1
  O  O366  1  0.50578000  0.50007214  0.11816566  1
  O  O367  1  0.50798714  0.50656455  0.62369791  1
  O  O368  1  0.24389240  0.38086340  0.24577601  1
  O  O369  1  0.24559965  0.38106990  0.74615291  1
  O  O370  1  0.24326128  0.87360074  0.23999920  1
  O  O371  1  0.24281603  0.88114303  0.75064882  1
  O  O372  1  0.74757877  0.38215648  0.24245786  1
  O  O373  1  0.75055389  0.38046848  0.74278832  1
  O  O374  1  0.74263571  0.88549833  0.24860129  1
  O  O375  1  0.74598242  0.87933393  0.74521549  1
  O  O376  1  0.26091146  0.12531754  0.25168697  1
  O  O377  1  0.25525035  0.11871851  0.75644888  1
  O  O378  1  0.25506191  0.61991316  0.25516926  1
  O  O379  1  0.25718405  0.62427314  0.75744103  1
  O  O380  1  0.74890804  0.11576851  0.25495954  1
  O  O381  1  0.75606948  0.11873731  0.75457166  1
  O  O382  1  0.75105665  0.61779171  0.25723148  1
  O  O383  1  0.75648275  0.61950094  0.75459682  1
  O  O384  1  0.37297627  0.11966171  0.36630598  1
  O  O385  1  0.36959028  0.11948118  0.87025659  1
  O  O386  1  0.36853480  0.61883625  0.36891445  1
  O  O387  1  0.37084264  0.62043046  0.86991049  1
  O  O388  1  0.86631878  0.12155844  0.37081815  1
  O  O389  1  0.87064022  0.11933910  0.86896544  1
  O  O390  1  0.86728918  0.61803864  0.37464713  1
  O  O391  1  0.86984792  0.61996091  0.86920492  1
  O  O392  1  0.13034315  0.38049680  0.13104222  1
  O  O393  1  0.12481715  0.38745385  0.62550803  1
  O  O394  1  0.13400518  0.87447120  0.13056494  1
  O  O395  1  0.12643066  0.88178343  0.63245398  1
  O  O396  1  0.63113087  0.38151233  0.12562831  1
  O  O397  1  0.63271611  0.38059061  0.62541340  1
  O  O398  1  0.62686700  0.88478506  0.13119754  1
  O  O399  1  0.63261834  0.87902757  0.63154973  1
  O  O400  1  0.11909384  0.25688922  0.25557080  1
  O  O401  1  0.11930312  0.24749795  0.75921817  1
  O  O402  1  0.11883357  0.75611071  0.25514275  1
  O  O403  1  0.12001312  0.75425728  0.75530595  1
  O  O404  1  0.61444373  0.24830190  0.25435718  1
  O  O405  1  0.61348364  0.25074162  0.75219081  1
  O  O406  1  0.62099237  0.75438117  0.25428337  1
  O  O407  1  0.62196939  0.75451232  0.75624551  1
  O  O408  1  0.37998045  0.24354234  0.24450028  1
  O  O409  1  0.38227925  0.24521920  0.74637738  1
  O  O410  1  0.37991134  0.74446937  0.24634873  1
  O  O411  1  0.38360508  0.74232002  0.75037546  1
  O  O412  1  0.88226725  0.25075282  0.24259705  1
  O  O413  1  0.88011201  0.24314659  0.74363142  1
  O  O414  1  0.87932694  0.75003137  0.24105431  1
  O  O415  1  0.88084133  0.74485525  0.74451806  1
  O  O416  1  0.37384692  0.49129477  0.49517612  1
  O  O417  1  0.38256300  0.49919497  0.99310166  1
  O  O418  1  0.37554708  1.00345737  0.48968234  1
  O  O419  1  0.37777991  0.99768939  0.99226910  1
  O  O420  1  0.87952004  0.49351161  0.49418348  1
  O  O421  1  0.88050556  0.49674625  0.99488555  1
  O  O422  1  0.88179218  0.99231043  0.49938932  1
  O  O423  1  0.88096368  0.99950536  0.99288333  1
  O  O424  1  0.11763385  0.00764482  0.00134247  1
  O  O425  1  0.11943407  0.00504840  0.50478743  1
  O  O426  1  0.12096014  0.50492821  0.00535742  1
  O  O427  1  0.11753779  0.50212876  0.50804062  1
  O  O428  1  0.62603317  0.00756549  0.00930949  1
  O  O429  1  0.62746983  0.00665629  0.50741557  1
  O  O430  1  0.61981518  0.50527256  0.00436252  1
  O  O431  1  0.62491162  0.50655692  0.50633374  1
  O  O432  1  0.36919635  0.36498063  0.12609290  1
  O  O433  1  0.37368112  0.37026010  0.61607126  1
  O  O434  1  0.36514429  0.86929845  0.12632056  1
  O  O435  1  0.37085132  0.87030124  0.62283865  1
  O  O436  1  0.86934913  0.37128310  0.11881066  1
  O  O437  1  0.87026351  0.36856651  0.61834460  1
  O  O438  1  0.87203322  0.86255698  0.12187127  1
  O  O439  1  0.87038131  0.86879535  0.62025122  1
  O  O440  1  0.12373998  0.13254438  0.38168978  1
  O  O441  1  0.12985469  0.13246939  0.87960814  1
  O  O442  1  0.13168726  0.63217650  0.37538926  1
  O  O443  1  0.13089179  0.63078466  0.88006517  1
  O  O444  1  0.63075863  0.13073491  0.38116504  1
  O  O445  1  0.63102089  0.12316412  0.88434084  1
  O  O446  1  0.63084159  0.62997017  0.38059732  1
  O  O447  1  0.63126872  0.62972514  0.87933766  1
