# generated using pymatgen
data_V3Zn3O8
_symmetry_space_group_name_H-M   'P 1'
_cell_length_a   17.08725017
_cell_length_b   17.08740475
_cell_length_c   17.08835204
_cell_angle_alpha   90.00116439
_cell_angle_beta   89.99618256
_cell_angle_gamma   89.99347659
_symmetry_Int_Tables_number   1
_chemical_formula_structural   V3Zn3O8
_chemical_formula_sum   'V96 Zn96 O256'
_cell_volume   4989.40161140
_cell_formula_units_Z   32
loop_
 _symmetry_equiv_pos_site_id
 _symmetry_equiv_pos_as_xyz
  1  'x, y, z'
loop_
 _atom_site_type_symbol
 _atom_site_label
 _atom_site_symmetry_multiplicity
 _atom_site_fract_x
 _atom_site_fract_y
 _atom_site_fract_z
 _atom_site_occupancy
  V  V0  1  0.62585361  0.25113258  0.87403215  1
  V  V1  1  0.74871483  0.00054662  0.24971205  1
  V  V2  1  0.62475579  0.62637741  0.00118730  1
  V  V3  1  0.62464301  0.12432506  0.50098768  1
  V  V4  1  0.75071932  0.24983323  0.50019451  1
  V  V5  1  0.25229118  0.37554959  0.12665221  1
  V  V6  1  0.87449544  0.50088879  0.37414157  1
  V  V7  1  0.50003301  0.37712140  0.87526924  1
  V  V8  1  -0.00055246  0.00054912  0.00008503  1
  V  V9  1  0.37520789  0.12584782  0.25085363  1
  V  V10  1  0.87567889  0.24920321  0.62489008  1
  V  V11  1  0.62575761  0.37452534  0.75007658  1
  V  V12  1  0.12459922  0.62423078  0.49903608  1
  V  V13  1  0.75095619  0.12579770  0.37546685  1
  V  V14  1  0.74855737  -0.00060651  0.74871667  1
  V  V15  1  0.12562841  0.62375694  -0.00024796  1
  V  V16  1  0.00029481  0.49923117  0.49942665  1
  V  V17  1  0.87483698  -0.00091043  0.37506321  1
  V  V18  1  0.87553323  0.12422342  0.74913120  1
  V  V19  1  0.62472808  0.50052821  0.62553534  1
  V  V20  1  0.12574467  0.37497385  0.25101726  1
  V  V21  1  0.87514338  0.25094020  0.12429040  1
  V  V22  1  0.12445622  0.74908955  0.87376994  1
  V  V23  1  0.75039165  0.12599540  0.87409854  1
  V  V24  1  0.12516225  0.12348332  0.49879133  1
  V  V25  1  0.37363659  0.37315550  0.50261783  1
  V  V26  1  0.62427906  0.75069170  0.87541776  1
  V  V27  1  0.87489685  -0.00021257  0.87428514  1
  V  V28  1  0.62470264  0.74990929  0.37559738  1
  V  V29  1  0.37523562  0.62571873  0.74992338  1
  V  V30  1  0.37444853  0.12608538  0.75024478  1
  V  V31  1  0.75059863  0.49982024  0.24961907  1
  V  V32  1  0.12442630  -0.00077999  0.12438920  1
  V  V33  1  0.25016341  0.62490207  0.37394654  1
  V  V34  1  0.37526653  0.62505770  0.25053636  1
  V  V35  1  0.00326451  0.37344393  0.87354544  1
  V  V36  1  0.50189898  0.62602028  0.12575090  1
  V  V37  1  0.25109561  0.50084096  0.25027844  1
  V  V38  1  0.75069250  0.37606962  0.12444694  1
  V  V39  1  0.25065339  0.62400394  0.87468373  1
  V  V40  1  0.62329554  -0.00005569  0.62502377  1
  V  V41  1  0.74996220  0.62470936  0.87446664  1
  V  V42  1  0.24918437  0.87499589  0.12476650  1
  V  V43  1  0.62620189  0.25107486  0.37537310  1
  V  V44  1  0.74962553  0.75151344  -0.00049616  1
  V  V45  1  0.37453920  0.75123505  0.12502769  1
  V  V46  1  0.50093671  0.50076947  0.50129524  1
  V  V47  1  0.12609884  0.49780812  0.62494387  1
  V  V48  1  0.62642398  0.50127556  0.12524473  1
  V  V49  1  0.37620120  0.49959689  0.87587199  1
  V  V50  1  0.87545833  0.12482195  0.25036149  1
  V  V51  1  0.87325506  0.74961357  0.62397289  1
  V  V52  1  0.25115673  0.75112049  0.50181945  1
  V  V53  1  0.62497202  0.12624230  0.00019148  1
  V  V54  1  0.87568434  0.37476889  0.49969449  1
  V  V55  1  0.87413752  0.62383255  0.75025223  1
  V  V56  1  0.75055900  0.37498471  0.62574704  1
  V  V57  1  0.00031074  0.49900533  -0.00052712  1
  V  V58  1  0.87313763  0.87291794  0.50058413  1
  V  V59  1  0.74918613  0.62627802  0.37592982  1
  V  V60  1  0.49899255  0.00024779  0.50009443  1
  V  V61  1  0.24722077  -0.00169206  0.75042442  1
  V  V62  1  0.37441106  -0.00050323  0.37592283  1
  V  V63  1  -0.00038981  0.87394257  0.87349386  1
  V  V64  1  0.75089424  0.49991963  0.75101130  1
  V  V65  1  0.50217060  0.37508519  0.37488344  1
  V  V66  1  0.24919565  0.49829917  0.74830506  1
  V  V67  1  -0.00118634  -0.00122807  0.50009049  1
  V  V68  1  0.49956652  0.62525089  0.62551613  1
  V  V69  1  0.50058538  0.00299720  0.00105264  1
  V  V70  1  0.62542987  0.87759882  0.24977085  1
  V  V71  1  -0.00002699  0.74868947  0.75025472  1
  V  V72  1  0.87333021  0.87511410  -0.00124402  1
  V  V73  1  -0.00064341  0.87228484  0.37359380  1
  V  V74  1  0.87588618  0.74947473  0.12497319  1
  V  V75  1  0.49856155  0.74985362  0.74986664  1
  V  V76  1  0.12624353  0.50053965  0.12444657  1
  V  V77  1  0.75138691  0.25170579  -0.00020662  1
  V  V78  1  0.37417500  0.00061394  0.87551843  1
  V  V79  1  0.24903986  0.24955751  -0.00025656  1
  V  V80  1  0.49835204  0.87577352  0.37558269  1
  V  V81  1  0.00067551  0.37508860  0.37370182  1
  V  V82  1  0.24877233  0.12383423  0.37589472  1
  V  V83  1  0.62399887  0.87616098  0.74929902  1
  V  V84  1  0.00227778  0.24918552  0.75039459  1
  V  V85  1  0.00001536  0.12298345  0.62418740  1
  V  V86  1  0.12255423  0.74995259  0.37353127  1
  V  V87  1  0.24893270  -0.00152348  0.24901465  1
  V  V88  1  0.00024528  0.12401407  0.12489201  1
  V  V89  1  0.37790075  0.25027777  0.12703617  1
  V  V90  1  0.00141801  0.25020986  0.24977607  1
  V  V91  1  0.49926966  0.87589930  0.87520633  1
  V  V92  1  -0.00118660  0.62366526  0.62489107  1
  V  V93  1  0.49945584  0.24927286  0.74950699  1
  V  V94  1  0.50004676  0.75129662  0.25034768  1
  V  V95  1  0.25042857  0.75019262  0.00010469  1
  Zn  Zn96  1  0.37300479  0.24943403  0.62574144  1
  Zn  Zn97  1  0.25098830  0.24859369  0.50111658  1
  Zn  Zn98  1  0.24849831  0.37097073  0.62462619  1
  Zn  Zn99  1  0.87617476  0.37553379  -0.00110784  1
  Zn  Zn100  1  0.24644007  0.12511919  0.87709950  1
  Zn  Zn101  1  0.12209497  0.87277509  0.24864611  1
  Zn  Zn102  1  0.37760830  0.37702627  0.00115520  1
  Zn  Zn103  1  0.12501656  0.12566862  -0.00035436  1
  Zn  Zn104  1  0.74793900  0.87270454  0.62310682  1
  Zn  Zn105  1  0.12471852  0.87421334  0.74830568  1
  Zn  Zn106  1  0.87729562  0.62617428  0.24880818  1
  Zn  Zn107  1  0.37489853  0.87639986  0.00083500  1
  Zn  Zn108  1  0.50304842  0.24938535  0.25019144  1
  Zn  Zn109  1  0.50297514  0.12630800  0.12850211  1
  Zn  Zn110  1  0.12771236  0.24789101  0.87317076  1
  Zn  Zn111  1  0.62347119  0.62697646  0.50132313  1
  Zn  Zn112  1  0.24899263  0.87353496  0.62659125  1
  Zn  Zn113  1  0.87540907  0.49915337  0.87547421  1
  Zn  Zn114  1  0.62524131  0.37397250  0.24870284  1
  Zn  Zn115  1  0.49870756  0.12605277  0.62408236  1
  Zn  Zn116  1  0.12406936  -0.00420849  0.62665184  1
  Zn  Zn117  1  0.74695856  0.75081804  0.50186801  1
  Zn  Zn118  1  0.00047031  0.74820362  0.24752883  1
  Zn  Zn119  1  0.37587210  0.49983175  0.37563594  1
  Zn  Zn120  1  0.62585176  0.00209129  0.12575607  1
  Zn  Zn121  1  0.49964839  0.50004426  0.00125528  1
  Zn  Zn122  1  -0.00018689  0.62507671  0.12611097  1
  Zn  Zn123  1  0.12826066  0.37068838  0.74636425  1
  Zn  Zn124  1  0.37337808  0.87583637  0.50311228  1
  Zn  Zn125  1  0.74811558  0.87779915  0.12416455  1
  Zn  Zn126  1  0.37457316  0.75194991  0.62509379  1
  Zn  Zn127  1  0.12721813  0.25002910  0.37463034  1
  Zn  Zn128  1  0.18781491  0.18633288  0.18664156  1
  Zn  Zn129  1  0.18869705  0.18672119  0.68413850  1
  Zn  Zn130  1  0.18625381  0.68759958  0.18730130  1
  Zn  Zn131  1  0.18628698  0.68457055  0.68684665  1
  Zn  Zn132  1  0.68701300  0.18881809  0.18738677  1
  Zn  Zn133  1  0.68686371  0.18650346  0.68649290  1
  Zn  Zn134  1  0.68982899  0.68959431  0.18890820  1
  Zn  Zn135  1  0.68635399  0.68779160  0.68789794  1
  Zn  Zn136  1  0.31295993  0.31100826  0.31572204  1
  Zn  Zn137  1  0.31311409  0.31422690  0.81333624  1
  Zn  Zn138  1  0.31103270  0.81328363  0.31316355  1
  Zn  Zn139  1  0.31323619  0.81392335  0.81398586  1
  Zn  Zn140  1  0.81308603  0.31371756  0.31075973  1
  Zn  Zn141  1  0.81649366  0.31348844  0.81317777  1
  Zn  Zn142  1  0.81190337  0.81290781  0.31121419  1
  Zn  Zn143  1  0.81165841  0.81223727  0.81051497  1
  Zn  Zn144  1  0.18872104  0.43818747  0.43653841  1
  Zn  Zn145  1  0.18907880  0.43435909  0.93716522  1
  Zn  Zn146  1  0.18560053  0.93595691  0.43621729  1
  Zn  Zn147  1  0.18621802  0.93636074  0.93729927  1
  Zn  Zn148  1  0.68723032  0.43930801  0.43907300  1
  Zn  Zn149  1  0.68671298  0.43887492  0.93915198  1
  Zn  Zn150  1  0.68700853  0.93698387  0.43735421  1
  Zn  Zn151  1  0.68662393  0.93830481  0.93650976  1
  Zn  Zn152  1  0.31294912  0.06457764  0.06412128  1
  Zn  Zn153  1  0.31152956  0.06083774  0.56540684  1
  Zn  Zn154  1  0.31475685  0.56336903  0.06224988  1
  Zn  Zn155  1  0.31382255  0.56161877  0.56262307  1
  Zn  Zn156  1  0.81162203  0.06313224  0.06322892  1
  Zn  Zn157  1  0.81129432  0.06028470  0.56285192  1
  Zn  Zn158  1  0.81336733  0.56334744  0.06096425  1
  Zn  Zn159  1  0.81175085  0.56255017  0.56161611  1
  Zn  Zn160  1  0.43899835  0.43854741  0.18874245  1
  Zn  Zn161  1  0.43689187  0.43812430  0.68820750  1
  Zn  Zn162  1  0.43720308  0.93872253  0.18673523  1
  Zn  Zn163  1  0.43423270  0.93641302  0.68480876  1
  Zn  Zn164  1  0.93694193  0.43760991  0.18716137  1
  Zn  Zn165  1  0.93857700  0.43688761  0.68858864  1
  Zn  Zn166  1  0.93652574  0.93479339  0.18733570  1
  Zn  Zn167  1  0.93654298  0.93530420  0.68636321  1
  Zn  Zn168  1  0.06278496  0.05956925  0.31188282  1
  Zn  Zn169  1  0.06485937  0.06495537  0.81579834  1
  Zn  Zn170  1  0.06142551  0.56479040  0.30989104  1
  Zn  Zn171  1  0.06389082  0.56081419  0.81167782  1
  Zn  Zn172  1  0.56148730  0.06392387  0.31349972  1
  Zn  Zn173  1  0.56152072  0.06363558  0.81286617  1
  Zn  Zn174  1  0.56418436  0.56149858  0.31189600  1
  Zn  Zn175  1  0.56273088  0.56277697  0.81269885  1
  Zn  Zn176  1  0.43774723  0.18800938  0.43743688  1
  Zn  Zn177  1  0.43617463  0.18895030  0.93683065  1
  Zn  Zn178  1  0.43678149  0.68696174  0.43732484  1
  Zn  Zn179  1  0.43710031  0.68716854  0.93875707  1
  Zn  Zn180  1  0.93943522  0.18783013  0.43635387  1
  Zn  Zn181  1  0.93801127  0.18773861  0.93774896  1
  Zn  Zn182  1  0.93598779  0.68772341  0.43804311  1
  Zn  Zn183  1  0.93685012  0.68630034  0.93787637  1
  Zn  Zn184  1  0.06433388  0.31370101  0.06407688  1
  Zn  Zn185  1  0.06318499  0.31038575  0.56191157  1
  Zn  Zn186  1  0.06204262  0.81355752  0.06027573  1
  Zn  Zn187  1  0.06361691  0.81316714  0.56369302  1
  Zn  Zn188  1  0.56355673  0.31504382  0.06075035  1
  Zn  Zn189  1  0.56069437  0.31115286  0.56375994  1
  Zn  Zn190  1  0.56278680  0.81564981  0.06389095  1
  Zn  Zn191  1  0.56136669  0.81277165  0.56194330  1
  O  O192  1  0.11723127  0.11725692  0.12396093  1
  O  O193  1  0.11771180  0.12044220  0.61455783  1
  O  O194  1  0.12461521  0.61792387  0.11674494  1
  O  O195  1  0.11729206  0.61802722  0.61835608  1
  O  O196  1  0.62284177  0.12489644  0.11571615  1
  O  O197  1  0.62377684  0.11823831  0.61811356  1
  O  O198  1  0.62134201  0.62222487  0.12088468  1
  O  O199  1  0.61793671  0.61782602  0.62539975  1
  O  O200  1  0.38588823  0.37571350  0.38365740  1
  O  O201  1  0.38338624  0.38289870  0.87539625  1
  O  O202  1  0.38115365  0.88224508  0.37600735  1
  O  O203  1  0.38261890  0.88253889  0.87791114  1
  O  O204  1  0.88017517  0.38084931  0.38067766  1
  O  O205  1  0.88904369  0.37774114  0.87710456  1
  O  O206  1  0.87964535  0.87980449  0.38053197  1
  O  O207  1  0.87964149  0.88020690  0.87892037  1
  O  O208  1  0.25471467  0.00403470  0.36909607  1
  O  O209  1  0.25649031  0.00084329  0.86853654  1
  O  O210  1  0.25147945  0.50762628  0.36755549  1
  O  O211  1  0.25495533  0.50506586  0.86960194  1
  O  O212  1  0.75590383  0.00709760  0.37038521  1
  O  O213  1  0.75520122  0.00670024  0.86891181  1
  O  O214  1  0.75425589  0.50673513  0.37065831  1
  O  O215  1  0.75090323  0.50635487  0.86880830  1
  O  O216  1  0.24611957  0.49561038  0.13049953  1
  O  O217  1  0.24287408  0.49997935  0.63078174  1
  O  O218  1  0.24519080  0.99484340  0.12930565  1
  O  O219  1  0.24821313  0.99882308  0.63929406  1
  O  O220  1  0.74636480  0.49625735  0.12940201  1
  O  O221  1  0.74548949  0.49395585  0.63064070  1
  O  O222  1  0.74779180  0.99918713  0.13364257  1
  O  O223  1  0.74223588  0.99834578  0.63204373  1
  O  O224  1  0.00594485  0.37063479  0.25436684  1
  O  O225  1  0.00130747  0.36841572  0.75786478  1
  O  O226  1  0.00073011  0.87137122  0.25895539  1
  O  O227  1  -0.00108295  0.86660725  0.75677620  1
  O  O228  1  0.50214713  0.37414574  0.26379222  1
  O  O229  1  0.50674049  0.36989109  0.75532655  1
  O  O230  1  0.50462796  0.87076367  0.25588074  1
  O  O231  1  0.50448883  0.87046425  0.75600039  1
  O  O232  1  0.49121326  0.12861211  0.24941321  1
  O  O233  1  0.49061172  0.13044818  0.75089834  1
  O  O234  1  0.49577709  0.63167900  0.24550470  1
  O  O235  1  0.49511021  0.63058252  0.74583260  1
  O  O236  1  0.99418443  0.12936387  0.24521409  1
  O  O237  1  0.99371975  0.12868138  0.74453923  1
  O  O238  1  0.99496899  0.62877526  0.24409164  1
  O  O239  1  0.99391496  0.62853376  0.74472768  1
  O  O240  1  0.36782935  0.25149345  0.01059865  1
  O  O241  1  0.37609578  0.26064923  0.50213435  1
  O  O242  1  0.36827560  0.75092153  0.00712986  1
  O  O243  1  0.36205007  0.74966001  0.49953890  1
  O  O244  1  0.86862282  0.25094595  0.00669997  1
  O  O245  1  0.87048145  0.25494465  0.50506885  1
  O  O246  1  0.86917308  0.75523904  0.00468144  1
  O  O247  1  0.87269133  0.75545414  0.50694076  1
  O  O248  1  0.12305573  0.23427261  0.49668139  1
  O  O249  1  0.13860715  0.24984977  1.00383066  1
  O  O250  1  0.13139105  0.74254060  0.49416369  1
  O  O251  1  0.13040274  0.74355178  0.99359354  1
  O  O252  1  0.63219822  0.24489866  0.49621683  1
  O  O253  1  0.63156223  0.24593483  0.99296233  1
  O  O254  1  0.62635851  0.74748452  0.49114010  1
  O  O255  1  0.62958857  0.74646455  0.99462493  1
  O  O256  1  0.48898721  0.25094768  0.12596651  1
  O  O257  1  0.49719763  0.24679652  0.63472638  1
  O  O258  1  0.49512429  0.74613545  0.13145578  1
  O  O259  1  0.49945397  0.74327567  0.63260399  1
  O  O260  1  0.99506186  0.24511043  0.13060943  1
  O  O261  1  0.99352435  0.24319124  0.62937842  1
  O  O262  1  0.98817854  0.74883447  0.12120806  1
  O  O263  1  0.99405799  0.74210923  0.63001760  1
  O  O264  1  0.00055856  0.25742806  0.36708378  1
  O  O265  1  0.00019798  0.25816770  0.86960707  1
  O  O266  1  0.00541930  0.75529671  0.37566605  1
  O  O267  1  0.00441134  0.75349822  0.87011396  1
  O  O268  1  0.50750703  0.26040469  0.37660875  1
  O  O269  1  0.50672452  0.25630240  0.86948914  1
  O  O270  1  0.50428548  0.75513981  0.36890414  1
  O  O271  1  0.50522698  0.75529467  0.87047542  1
  O  O272  1  0.23967340  0.12091722  0.49458108  1
  O  O273  1  0.24982015  0.13708211  1.00073561  1
  O  O274  1  0.24443787  0.63070749  0.49377660  1
  O  O275  1  0.24498479  0.63010145  0.99421051  1
  O  O276  1  0.74584203  0.13056068  0.49461112  1
  O  O277  1  0.74555534  0.13125724  0.99299737  1
  O  O278  1  0.74692453  0.62475077  0.48706968  1
  O  O279  1  0.74409465  0.63152910  0.99364198  1
  O  O280  1  0.25365173  0.36720306  0.00843779  1
  O  O281  1  0.26270564  0.37470129  0.49805529  1
  O  O282  1  0.25192737  0.86780775  0.00607151  1
  O  O283  1  0.24900727  0.86192902  0.49899301  1
  O  O284  1  0.75237393  0.36913497  0.00523806  1
  O  O285  1  0.75630072  0.36999214  0.50598263  1
  O  O286  1  0.75563372  0.86917470  -0.00152267  1
  O  O287  1  0.75795957  0.87305537  0.50129786  1
  O  O288  1  0.13119385  0.49492215  0.24411984  1
  O  O289  1  0.13149389  0.49910936  0.74188402  1
  O  O290  1  0.13143620  0.99741184  0.24244498  1
  O  O291  1  0.13580295  1.00001336  0.75144589  1
  O  O292  1  0.63308870  0.49849255  0.24262542  1
  O  O293  1  0.63134225  0.49394375  0.74512577  1
  O  O294  1  0.63095215  0.99570555  0.25116244  1
  O  O295  1  0.62886647  0.99580151  0.74580723  1
  O  O296  1  0.36899308  0.00615590  0.25531565  1
  O  O297  1  0.36880766  0.00718914  0.75640163  1
  O  O298  1  0.36874070  0.50741684  0.25131326  1
  O  O299  1  0.36948469  0.50653393  0.75596747  1
  O  O300  1  0.86969947  0.00563847  0.25598891  1
  O  O301  1  0.86926857  0.00508481  0.75488837  1
  O  O302  1  0.86841724  0.50120807  0.25684204  1
  O  O303  1  0.86852570  0.50621638  0.75077531  1
  O  O304  1  0.11831885  0.37414675  0.36884632  1
  O  O305  1  0.11384018  0.37143340  0.87204588  1
  O  O306  1  0.11610030  0.86754679  0.37429802  1
  O  O307  1  0.11675693  0.86641184  0.87358226  1
  O  O308  1  0.61695961  0.36989866  0.37742831  1
  O  O309  1  0.62132395  0.37020840  0.86863737  1
  O  O310  1  0.61818192  0.87014891  0.36906794  1
  O  O311  1  0.61877697  0.86991950  0.86898814  1
  O  O312  1  0.37618738  0.13581188  0.13243461  1
  O  O313  1  0.37703090  0.12440197  0.63939196  1
  O  O314  1  0.38114609  0.63177616  0.13124453  1
  O  O315  1  0.38228850  0.62607304  0.63280617  1
  O  O316  1  0.88012288  0.13077533  0.13154354  1
  O  O317  1  0.87958168  0.12995326  0.62941598  1
  O  O318  1  0.87580434  0.63736933  0.12362059  1
  O  O319  1  0.87990627  0.62856962  0.63006734  1
  O  O320  1  0.25942811  0.25533510  0.12063976  1
  O  O321  1  0.25477062  0.25310574  0.61891156  1
  O  O322  1  0.25489358  0.75462987  0.11953133  1
  O  O323  1  0.24955199  0.74634593  0.61251670  1
  O  O324  1  0.75568349  0.25561707  0.11915564  1
  O  O325  1  0.75596677  0.25532958  0.61990416  1
  O  O326  1  0.75827444  0.75266333  0.11747527  1
  O  O327  1  0.75717328  0.75079133  0.62356584  1
  O  O328  1  0.24714353  0.23958993  0.37925616  1
  O  O329  1  0.25084238  0.25157667  0.88845486  1
  O  O330  1  0.24336298  0.74414497  0.38207403  1
  O  O331  1  0.24505871  0.74352592  0.88010891  1
  O  O332  1  0.74731973  0.24553916  0.38152363  1
  O  O333  1  0.74606309  0.24569332  0.87889450  1
  O  O334  1  0.74428071  0.74035520  0.37439948  1
  O  O335  1  0.74352239  0.74461676  0.87913740  1
  O  O336  1  -0.00165465  0.11785755  0.00801342  1
  O  O337  1  0.00546293  0.11849468  0.50345474  1
  O  O338  1  0.00704655  0.61365231  -0.00177068  1
  O  O339  1  0.00439188  0.61809091  0.50486214  1
  O  O340  1  0.50601249  0.11711871  -0.00141666  1
  O  O341  1  0.50712185  0.11823315  0.50005904  1
  O  O342  1  0.50781546  0.62611267  0.00826356  1
  O  O343  1  0.50026023  0.61815667  0.50656216  1
  O  O344  1  0.49439002  0.38004661  0.49336353  1
  O  O345  1  0.49889433  0.37855674  0.99040183  1
  O  O346  1  0.49829790  0.88203735  0.49220990  1
  O  O347  1  0.49974666  0.88631734  0.99391402  1
  O  O348  1  0.99440639  0.37959637  0.49409080  1
  O  O349  1  1.00189353  0.38299968  0.99221451  1
  O  O350  1  0.99319534  0.87966621  0.49411713  1
  O  O351  1  0.99275283  0.88103001  0.99234745  1
  O  O352  1  0.50133710  0.49053461  0.38138494  1
  O  O353  1  0.49471605  0.49475650  0.87532842  1
  O  O354  1  0.49384590  0.99513793  0.38044211  1
  O  O355  1  0.49515146  0.99612157  0.88291814  1
  O  O356  1  0.99478697  0.49480020  0.38017990  1
  O  O357  1  1.00164487  0.49149030  0.88291665  1
  O  O358  1  0.99307551  0.99354617  0.38015333  1
  O  O359  1  0.99306037  0.99479938  0.87953370  1
  O  O360  1  0.00312749  0.00410461  0.11973474  1
  O  O361  1  -0.00137896  0.00619470  0.61792725  1
  O  O362  1  0.00708223  0.49794411  0.11406699  1
  O  O363  1  0.00431820  0.50476286  0.61866979  1
  O  O364  1  0.50135415  0.00312907  0.11249820  1
  O  O365  1  0.50606504  0.00179360  0.61830903  1
  O  O366  1  0.50754819  0.50825143  0.12548516  1
  O  O367  1  0.50629646  0.50535984  0.62183283  1
  O  O368  1  0.24583618  0.38069555  0.24676151  1
  O  O369  1  0.24856864  0.38349756  0.74721707  1
  O  O370  1  0.24792431  0.88146800  0.24290901  1
  O  O371  1  0.24846600  0.88618471  0.75199310  1
  O  O372  1  0.74891065  0.38201501  0.24292759  1
  O  O373  1  0.74599621  0.37923515  0.74497600  1
  O  O374  1  0.74279480  0.88362016  0.25117599  1
  O  O375  1  0.74186659  0.88210292  0.74957737  1
  O  O376  1  0.25499984  0.11834689  0.25550533  1
  O  O377  1  0.25868244  0.11717186  0.75307004  1
  O  O378  1  0.25552531  0.62037477  0.25431499  1
  O  O379  1  0.25526276  0.61911720  0.75611184  1
  O  O380  1  0.75638349  0.12144129  0.25668344  1
  O  O381  1  0.75575611  0.12020301  0.75505092  1
  O  O382  1  0.75199775  0.61935002  0.26091302  1
  O  O383  1  0.75425922  0.61923275  0.75541992  1
  O  O384  1  0.36879291  0.11924457  0.37057816  1
  O  O385  1  0.37347992  0.11932655  0.86509327  1
  O  O386  1  0.36885222  0.62335679  0.36713820  1
  O  O387  1  0.36974806  0.61988853  0.86973083  1
  O  O388  1  0.87048081  0.11964949  0.37002586  1
  O  O389  1  0.86995460  0.11972184  0.86850598  1
  O  O390  1  0.86523477  0.61894010  0.37483833  1
  O  O391  1  0.86762761  0.62371285  0.86815856  1
  O  O392  1  0.13243011  0.38150936  0.13210848  1
  O  O393  1  0.12578289  0.38374979  0.62384846  1
  O  O394  1  0.13121954  0.88092337  0.12521851  1
  O  O395  1  0.12918798  0.87815881  0.63022272  1
  O  O396  1  0.63258269  0.38235653  0.12540149  1
  O  O397  1  0.63144966  0.37958363  0.63094665  1
  O  O398  1  0.62734146  0.87897234  0.13441325  1
  O  O399  1  0.62495630  0.88163391  0.63221222  1
  O  O400  1  0.11894570  0.25676737  0.25022918  1
  O  O401  1  0.11665416  0.25024512  0.75010296  1
  O  O402  1  0.12303288  0.75161479  0.25841496  1
  O  O403  1  0.11737340  0.74732142  0.75699062  1
  O  O404  1  0.62405036  0.25317693  0.25950741  1
  O  O405  1  0.62122055  0.25522577  0.75536708  1
  O  O406  1  0.61923614  0.75657609  0.25574574  1
  O  O407  1  0.61845309  0.75561544  0.75663050  1
  O  O408  1  0.37514296  0.24489168  0.24144827  1
  O  O409  1  0.38041841  0.24066965  0.75208502  1
  O  O410  1  0.38040726  0.74493965  0.24490203  1
  O  O411  1  0.38141030  0.74272017  0.75126653  1
  O  O412  1  0.88093056  0.24432915  0.24451882  1
  O  O413  1  0.88057548  0.24335446  0.74369154  1
  O  O414  1  0.87473580  0.75047123  0.23633266  1
  O  O415  1  0.88013969  0.74305330  0.74471189  1
  O  O416  1  0.38271794  0.49120812  0.49767676  1
  O  O417  1  0.37833014  0.49895576  0.99203816  1
  O  O418  1  0.38042710  1.00031956  0.49312635  1
  O  O419  1  0.38481624  1.00159042  0.99455485  1
  O  O420  1  0.88066770  0.49364830  0.49491927  1
  O  O421  1  0.88768614  0.49871820  0.99795229  1
  O  O422  1  0.87944863  0.99457854  0.49387361  1
  O  O423  1  0.87881576  0.99548951  0.99334412  1
  O  O424  1  0.11668541  0.00020151  0.00675741  1
  O  O425  1  0.11748568  0.00875706  0.49954416  1
  O  O426  1  0.11946847  0.50366834  0.00447977  1
  O  O427  1  0.11920118  0.50537822  0.50399045  1
  O  O428  1  0.61577751  0.00740036  -0.00208348  1
  O  O429  1  0.61939645  0.00537033  0.50423202  1
  O  O430  1  0.62444996  0.50945363  0.00741445  1
  O  O431  1  0.61860893  0.50095441  0.50885848  1
  O  O432  1  0.37060486  0.36641703  0.12652722  1
  O  O433  1  0.37572013  0.37514594  0.61318552  1
  O  O434  1  0.36831236  0.86848376  0.12364744  1
  O  O435  1  0.36807788  0.86944534  0.62075283  1
  O  O436  1  0.86900638  0.36805805  0.12294955  1
  O  O437  1  0.87044538  0.36905821  0.61964877  1
  O  O438  1  0.87230313  0.86685714  0.11638727  1
  O  O439  1  0.87317007  0.86730300  0.61841744  1
  O  O440  1  0.12943061  0.12345092  0.38330278  1
  O  O441  1  0.12831693  0.13095274  0.88256481  1
  O  O442  1  0.13011080  0.62943079  0.38049539  1
  O  O443  1  0.13142370  0.62921900  0.88018645  1
  O  O444  1  0.63187370  0.13085132  0.38163000  1
  O  O445  1  0.63156072  0.13203454  0.87897148  1
  O  O446  1  0.63359588  0.63072068  0.37534077  1
  O  O447  1  0.63002923  0.63166350  0.88003080  1
