# generated using pymatgen
data_V3Zn3O8
_symmetry_space_group_name_H-M   'P 1'
_cell_length_a   17.08305849
_cell_length_b   17.08561688
_cell_length_c   17.08533636
_cell_angle_alpha   90.00385575
_cell_angle_beta   90.00496799
_cell_angle_gamma   90.00877130
_symmetry_Int_Tables_number   1
_chemical_formula_structural   V3Zn3O8
_chemical_formula_sum   'V96 Zn96 O256'
_cell_volume   4986.77549915
_cell_formula_units_Z   32
loop_
 _symmetry_equiv_pos_site_id
 _symmetry_equiv_pos_as_xyz
  1  'x, y, z'
loop_
 _atom_site_type_symbol
 _atom_site_label
 _atom_site_symmetry_multiplicity
 _atom_site_fract_x
 _atom_site_fract_y
 _atom_site_fract_z
 _atom_site_occupancy
  V  V0  1  0.62521480  0.12648161  0.49983835  1
  V  V1  1  -0.00100198  0.00064048  0.49974751  1
  V  V2  1  0.50009760  0.00026727  -0.00118858  1
  V  V3  1  0.62456753  0.50146603  0.62401891  1
  V  V4  1  0.12545515  0.62419214  0.50094610  1
  V  V5  1  0.50009409  0.00036839  0.50027097  1
  V  V6  1  0.62460132  0.62467076  0.49900980  1
  V  V7  1  0.49930576  0.12525153  0.62487706  1
  V  V8  1  0.62546587  0.49914407  0.12455160  1
  V  V9  1  0.37427800  0.37325900  0.50001263  1
  V  V10  1  0.87510679  0.37361691  0.00045220  1
  V  V11  1  -0.00050155  0.12604337  0.12531158  1
  V  V12  1  0.12604132  0.12553034  -0.00053577  1
  V  V13  1  0.50023665  0.62485742  0.12598787  1
  V  V14  1  0.00055661  0.62606181  0.12463338  1
  V  V15  1  0.37609884  0.49987595  0.87477771  1
  V  V16  1  0.50039215  0.12407024  0.12518718  1
  V  V17  1  0.74886295  0.87595509  0.62604312  1
  V  V18  1  0.49969590  0.74893451  0.24940959  1
  V  V19  1  0.62634582  0.62497161  0.00071789  1
  V  V20  1  0.62475215  0.37446264  0.24958498  1
  V  V21  1  -0.00108621  0.12549253  0.62548035  1
  V  V22  1  0.25074592  0.37408148  0.12552398  1
  V  V23  1  0.12479059  0.49995117  0.62503277  1
  V  V24  1  0.62501953  0.25006298  0.87523671  1
  V  V25  1  0.75037113  0.74988101  0.00026016  1
  V  V26  1  0.37582307  0.37420096  0.00008504  1
  V  V27  1  0.87507937  0.37613072  0.50023408  1
  V  V28  1  0.75022786  0.37374782  0.12445397  1
  V  V29  1  0.62525124  -0.00097835  0.12558056  1
  V  V30  1  0.75006559  0.12572128  0.87599108  1
  V  V31  1  0.87407789  0.75184854  0.62517461  1
  V  V32  1  0.37364368  0.12435183  0.25028683  1
  V  V33  1  0.62536182  0.74927731  0.37569306  1
  V  V34  1  0.87609322  0.50117275  0.37606335  1
  V  V35  1  0.87470934  0.00030159  0.87500605  1
  V  V36  1  0.12626447  0.24937860  0.87543771  1
  V  V37  1  0.12426979  0.75119006  0.37455993  1
  V  V38  1  0.00025392  0.87413717  0.37424452  1
  V  V39  1  -0.00036720  0.75033316  0.74898996  1
  V  V40  1  0.37548670  0.62450685  0.74985244  1
  V  V41  1  0.87540370  0.62555961  0.74986202  1
  V  V42  1  0.37456778  0.00014488  0.37420483  1
  V  V43  1  0.50103939  0.49994421  -0.00107910  1
  V  V44  1  0.12494500  0.37533227  0.25043539  1
  V  V45  1  0.12520113  -0.00021814  0.12527411  1
  V  V46  1  0.00035871  0.87508802  0.87445041  1
  V  V47  1  0.12538995  0.37515691  0.75072266  1
  V  V48  1  0.62578513  0.25033204  0.37511821  1
  V  V49  1  0.24999012  0.62487717  0.37481144  1
  V  V50  1  0.75056961  0.87513534  0.12505978  1
  V  V51  1  0.74872957  0.00005717  0.75063080  1
  V  V52  1  0.24875683  0.87450948  0.12574639  1
  V  V53  1  0.37546755  0.49942858  0.37577122  1
  V  V54  1  0.49854941  0.25106886  0.74920707  1
  V  V55  1  0.87571615  0.12574045  0.75018088  1
  V  V56  1  0.24998368  0.87480383  0.62473997  1
  V  V57  1  0.12651031  0.74838820  0.87502476  1
  V  V58  1  0.12439659  -0.00032576  0.62401650  1
  V  V59  1  0.25010911  0.49918813  0.25114203  1
  V  V60  1  0.37546510  0.74900272  0.62564308  1
  V  V61  1  0.49960475  0.75022405  0.75044885  1
  V  V62  1  0.87391700  0.00049393  0.37502708  1
  V  V63  1  -0.00001204  0.00042574  -0.00033174  1
  V  V64  1  0.00082316  0.37506228  0.87609503  1
  V  V65  1  0.50084279  0.24965689  0.24926391  1
  V  V66  1  0.24942816  0.62518973  0.87679878  1
  V  V67  1  0.12384411  0.24950970  0.37551261  1
  V  V68  1  0.37561463  0.62446171  0.24971403  1
  V  V69  1  0.62416322  0.75131889  0.87438026  1
  V  V70  1  -0.00123215  0.25063942  0.24958465  1
  V  V71  1  0.37494235  0.87350398  -0.00011197  1
  V  V72  1  0.50047846  0.87458576  0.37473751  1
  V  V73  1  0.87563988  0.62687149  0.25007438  1
  V  V74  1  0.87451564  0.12529429  0.25039729  1
  V  V75  1  -0.00000982  0.24974786  0.75015488  1
  V  V76  1  0.87358734  0.87503804  0.50056465  1
  V  V77  1  0.75063394  0.62540886  0.37528074  1
  V  V78  1  0.49993213  0.49958343  0.49967333  1
  V  V79  1  0.87473454  0.87448799  0.00023519  1
  V  V80  1  0.74982411  0.12531605  0.37530965  1
  V  V81  1  0.00192384  0.50088072  0.00033623  1
  V  V82  1  0.25023091  0.49868001  0.75115606  1
  V  V83  1  0.24971884  0.12418724  0.87433967  1
  V  V84  1  -0.00100443  0.37625994  0.37544881  1
  V  V85  1  0.62580550  0.87482280  0.25005373  1
  V  V86  1  0.24923133  0.24883879  0.49919729  1
  V  V87  1  0.25061487  0.74979486  0.49970207  1
  V  V88  1  0.62479260  0.00026497  0.62640004  1
  V  V89  1  0.37386925  0.12412269  0.74931013  1
  V  V90  1  0.75006548  0.50127426  0.75081322  1
  V  V91  1  0.25041456  0.00022079  0.74977897  1
  V  V92  1  0.75097640  0.37428724  0.62499959  1
  V  V93  1  0.37539894  0.87488001  0.49959904  1
  V  V94  1  0.12419603  0.12544998  0.49879996  1
  V  V95  1  0.12526653  0.87442348  0.74943226  1
  Zn  Zn96  1  0.37326107  0.74832281  0.12493479  1
  Zn  Zn97  1  0.12774039  0.62627291  0.00168354  1
  Zn  Zn98  1  0.87580686  0.75133370  0.12448869  1
  Zn  Zn99  1  0.75027759  0.25020137  0.50126936  1
  Zn  Zn100  1  0.49851603  0.87650440  0.87374770  1
  Zn  Zn101  1  0.87502406  0.50018599  0.87390574  1
  Zn  Zn102  1  0.74895967  0.75062779  0.50100497  1
  Zn  Zn103  1  0.24957646  0.37183100  0.62605260  1
  Zn  Zn104  1  0.24974541  0.74700110  0.00102939  1
  Zn  Zn105  1  0.50079576  0.37578719  0.87349603  1
  Zn  Zn106  1  0.00054285  0.50149805  0.50089436  1
  Zn  Zn107  1  0.24758599  0.12297720  0.37343764  1
  Zn  Zn108  1  0.37244311  0.24919312  0.62341767  1
  Zn  Zn109  1  0.24753375  0.00041551  0.25121820  1
  Zn  Zn110  1  0.49984826  0.62478236  0.62448085  1
  Zn  Zn111  1  0.12406102  0.87585748  0.25011806  1
  Zn  Zn112  1  0.75087756  0.62441663  0.87668271  1
  Zn  Zn113  1  0.37511018  -0.00055846  0.87391987  1
  Zn  Zn114  1  0.50191845  0.37436429  0.37429833  1
  Zn  Zn115  1  0.00236205  0.75283822  0.24783201  1
  Zn  Zn116  1  0.00026664  0.62589497  0.62337939  1
  Zn  Zn117  1  0.87490726  0.25029333  0.62472453  1
  Zn  Zn118  1  0.74936980  0.24881947  -0.00089931  1
  Zn  Zn119  1  0.62272024  0.37796151  0.75049683  1
  Zn  Zn120  1  0.25226134  0.24839110  0.00005917  1
  Zn  Zn121  1  0.87362727  0.24854872  0.12532276  1
  Zn  Zn122  1  0.37609571  0.24859527  0.12389109  1
  Zn  Zn123  1  0.12577934  0.50131310  0.12642503  1
  Zn  Zn124  1  0.74984835  0.49999475  0.25054822  1
  Zn  Zn125  1  0.62716396  0.12553360  0.00182821  1
  Zn  Zn126  1  0.62216884  0.87627098  0.75055216  1
  Zn  Zn127  1  0.74999990  -0.00022082  0.24989756  1
  Zn  Zn128  1  0.18720966  0.18886955  0.18726317  1
  Zn  Zn129  1  0.18709647  0.18817226  0.68575888  1
  Zn  Zn130  1  0.18640904  0.68930575  0.18802670  1
  Zn  Zn131  1  0.18923984  0.68610546  0.68865667  1
  Zn  Zn132  1  0.68764317  0.18707931  0.18814903  1
  Zn  Zn133  1  0.68641426  0.18742948  0.68956752  1
  Zn  Zn134  1  0.68871568  0.68843278  0.18744674  1
  Zn  Zn135  1  0.68692476  0.68804180  0.68629855  1
  Zn  Zn136  1  0.31226748  0.30996852  0.31407482  1
  Zn  Zn137  1  0.31225585  0.31199648  0.81340078  1
  Zn  Zn138  1  0.31215183  0.81216872  0.31089352  1
  Zn  Zn139  1  0.31275099  0.81187211  0.81396950  1
  Zn  Zn140  1  0.81199055  0.31170210  0.31292222  1
  Zn  Zn141  1  0.81323113  0.31306999  0.81230474  1
  Zn  Zn142  1  0.81250959  0.81132445  0.31261237  1
  Zn  Zn143  1  0.81022972  0.81325861  0.81289573  1
  Zn  Zn144  1  0.18816566  0.43620447  0.43789463  1
  Zn  Zn145  1  0.18791536  0.43837169  0.93843316  1
  Zn  Zn146  1  0.18785124  0.93807080  0.43608675  1
  Zn  Zn147  1  0.18807284  0.93754870  0.93776362  1
  Zn  Zn148  1  0.68888914  0.43868469  0.43687960  1
  Zn  Zn149  1  0.68738003  0.43625732  0.93575032  1
  Zn  Zn150  1  0.68791801  0.93858918  0.43836846  1
  Zn  Zn151  1  0.68714093  0.93666267  0.93815117  1
  Zn  Zn152  1  0.31230577  0.06042193  0.06271675  1
  Zn  Zn153  1  0.31200563  0.06354678  0.56189915  1
  Zn  Zn154  1  0.31362919  0.56067949  0.06279032  1
  Zn  Zn155  1  0.31165834  0.56136852  0.56376619  1
  Zn  Zn156  1  0.81196170  0.06243980  0.06248822  1
  Zn  Zn157  1  0.81148751  0.06276419  0.56290901  1
  Zn  Zn158  1  0.81327364  0.56144632  0.06328435  1
  Zn  Zn159  1  0.81221708  0.56311448  0.56187573  1
  Zn  Zn160  1  0.43839610  0.43753684  0.18738446  1
  Zn  Zn161  1  0.43690457  0.43709127  0.68503783  1
  Zn  Zn162  1  0.43690321  0.93725963  0.18656254  1
  Zn  Zn163  1  0.43783987  0.93670563  0.68772447  1
  Zn  Zn164  1  0.93644480  0.43967849  0.18770166  1
  Zn  Zn165  1  0.93838569  0.43761466  0.68694033  1
  Zn  Zn166  1  0.93768904  0.93859578  0.18851766  1
  Zn  Zn167  1  0.93629403  0.93818716  0.68745442  1
  Zn  Zn168  1  0.06121967  0.06145434  0.31118505  1
  Zn  Zn169  1  0.06339470  0.06233081  0.81205906  1
  Zn  Zn170  1  0.06278282  0.56253547  0.31264241  1
  Zn  Zn171  1  0.06224744  0.56311092  0.81310252  1
  Zn  Zn172  1  0.56279628  0.06205098  0.31241699  1
  Zn  Zn173  1  0.56218928  0.06455656  0.81349012  1
  Zn  Zn174  1  0.56302996  0.56013340  0.31272428  1
  Zn  Zn175  1  0.56235795  0.56524463  0.81256270  1
  Zn  Zn176  1  0.43861277  0.18817715  0.43494720  1
  Zn  Zn177  1  0.43631883  0.18660451  0.93632206  1
  Zn  Zn178  1  0.43845337  0.68632490  0.43750719  1
  Zn  Zn179  1  0.43776770  0.68767277  0.93802070  1
  Zn  Zn180  1  0.93505145  0.19030991  0.43834007  1
  Zn  Zn181  1  0.93820009  0.18841364  0.93747810  1
  Zn  Zn182  1  0.93953755  0.68854863  0.43966498  1
  Zn  Zn183  1  0.93718625  0.68824520  0.93599619  1
  Zn  Zn184  1  0.06436898  0.31120246  0.06398146  1
  Zn  Zn185  1  0.06151617  0.31313834  0.56273790  1
  Zn  Zn186  1  0.06395388  0.81108457  0.06030653  1
  Zn  Zn187  1  0.06139622  0.81174281  0.56113850  1
  Zn  Zn188  1  0.56136445  0.31128739  0.06200277  1
  Zn  Zn189  1  0.56328407  0.31377623  0.56291649  1
  Zn  Zn190  1  0.56225409  0.81230517  0.06344291  1
  Zn  Zn191  1  0.56271305  0.81192500  0.56357212  1
  O  O192  1  0.11977987  0.12053654  0.11926591  1
  O  O193  1  0.11832113  0.11845984  0.61937799  1
  O  O194  1  0.11381649  0.62193202  0.12372295  1
  O  O195  1  0.12614587  0.61588043  0.62084607  1
  O  O196  1  0.61850926  0.11782438  0.12383429  1
  O  O197  1  0.61950576  0.11982087  0.62013628  1
  O  O198  1  0.62056917  0.61900696  0.12031055  1
  O  O199  1  0.62394755  0.61879987  0.61737000  1
  O  O200  1  0.37588210  0.38041241  0.38474517  1
  O  O201  1  0.37550333  0.38124359  0.88431650  1
  O  O202  1  0.38092906  0.87914051  0.38024299  1
  O  O203  1  0.37578745  0.87781319  0.88707916  1
  O  O204  1  0.87893537  0.38113053  0.37977217  1
  O  O205  1  0.88158038  0.37659757  0.88439487  1
  O  O206  1  0.87905272  0.88028203  0.38098857  1
  O  O207  1  0.88059716  0.88081871  0.87947352  1
  O  O208  1  0.25846700  0.00211476  0.37202470  1
  O  O209  1  0.24962148  0.00623507  0.86686446  1
  O  O210  1  0.25536391  0.50540768  0.37035492  1
  O  O211  1  0.25574945  0.50448665  0.86988232  1
  O  O212  1  0.75625207  0.00700573  0.37394675  1
  O  O213  1  0.75509542  0.00495686  0.87073287  1
  O  O214  1  0.75772345  0.50747691  0.37217696  1
  O  O215  1  0.75177498  0.50116394  0.86265376  1
  O  O216  1  0.24966388  0.48949833  0.13178950  1
  O  O217  1  0.23993116  0.49781500  0.63199228  1
  O  O218  1  0.24341880  0.99034250  0.12503824  1
  O  O219  1  0.24383539  0.99410975  0.62902224  1
  O  O220  1  0.74457007  0.48892874  0.12541108  1
  O  O221  1  0.74564107  0.49341903  0.63257437  1
  O  O222  1  0.74305424  0.99283773  0.12568506  1
  O  O223  1  0.74408132  0.99626648  0.63142880  1
  O  O224  1  0.00460861  0.37091441  0.25456131  1
  O  O225  1  0.00513125  0.37049071  0.75662115  1
  O  O226  1  0.00142057  0.87280852  0.25809689  1
  O  O227  1  0.00534620  0.87078557  0.75499314  1
  O  O228  1  0.50679048  0.36819452  0.24998796  1
  O  O229  1  0.49963799  0.36357639  0.75072135  1
  O  O230  1  0.50496775  0.86943430  0.25530260  1
  O  O231  1  0.50139741  0.86698403  0.75375939  1
  O  O232  1  0.49241116  0.12883306  0.24505202  1
  O  O233  1  0.49431843  0.13232039  0.74483987  1
  O  O234  1  0.49529735  0.62880312  0.24537036  1
  O  O235  1  0.49222727  0.63170848  0.74791524  1
  O  O236  1  0.99429234  0.13098767  0.24462948  1
  O  O237  1  0.99552503  0.12941912  0.74534663  1
  O  O238  1  0.99242677  0.62467884  0.24128101  1
  O  O239  1  0.99061576  0.63082505  0.74847702  1
  O  O240  1  0.37382041  0.26046326  0.00171340  1
  O  O241  1  0.37014818  0.25775799  0.49870733  1
  O  O242  1  0.37447643  0.76113952  0.00305772  1
  O  O243  1  0.37003887  0.75520477  0.50454383  1
  O  O244  1  0.87529786  0.26328662  0.00165882  1
  O  O245  1  0.87058563  0.25969404  0.50422305  1
  O  O246  1  0.86843371  0.75701933  -0.00086462  1
  O  O247  1  0.87338173  0.75716092  0.50745630  1
  O  O248  1  0.12837946  0.24504561  0.49468795  1
  O  O249  1  0.12662893  0.24354329  0.99313602  1
  O  O250  1  0.13217390  0.74471949  0.49581448  1
  O  O251  1  0.12743847  0.74693728  0.98958265  1
  O  O252  1  0.62611828  0.24389838  0.49421165  1
  O  O253  1  0.62454349  0.24834795  0.98700179  1
  O  O254  1  0.62483317  0.74344707  0.49308545  1
  O  O255  1  0.62937609  0.74506015  0.99327124  1
  O  O256  1  0.49913517  0.24235097  0.13134168  1
  O  O257  1  0.50026772  0.24414849  0.63475316  1
  O  O258  1  0.49949339  0.74252537  0.13212717  1
  O  O259  1  0.49266842  0.74846696  0.63141569  1
  O  O260  1  0.99892702  0.24388219  0.13198738  1
  O  O261  1  0.99964454  0.24335693  0.63271367  1
  O  O262  1  0.99740647  0.73813187  0.12396843  1
  O  O263  1  0.99317108  0.75011662  0.63235425  1
  O  O264  1  0.00445641  0.25655307  0.36922186  1
  O  O265  1  0.00681183  0.25538004  0.86963821  1
  O  O266  1  0.00726764  0.75703044  0.37571088  1
  O  O267  1  0.00523321  0.75609085  0.86827126  1
  O  O268  1  0.50846650  0.25148966  0.36730816  1
  O  O269  1  0.50745502  0.24874755  0.86509112  1
  O  O270  1  0.50539194  0.75525055  0.36957059  1
  O  O271  1  0.50946472  0.75050073  0.87050472  1
  O  O272  1  0.24213356  0.13040354  0.49776407  1
  O  O273  1  0.24399663  0.12540343  0.99405177  1
  O  O274  1  0.24632535  0.63051387  0.49406593  1
  O  O275  1  0.24883155  0.62485719  0.99313451  1
  O  O276  1  0.74281184  0.12666743  0.49465530  1
  O  O277  1  0.74868836  0.12866779  0.99207045  1
  O  O278  1  0.74312786  0.62690768  0.49324466  1
  O  O279  1  0.74468063  0.63009767  0.99932533  1
  O  O280  1  0.25815681  0.37625124  0.00887252  1
  O  O281  1  0.25896822  0.36829993  0.50018627  1
  O  O282  1  0.25884232  0.87588434  0.00823193  1
  O  O283  1  0.25585542  0.86975879  0.50542693  1
  O  O284  1  0.75913436  0.37555786  0.00676048  1
  O  O285  1  0.75552812  0.37671756  0.51125143  1
  O  O286  1  0.75568168  0.87012953  0.00525859  1
  O  O287  1  0.75616766  0.87489074  0.50757866  1
  O  O288  1  0.13242912  0.49289233  0.24994222  1
  O  O289  1  0.13006949  0.49515022  0.74423573  1
  O  O290  1  0.12673849  0.99815677  0.24086352  1
  O  O291  1  0.12984691  0.99392784  0.74334719  1
  O  O292  1  0.62664664  0.49290992  0.24234826  1
  O  O293  1  0.63463966  0.50170896  0.74456216  1
  O  O294  1  0.62537143  0.99207431  0.24390469  1
  O  O295  1  0.63058180  1.00029377  0.74453221  1
  O  O296  1  0.37614733  0.00956005  0.25520971  1
  O  O297  1  0.36812438  0.00559407  0.75032362  1
  O  O298  1  0.37015354  0.50443275  0.25619375  1
  O  O299  1  0.37018880  0.50381223  0.75480239  1
  O  O300  1  0.87392668  0.00764095  0.25770563  1
  O  O301  1  0.86971053  0.00568910  0.75648005  1
  O  O302  1  0.87421339  0.51167391  0.25602846  1
  O  O303  1  0.86757918  0.50869286  0.74885373  1
  O  O304  1  0.11942334  0.36961290  0.36971919  1
  O  O305  1  0.12027863  0.36996907  0.87068106  1
  O  O306  1  0.11864539  0.86932819  0.37553817  1
  O  O307  1  0.11984632  0.87018780  0.86845771  1
  O  O308  1  0.62571603  0.36918703  0.36787814  1
  O  O309  1  0.62275133  0.36414787  0.87081503  1
  O  O310  1  0.61940454  0.87016607  0.37067032  1
  O  O311  1  0.62277569  0.86218460  0.87482079  1
  O  O312  1  0.38050040  0.12496114  0.13447486  1
  O  O313  1  0.38201028  0.12643949  0.63060049  1
  O  O314  1  0.38193952  0.62457165  0.13208380  1
  O  O315  1  0.37471749  0.63130243  0.63177310  1
  O  O316  1  0.88143875  0.12629482  0.13085571  1
  O  O317  1  0.88109815  0.12553073  0.63237688  1
  O  O318  1  0.88292280  0.62465368  0.13333544  1
  O  O319  1  0.87548150  0.63117393  0.63509868  1
  O  O320  1  0.25264682  0.26292337  0.12380186  1
  O  O321  1  0.25173271  0.25205109  0.61609119  1
  O  O322  1  0.25122373  0.76069071  0.12209260  1
  O  O323  1  0.25521056  0.75564488  0.61972365  1
  O  O324  1  0.75018131  0.26213375  0.12108446  1
  O  O325  1  0.75030735  0.26351495  0.62773849  1
  O  O326  1  0.75149703  0.75682320  0.11747151  1
  O  O327  1  0.75610113  0.75791496  0.62458724  1
  O  O328  1  0.24098736  0.24712714  0.38093322  1
  O  O329  1  0.24307898  0.24260686  0.87588120  1
  O  O330  1  0.24580434  0.74478089  0.38084653  1
  O  O331  1  0.24385793  0.74277210  0.87529536  1
  O  O332  1  0.74297591  0.24327565  0.37682611  1
  O  O333  1  0.74054651  0.24542552  0.87320907  1
  O  O334  1  0.74269775  0.74351843  0.37687740  1
  O  O335  1  0.74023161  0.74886959  0.88062224  1
  O  O336  1  0.00525649  0.11968718  0.00469552  1
  O  O337  1  0.00399194  0.12009515  0.50528903  1
  O  O338  1  -0.00328606  0.61585085  0.00718383  1
  O  O339  1  0.00928569  0.62230927  0.50379367  1
  O  O340  1  0.49859859  0.11443216  0.00584737  1
  O  O341  1  0.50484973  0.11970405  0.50481318  1
  O  O342  1  0.50588392  0.61915391  0.00614919  1
  O  O343  1  0.50589121  0.61733255  0.50075663  1
  O  O344  1  0.49065532  0.38000650  0.49825316  1
  O  O345  1  0.49129316  0.38130949  0.99951413  1
  O  O346  1  0.49456708  0.88040063  0.49473643  1
  O  O347  1  0.49137802  0.88383636  1.00222652  1
  O  O348  1  0.99349271  0.37699450  0.49328020  1
  O  O349  1  0.99387753  0.38204492  0.99806800  1
  O  O350  1  0.99356105  0.88171073  0.49542048  1
  O  O351  1  0.99502028  0.88082740  0.99363691  1
  O  O352  1  0.49299279  0.49729258  0.38135087  1
  O  O353  1  0.49463174  0.49880007  0.88070271  1
  O  O354  1  0.49549462  0.99370006  0.38130951  1
  O  O355  1  0.49912181  0.99901175  0.88667091  1
  O  O356  1  0.99422605  0.49337068  0.37653145  1
  O  O357  1  0.99870262  0.49409852  0.88433633  1
  O  O358  1  0.99378354  0.99505926  0.38152101  1
  O  O359  1  0.99494298  0.99467232  0.87959750  1
  O  O360  1  0.00502288  0.00603142  0.11833771  1
  O  O361  1  0.00510577  0.00497222  0.61967954  1
  O  O362  1  0.00009400  0.50836167  0.11685928  1
  O  O363  1  0.01378915  0.50202213  0.62522580  1
  O  O364  1  0.50530209  0.00359842  0.11716440  1
  O  O365  1  0.50482482  0.00546476  0.61959034  1
  O  O366  1  0.50632500  0.50502921  0.11893859  1
  O  O367  1  0.50671733  0.50123008  0.61821711  1
  O  O368  1  0.24649223  0.37905941  0.24387745  1
  O  O369  1  0.24359242  0.38086314  0.74963439  1
  O  O370  1  0.25002213  0.87747109  0.23739955  1
  O  O371  1  0.24482036  0.87960222  0.74398176  1
  O  O372  1  0.74538829  0.37618247  0.23949291  1
  O  O373  1  0.75163684  0.38584475  0.74188147  1
  O  O374  1  0.74382036  0.87549380  0.24369802  1
  O  O375  1  0.74794599  0.88308716  0.74418476  1
  O  O376  1  0.26166555  0.12441274  0.25046149  1
  O  O377  1  0.25373846  0.11931394  0.75343674  1
  O  O378  1  0.25528816  0.61908979  0.25512692  1
  O  O379  1  0.25638618  0.61831779  0.75671769  1
  O  O380  1  0.75645909  0.12328386  0.25667140  1
  O  O381  1  0.75585638  0.11948526  0.75563602  1
  O  O382  1  0.76013357  0.62417147  0.25443801  1
  O  O383  1  0.75832071  0.61666574  0.74905885  1
  O  O384  1  0.37581664  0.11866905  0.36506897  1
  O  O385  1  0.36758565  0.12251179  0.86747918  1
  O  O386  1  0.36901822  0.61931901  0.37000598  1
  O  O387  1  0.37023047  0.61882327  0.86989922  1
  O  O388  1  0.87009945  0.12016289  0.37086706  1
  O  O389  1  0.87092410  0.11966972  0.87001262  1
  O  O390  1  0.87197640  0.62177102  0.36829042  1
  O  O391  1  0.87246067  0.62359644  0.86192043  1
  O  O392  1  0.13455325  0.37676077  0.13124400  1
  O  O393  1  0.12606474  0.38378954  0.63162642  1
  O  O394  1  0.13344840  0.88066687  0.12306772  1
  O  O395  1  0.13032964  0.87981106  0.62945619  1
  O  O396  1  0.63261200  0.37916155  0.12779771  1
  O  O397  1  0.63498384  0.38230659  0.62721768  1
  O  O398  1  0.63020831  0.87924760  0.13071657  1
  O  O399  1  0.63050777  0.88269165  0.62642225  1
  O  O400  1  0.11877254  0.25565587  0.25567855  1
  O  O401  1  0.11963108  0.25534211  0.75563496  1
  O  O402  1  0.12276242  0.75308930  0.25954888  1
  O  O403  1  0.11998352  0.75554756  0.75394351  1
  O  O404  1  0.61977918  0.25482931  0.25501265  1
  O  O405  1  0.61479465  0.25016816  0.75816114  1
  O  O406  1  0.61905721  0.75481114  0.25591747  1
  O  O407  1  0.61950574  0.74936804  0.75914131  1
  O  O408  1  0.38146770  0.24020693  0.25002134  1
  O  O409  1  0.38387538  0.24446903  0.74883687  1
  O  O410  1  0.38212914  0.74231078  0.24946552  1
  O  O411  1  0.37929495  0.74470460  0.74513809  1
  O  O412  1  0.88164618  0.24371843  0.24898857  1
  O  O413  1  0.88249467  0.24350789  0.74966695  1
  O  O414  1  0.87856895  0.73750496  0.24855511  1
  O  O415  1  0.87891879  0.74389242  0.74587861  1
  O  O416  1  0.37822296  0.49245312  0.49549496  1
  O  O417  1  0.38134897  0.49277502  0.99468192  1
  O  O418  1  0.38078874  0.99440864  0.49536446  1
  O  O419  1  0.38435224  0.99158862  1.00001607  1
  O  O420  1  0.87746659  0.49441250  0.49441494  1
  O  O421  1  0.88407845  0.49045402  0.99896904  1
  O  O422  1  0.88023314  0.99528982  0.49506618  1
  O  O423  1  0.88081977  0.99460932  0.99362808  1
  O  O424  1  0.11849221  0.00578644  0.00432701  1
  O  O425  1  0.11882145  0.00505483  0.50508186  1
  O  O426  1  0.11208209  0.50080613  0.00255309  1
  O  O427  1  0.12674680  0.50471481  0.50953184  1
  O  O428  1  0.61450797  -0.00059118  0.00574116  1
  O  O429  1  0.61847343  0.00622304  0.50572088  1
  O  O430  1  0.62070311  0.50476951  0.00408769  1
  O  O431  1  0.61963564  0.50479977  0.50401682  1
  O  O432  1  0.36732005  0.37501520  0.11765162  1
  O  O433  1  0.37197732  0.37324335  0.61170735  1
  O  O434  1  0.36652295  0.87484797  0.11677610  1
  O  O435  1  0.36910451  0.86963108  0.61871904  1
  O  O436  1  0.86717909  0.37514668  0.11747175  1
  O  O437  1  0.86609415  0.37621032  0.62005619  1
  O  O438  1  0.86996188  0.87446239  0.11791675  1
  O  O439  1  0.86899326  0.87186826  0.62037724  1
  O  O440  1  0.12322772  0.13133019  0.38132063  1
  O  O441  1  0.12968081  0.12972843  0.87981507  1
  O  O442  1  0.13167213  0.62959326  0.38070367  1
  O  O443  1  0.13142374  0.63071304  0.87511231  1
  O  O444  1  0.62971401  0.12966391  0.38026975  1
  O  O445  1  0.63141236  0.13455494  0.87618130  1
  O  O446  1  0.63044833  0.62944969  0.37886040  1
  O  O447  1  0.62682989  0.63547139  0.88184044  1
