# generated using pymatgen
data_V3Zn3O8
_symmetry_space_group_name_H-M   'P 1'
_cell_length_a   17.08530317
_cell_length_b   17.08449585
_cell_length_c   17.08536891
_cell_angle_alpha   90.00451696
_cell_angle_beta   90.01012250
_cell_angle_gamma   89.98541547
_symmetry_Int_Tables_number   1
_chemical_formula_structural   V3Zn3O8
_chemical_formula_sum   'V96 Zn96 O256'
_cell_volume   4987.11284915
_cell_formula_units_Z   32
loop_
 _symmetry_equiv_pos_site_id
 _symmetry_equiv_pos_as_xyz
  1  'x, y, z'
loop_
 _atom_site_type_symbol
 _atom_site_label
 _atom_site_symmetry_multiplicity
 _atom_site_fract_x
 _atom_site_fract_y
 _atom_site_fract_z
 _atom_site_occupancy
  V  V0  1  0.87475095  0.24982375  0.12558127  1
  V  V1  1  0.74974576  0.37558666  0.12492174  1
  V  V2  1  0.62428827  0.25042706  0.37490560  1
  V  V3  1  -0.00006901  0.37312739  0.87426759  1
  V  V4  1  0.00051756  0.75039131  0.25011781  1
  V  V5  1  0.87440243  0.37583207  -0.00075140  1
  V  V6  1  0.37412364  0.37512117  0.50078837  1
  V  V7  1  0.75080214  0.62456630  0.37566495  1
  V  V8  1  0.62386780  0.25162543  0.87452090  1
  V  V9  1  0.62699624  0.62633664  0.00042161  1
  V  V10  1  0.62502856  0.37659881  0.74906555  1
  V  V11  1  0.37424395  0.00054627  0.37441436  1
  V  V12  1  0.49944033  0.12509701  0.12427879  1
  V  V13  1  0.87435795  0.12583948  0.24926071  1
  V  V14  1  0.87518330  0.74998670  0.62298131  1
  V  V15  1  0.00102459  0.50023580  -0.00021882  1
  V  V16  1  0.25039123  0.00011128  0.24896894  1
  V  V17  1  0.00001764  0.87609998  0.37410901  1
  V  V18  1  0.62523489  -0.00066859  0.62536250  1
  V  V19  1  0.12453269  -0.00061474  0.12441982  1
  V  V20  1  0.87485810  -0.00044986  0.37553867  1
  V  V21  1  0.50014604  0.37469267  0.37488574  1
  V  V22  1  0.12593411  0.75020403  0.87473949  1
  V  V23  1  0.12463534  0.87506901  0.25049562  1
  V  V24  1  0.37520532  0.50020700  0.37614612  1
  V  V25  1  0.25048176  0.87474794  0.62408307  1
  V  V26  1  0.12406438  0.12487925  0.49995368  1
  V  V27  1  0.37363795  0.37550039  0.00064157  1
  V  V28  1  0.12462532  0.62400055  0.00052491  1
  V  V29  1  0.12473689  -0.00016152  0.62441598  1
  V  V30  1  0.25125597  0.87388916  0.12407781  1
  V  V31  1  0.37556202  0.75088307  0.62494733  1
  V  V32  1  0.87432192  0.62332281  0.74969816  1
  V  V33  1  0.50151047  0.87536659  0.87511472  1
  V  V34  1  0.00148471  0.24943350  0.75112779  1
  V  V35  1  0.24781572  0.49844533  0.74926589  1
  V  V36  1  0.24970301  0.50007499  0.25003405  1
  V  V37  1  0.25126137  0.00018697  0.75035201  1
  V  V38  1  0.12512471  0.12520750  -0.00156738  1
  V  V39  1  0.37472282  0.12483515  0.74960743  1
  V  V40  1  0.50022141  0.00080210  -0.00080995  1
  V  V41  1  0.62361287  0.12638459  0.00023357  1
  V  V42  1  0.87374123  0.75187945  0.12237071  1
  V  V43  1  0.37448083  0.12468482  0.24865398  1
  V  V44  1  0.50023407  0.50086202  0.50065764  1
  V  V45  1  0.12525476  0.25061650  0.37462253  1
  V  V46  1  0.49973917  0.50030038  0.00196662  1
  V  V47  1  0.37648761  0.62647244  0.75016940  1
  V  V48  1  -0.00325812  -0.00184069  -0.00056568  1
  V  V49  1  0.49924658  0.74941113  0.25025590  1
  V  V50  1  0.24990512  0.62582071  0.37619653  1
  V  V51  1  0.37475628  0.24950672  0.12526471  1
  V  V52  1  0.74902185  0.37527803  0.62480341  1
  V  V53  1  0.00093519  0.49881073  0.50043327  1
  V  V54  1  0.87369622  0.12235853  0.75116375  1
  V  V55  1  0.49943691  0.37580780  0.87537641  1
  V  V56  1  0.49920463  0.25081328  0.74931815  1
  V  V57  1  0.87497665  0.24874718  0.62501268  1
  V  V58  1  0.87560960  0.87492329  0.49970713  1
  V  V59  1  0.87547479  0.37379452  0.49939145  1
  V  V60  1  0.37474010  0.50111405  0.87630163  1
  V  V61  1  -0.00053879  0.87505889  0.87560055  1
  V  V62  1  0.37525972  0.62638101  0.25116980  1
  V  V63  1  0.87445142  0.50028387  0.87343100  1
  V  V64  1  0.62429911  0.12454732  0.50000506  1
  V  V65  1  0.24855116  0.24952844  -0.00107802  1
  V  V66  1  0.37413047  0.25120108  0.62430017  1
  V  V67  1  0.74993121  0.24922295  0.49991706  1
  V  V68  1  0.49952050  0.12578758  0.62439932  1
  V  V69  1  0.62553416  0.62488102  0.49994501  1
  V  V70  1  0.74904151  0.25155461  -0.00045916  1
  V  V71  1  0.24984369  0.25173853  0.49992845  1
  V  V72  1  0.00026273  0.74982931  0.74965791  1
  V  V73  1  0.62454347  0.50016452  0.12602679  1
  V  V74  1  0.50116460  0.74995738  0.75038745  1
  V  V75  1  0.87700033  0.62501891  0.24976259  1
  V  V76  1  0.62502860  0.50025545  0.62461205  1
  V  V77  1  0.25163432  0.75129111  0.00052253  1
  V  V78  1  0.37594197  -0.00015912  0.87416227  1
  V  V79  1  0.25089171  0.62619997  0.87560623  1
  V  V80  1  0.74924951  0.12556880  0.87444670  1
  V  V81  1  0.62602716  0.87583165  0.24991869  1
  V  V82  1  0.62462962  0.37471294  0.25105584  1
  V  V83  1  0.12555606  0.37454113  0.25011900  1
  V  V84  1  0.12514184  0.62418281  0.50059087  1
  V  V85  1  0.74852085  -0.00046076  0.25027396  1
  V  V86  1  0.87597331  0.49919869  0.37449511  1
  V  V87  1  0.62793300  0.87463771  0.74928155  1
  V  V88  1  0.62660110  0.74878593  0.37555073  1
  V  V89  1  0.74965978  0.12465742  0.37553251  1
  V  V90  1  0.24900294  0.37587320  0.12546042  1
  V  V91  1  0.75088944  0.49970060  0.25041171  1
  V  V92  1  0.12585336  0.87441944  0.74893773  1
  V  V93  1  0.00066587  0.37328476  0.37386189  1
  V  V94  1  0.37432874  0.87588356  0.49998398  1
  V  V95  1  0.49847551  0.00044369  0.49932507  1
  Zn  Zn96  1  0.12358384  0.50061057  0.12528188  1
  Zn  Zn97  1  0.37515579  0.74990439  0.12418923  1
  Zn  Zn98  1  0.49927027  0.24928776  0.24997853  1
  Zn  Zn99  1  -0.00198090  0.12540380  0.12568152  1
  Zn  Zn100  1  0.12340786  0.49710571  0.62663910  1
  Zn  Zn101  1  0.49891457  0.62464224  0.12589468  1
  Zn  Zn102  1  0.00137159  0.24822885  0.24773983  1
  Zn  Zn103  1  0.24757538  0.37503026  0.62646854  1
  Zn  Zn104  1  0.12571445  0.37383138  0.74965171  1
  Zn  Zn105  1  0.50137291  0.62595733  0.62543361  1
  Zn  Zn106  1  0.00162092  0.62399111  0.12530733  1
  Zn  Zn107  1  0.74914011  0.50072529  0.75054966  1
  Zn  Zn108  1  0.12629291  0.75152035  0.37575093  1
  Zn  Zn109  1  0.87124768  -0.00302051  0.87559035  1
  Zn  Zn110  1  0.74989460  0.87774634  0.12152575  1
  Zn  Zn111  1  0.49970287  0.87584352  0.37603307  1
  Zn  Zn112  1  0.62537700  0.00094816  0.12468986  1
  Zn  Zn113  1  0.86902453  0.87426323  -0.00273047  1
  Zn  Zn114  1  0.74850870  0.75372906  -0.00139928  1
  Zn  Zn115  1  0.24954729  0.75034361  0.49937509  1
  Zn  Zn116  1  0.75125318  0.87634883  0.62370703  1
  Zn  Zn117  1  -0.00056259  0.00057936  0.50127411  1
  Zn  Zn118  1  0.37768481  0.87387638  0.00130043  1
  Zn  Zn119  1  0.25055843  0.12514460  0.87411289  1
  Zn  Zn120  1  0.62823118  0.74862462  0.87570745  1
  Zn  Zn121  1  0.00147137  0.62162374  0.62454933  1
  Zn  Zn122  1  0.74974276  0.75072688  0.49987653  1
  Zn  Zn123  1  0.24959709  0.12601990  0.37245224  1
  Zn  Zn124  1  0.75047804  -0.00132850  0.75060747  1
  Zn  Zn125  1  -0.00058423  0.12265476  0.62592763  1
  Zn  Zn126  1  0.74999035  0.62571362  0.87640802  1
  Zn  Zn127  1  0.12674477  0.24979311  0.87370958  1
  Zn  Zn128  1  0.18740858  0.18735407  0.18539772  1
  Zn  Zn129  1  0.18833542  0.18622603  0.68541334  1
  Zn  Zn130  1  0.18673903  0.68761320  0.18671211  1
  Zn  Zn131  1  0.18885827  0.68596503  0.68527005  1
  Zn  Zn132  1  0.68724880  0.18781336  0.18744006  1
  Zn  Zn133  1  0.68741556  0.18799219  0.68728013  1
  Zn  Zn134  1  0.68908466  0.68744929  0.18643385  1
  Zn  Zn135  1  0.68945461  0.68785729  0.68598165  1
  Zn  Zn136  1  0.31174532  0.31156367  0.31295568  1
  Zn  Zn137  1  0.31217605  0.31215199  0.81431586  1
  Zn  Zn138  1  0.31144095  0.81292310  0.31437415  1
  Zn  Zn139  1  0.31429880  0.81368713  0.81295300  1
  Zn  Zn140  1  0.81239912  0.31126784  0.31211755  1
  Zn  Zn141  1  0.81242467  0.31228656  0.81178069  1
  Zn  Zn142  1  0.81261886  0.81168277  0.31186074  1
  Zn  Zn143  1  0.81112982  0.80928572  0.81574986  1
  Zn  Zn144  1  0.18789915  0.43794675  0.43711592  1
  Zn  Zn145  1  0.18495294  0.43653782  0.93535574  1
  Zn  Zn146  1  0.18854751  0.93905071  0.43631668  1
  Zn  Zn147  1  0.18827503  0.93726379  0.93684333  1
  Zn  Zn148  1  0.68785795  0.43786306  0.43780081  1
  Zn  Zn149  1  0.68806202  0.44132426  0.93639300  1
  Zn  Zn150  1  0.68875913  0.93551336  0.43813152  1
  Zn  Zn151  1  0.68755475  0.93907082  0.93713104  1
  Zn  Zn152  1  0.31290309  0.06094043  0.06121324  1
  Zn  Zn153  1  0.31018565  0.06350872  0.56215911  1
  Zn  Zn154  1  0.31210215  0.56479929  0.06548531  1
  Zn  Zn155  1  0.31287463  0.56410786  0.56469620  1
  Zn  Zn156  1  0.80976121  0.06342188  0.06417053  1
  Zn  Zn157  1  0.81144937  0.06051612  0.56394054  1
  Zn  Zn158  1  0.81362448  0.56381676  0.06350983  1
  Zn  Zn159  1  0.81219938  0.56204137  0.56233173  1
  Zn  Zn160  1  0.43735631  0.43769530  0.18856408  1
  Zn  Zn161  1  0.43655099  0.43895487  0.68687047  1
  Zn  Zn162  1  0.43789780  0.93699213  0.18597934  1
  Zn  Zn163  1  0.43945607  0.93695567  0.68693542  1
  Zn  Zn164  1  0.93960584  0.43669964  0.18609457  1
  Zn  Zn165  1  0.93813434  0.43668907  0.68610452  1
  Zn  Zn166  1  0.93636948  0.93712204  0.18677729  1
  Zn  Zn167  1  0.93993777  0.93727353  0.68658025  1
  Zn  Zn168  1  0.06043082  0.06294838  0.31252677  1
  Zn  Zn169  1  0.06247905  0.06109814  0.81394059  1
  Zn  Zn170  1  0.06326996  0.56242695  0.31344167  1
  Zn  Zn171  1  0.06135945  0.56282930  0.81449193  1
  Zn  Zn172  1  0.56009439  0.06249713  0.31240620  1
  Zn  Zn173  1  0.56265930  0.06196943  0.81223066  1
  Zn  Zn174  1  0.56257985  0.56268741  0.31365686  1
  Zn  Zn175  1  0.56239402  0.56271830  0.81379638  1
  Zn  Zn176  1  0.43625189  0.18746046  0.43577654  1
  Zn  Zn177  1  0.43609695  0.18719449  0.93699361  1
  Zn  Zn178  1  0.43843317  0.68875691  0.43791945  1
  Zn  Zn179  1  0.44009509  0.68901126  0.93790783  1
  Zn  Zn180  1  0.93926211  0.18707597  0.43585023  1
  Zn  Zn181  1  0.93682458  0.18643341  0.93745585  1
  Zn  Zn182  1  0.94039548  0.68777481  0.43625523  1
  Zn  Zn183  1  0.93850870  0.68678974  0.93728667  1
  Zn  Zn184  1  0.06136542  0.31221383  0.06360643  1
  Zn  Zn185  1  0.06387748  0.31329487  0.56615124  1
  Zn  Zn186  1  0.06210309  0.81176027  0.06332129  1
  Zn  Zn187  1  0.06123651  0.81135347  0.56117040  1
  Zn  Zn188  1  0.56108504  0.31289464  0.06381825  1
  Zn  Zn189  1  0.56189136  0.31335486  0.56162856  1
  Zn  Zn190  1  0.56219828  0.81294745  0.06446743  1
  Zn  Zn191  1  0.56091657  0.81259210  0.56298782  1
  O  O192  1  0.12318983  0.11847810  0.11406656  1
  O  O193  1  0.12457661  0.11937849  0.61528928  1
  O  O194  1  0.12307688  0.62215610  0.11611182  1
  O  O195  1  0.12342060  0.62131339  0.61387530  1
  O  O196  1  0.61786269  0.12672542  0.11771091  1
  O  O197  1  0.61882563  0.12138966  0.61936603  1
  O  O198  1  0.62328024  0.61723899  0.11887546  1
  O  O199  1  0.62498073  0.61854291  0.61825106  1
  O  O200  1  0.38040288  0.38071439  0.38065045  1
  O  O201  1  0.38055050  0.38088081  0.88160333  1
  O  O202  1  0.37596053  0.88310235  0.38175562  1
  O  O203  1  0.38399601  0.88257694  0.87480891  1
  O  O204  1  0.87940554  0.37929787  0.38024236  1
  O  O205  1  0.87958159  0.37941982  0.88032060  1
  O  O206  1  0.87984776  0.88023900  0.37937588  1
  O  O207  1  0.88416107  0.87670579  0.87618037  1
  O  O208  1  0.25666402  0.00253441  0.36633153  1
  O  O209  1  0.25744597  0.00035214  0.86736996  1
  O  O210  1  0.25701677  0.50521582  0.36949477  1
  O  O211  1  0.25572772  0.50616079  0.86877501  1
  O  O212  1  0.75493107  0.00626348  0.37046871  1
  O  O213  1  0.75178458  0.01055675  0.87114661  1
  O  O214  1  0.75647169  0.50404174  0.36967007  1
  O  O215  1  0.75916402  0.50296892  0.87043680  1
  O  O216  1  0.24948557  0.49270257  0.13237572  1
  O  O217  1  0.25143222  0.49963678  0.63934318  1
  O  O218  1  0.24410535  0.99370283  0.12918405  1
  O  O219  1  0.24486643  0.99408015  0.63121650  1
  O  O220  1  0.74550129  0.49383884  0.13153185  1
  O  O221  1  0.74336512  0.49202451  0.62531106  1
  O  O222  1  0.74537024  0.99928534  0.13496859  1
  O  O223  1  0.74065734  0.99732746  0.62941117  1
  O  O224  1  0.00698608  0.37342940  0.25673358  1
  O  O225  1  -0.00304571  0.36326546  0.75545027  1
  O  O226  1  0.00530376  0.87113931  0.25525373  1
  O  O227  1  0.00678864  0.86948452  0.75528026  1
  O  O228  1  0.50662832  0.37380596  0.25725842  1
  O  O229  1  0.50441231  0.37026905  0.75565340  1
  O  O230  1  0.50819166  0.86744878  0.25280495  1
  O  O231  1  0.50893279  0.87043631  0.75428486  1
  O  O232  1  0.49279229  0.12654184  0.24267366  1
  O  O233  1  0.49534721  0.13164205  0.74377221  1
  O  O234  1  0.49506547  0.63372306  0.25154821  1
  O  O235  1  0.49377269  0.63129718  0.74994974  1
  O  O236  1  0.99066686  0.12686455  0.24669249  1
  O  O237  1  0.99055571  0.13256980  0.75131754  1
  O  O238  1  0.99416857  0.63115373  0.25030327  1
  O  O239  1  0.99069905  0.63063086  0.74863733  1
  O  O240  1  0.36922044  0.25593277  0.00507141  1
  O  O241  1  0.37012468  0.25499371  0.50460012  1
  O  O242  1  0.36791296  0.75226915  0.00187091  1
  O  O243  1  0.37468184  0.75729373  0.50653316  1
  O  O244  1  0.86794212  0.25590517  0.00413383  1
  O  O245  1  0.86944102  0.25371001  0.50453364  1
  O  O246  1  0.87649661  0.74997477  0.01133439  1
  O  O247  1  0.87694504  0.75431505  0.50870565  1
  O  O248  1  0.12967360  0.24351890  0.49568671  1
  O  O249  1  0.12900324  0.23989007  1.00016687  1
  O  O250  1  0.12598709  0.73769517  0.49820547  1
  O  O251  1  0.13060973  0.74469338  0.99333864  1
  O  O252  1  0.63017665  0.24447482  0.49509932  1
  O  O253  1  0.62944233  0.24702492  0.99364263  1
  O  O254  1  0.62534433  0.74392559  0.49388714  1
  O  O255  1  0.62322516  0.73717773  1.00214451  1
  O  O256  1  0.49203840  0.24403251  0.12582378  1
  O  O257  1  0.49480924  0.24520047  0.62965721  1
  O  O258  1  0.49924557  0.74843949  0.14025253  1
  O  O259  1  0.49285227  0.74882689  0.63282698  1
  O  O260  1  0.98965882  0.24786524  0.12638918  1
  O  O261  1  0.99282612  0.24819923  0.63529251  1
  O  O262  1  0.99124413  0.74878346  0.13204564  1
  O  O263  1  0.99036829  0.74781031  0.63113628  1
  O  O264  1  0.00688225  0.25700470  0.37279691  1
  O  O265  1  -0.00148979  0.25458783  0.86552981  1
  O  O266  1  0.00091645  0.75820941  0.36682796  1
  O  O267  1  0.00702101  0.75536725  0.86925142  1
  O  O268  1  0.50664955  0.25667275  0.37425480  1
  O  O269  1  0.50417918  0.25655139  0.86921644  1
  O  O270  1  0.50717765  0.75130846  0.36486384  1
  O  O271  1  0.50376473  0.75734457  0.86774971  1
  O  O272  1  0.23906393  0.13136218  0.49837895  1
  O  O273  1  0.24031691  0.12958404  0.99972069  1
  O  O274  1  0.24126656  0.62366809  0.49482274  1
  O  O275  1  0.24549930  0.63027285  0.99389433  1
  O  O276  1  0.74391001  0.13002966  0.49501362  1
  O  O277  1  0.74387409  0.13252609  0.99447286  1
  O  O278  1  0.74403120  0.62565511  0.49262023  1
  O  O279  1  0.73714309  0.62381718  1.00115687  1
  O  O280  1  0.25493272  0.37052938  0.00454857  1
  O  O281  1  0.25725983  0.36968196  0.50089460  1
  O  O282  1  0.25034439  0.86885083  0.00601683  1
  O  O283  1  0.25591322  0.87498575  0.50705441  1
  O  O284  1  0.75422816  0.37111991  0.00501980  1
  O  O285  1  0.75558040  0.36865398  0.50418053  1
  O  O286  1  0.75104528  0.87307949  0.00414965  1
  O  O287  1  0.75917757  0.87065535  0.50242322  1
  O  O288  1  0.13243128  0.49280536  0.25034617  1
  O  O289  1  0.13707081  0.50159592  0.75155616  1
  O  O290  1  0.12984458  0.99537099  0.24401369  1
  O  O291  1  0.13045591  0.99442818  0.74497343  1
  O  O292  1  0.63125233  0.49453948  0.24662276  1
  O  O293  1  0.62531528  0.49364738  0.74326828  1
  O  O294  1  0.62912545  0.99096101  0.25199155  1
  O  O295  1  0.62387668  0.99085433  0.74374177  1
  O  O296  1  0.37000606  0.00500150  0.25411974  1
  O  O297  1  0.37137317  0.00562658  0.75317734  1
  O  O298  1  0.37012200  0.50536144  0.25726254  1
  O  O299  1  0.36881383  0.50574280  0.75708553  1
  O  O300  1  0.86828461  0.00517288  0.25571457  1
  O  O301  1  0.87498593  0.01190020  0.75076608  1
  O  O302  1  0.87036558  0.50385545  0.25521894  1
  O  O303  1  0.87599475  0.50846350  0.75360577  1
  O  O304  1  0.12011412  0.36990518  0.37019220  1
  O  O305  1  0.11519991  0.37028012  0.87092940  1
  O  O306  1  0.11870377  0.87564090  0.36822318  1
  O  O307  1  0.12073147  0.86943812  0.86787501  1
  O  O308  1  0.62039056  0.37017840  0.37078755  1
  O  O309  1  0.61887042  0.37113735  0.86988551  1
  O  O310  1  0.62353853  0.86868598  0.36566820  1
  O  O311  1  0.61910824  0.87557243  0.86363412  1
  O  O312  1  0.37967598  0.13000697  0.12889888  1
  O  O313  1  0.38067608  0.13090222  0.62962374  1
  O  O314  1  0.37813479  0.62843817  0.13555517  1
  O  O315  1  0.37727693  0.63244643  0.63243196  1
  O  O316  1  0.87331483  0.13253558  0.13149415  1
  O  O317  1  0.87505305  0.13042691  0.63425820  1
  O  O318  1  0.87741002  0.63361786  0.13204465  1
  O  O319  1  0.87737800  0.63199632  0.63166008  1
  O  O320  1  0.25579003  0.25620216  0.11827408  1
  O  O321  1  0.25779688  0.25144647  0.61885011  1
  O  O322  1  0.25028366  0.75693151  0.11839552  1
  O  O323  1  0.25762427  0.75747756  0.62409827  1
  O  O324  1  0.75384458  0.25674481  0.11855162  1
  O  O325  1  0.75438177  0.25519122  0.61849086  1
  O  O326  1  0.76213584  0.75182742  0.12448285  1
  O  O327  1  0.76483412  0.75136892  0.62319262  1
  O  O328  1  0.24321975  0.24892952  0.38228150  1
  O  O329  1  0.24765783  0.24601993  0.88305355  1
  O  O330  1  0.24749007  0.74142180  0.37854737  1
  O  O331  1  0.24515823  0.74561241  0.87935521  1
  O  O332  1  0.74440885  0.24452970  0.38139644  1
  O  O333  1  0.74305879  0.24670122  0.88037665  1
  O  O334  1  0.74447749  0.74143721  0.37520101  1
  O  O335  1  0.74560591  0.74302976  0.88070016  1
  O  O336  1  0.00761341  0.11574207  0.00022838  1
  O  O337  1  0.01226410  0.12509221  0.50203743  1
  O  O338  1  0.00760485  0.61756998  -0.00096927  1
  O  O339  1  0.00933460  0.61739113  0.49828646  1
  O  O340  1  0.50461720  0.12142793  0.00421898  1
  O  O341  1  0.50478444  0.12071870  0.50539005  1
  O  O342  1  0.50819391  0.61795138  0.00288470  1
  O  O343  1  0.50722878  0.61780860  0.50049224  1
  O  O344  1  0.49437546  0.38078404  0.49416519  1
  O  O345  1  0.49375544  0.38029926  0.99480987  1
  O  O346  1  0.49300969  0.88305457  0.49887467  1
  O  O347  1  0.50182087  0.88207545  0.99351184  1
  O  O348  1  0.99433258  0.37827355  0.49399731  1
  O  O349  1  0.99324580  0.37905239  0.99398565  1
  O  O350  1  0.99364625  0.87696072  0.49237051  1
  O  O351  1  1.00171577  0.88500232  0.99395282  1
  O  O352  1  0.49496638  0.49427762  0.38089291  1
  O  O353  1  0.49367680  0.49400585  0.88130085  1
  O  O354  1  0.49230259  0.99982455  0.38233138  1
  O  O355  1  0.49552966  0.99540253  0.87951762  1
  O  O356  1  0.99407460  0.49266115  0.38016874  1
  O  O357  1  0.99346031  0.49275988  0.87968100  1
  O  O358  1  0.99185130  0.99355968  0.37588474  1
  O  O359  1  0.99932670  0.99355572  0.88449649  1
  O  O360  1  0.00591849  -0.00013223  0.11491732  1
  O  O361  1  0.00952226  0.00265366  0.62262311  1
  O  O362  1  0.00210139  0.50152940  0.11505733  1
  O  O363  1  0.00134406  0.50094023  0.61552144  1
  O  O364  1  0.50177539  0.00738914  0.11757360  1
  O  O365  1  0.50508405  0.00712337  0.61889641  1
  O  O366  1  0.50676417  0.49974731  0.11966527  1
  O  O367  1  0.50674812  0.50125422  0.61813706  1
  O  O368  1  0.24563347  0.38068241  0.24554138  1
  O  O369  1  0.25057039  0.38697836  0.75175019  1
  O  O370  1  0.24436278  0.88066996  0.24456880  1
  O  O371  1  0.24486144  0.88032629  0.74399829  1
  O  O372  1  0.74472862  0.38062237  0.24513856  1
  O  O373  1  0.74299854  0.37443938  0.74253114  1
  O  O374  1  0.74006923  0.88091387  0.25152448  1
  O  O375  1  0.73847889  0.87543331  0.74856149  1
  O  O376  1  0.25620266  0.11757170  0.24840980  1
  O  O377  1  0.25697653  0.11806747  0.75031695  1
  O  O378  1  0.25488753  0.62003830  0.25649185  1
  O  O379  1  0.25612272  0.61874677  0.75675135  1
  O  O380  1  0.75364892  0.12015211  0.25719710  1
  O  O381  1  0.75887242  0.12750148  0.75542681  1
  O  O382  1  0.75603449  0.61799898  0.25578515  1
  O  O383  1  0.76410373  0.62353002  0.74988682  1
  O  O384  1  0.37266275  0.11905091  0.36751690  1
  O  O385  1  0.37506038  0.11824552  0.86659269  1
  O  O386  1  0.37009681  0.61903906  0.37132806  1
  O  O387  1  0.37011241  0.62012709  0.87027334  1
  O  O388  1  0.86836825  0.12027975  0.37051038  1
  O  O389  1  0.86801826  0.12567219  0.86553251  1
  O  O390  1  0.87081231  0.61854422  0.36969038  1
  O  O391  1  0.87679227  0.61917035  0.86422782  1
  O  O392  1  0.13229742  0.37568596  0.13127554  1
  O  O393  1  0.12996509  0.37923321  0.63153915  1
  O  O394  1  0.13070371  0.88053832  0.13086717  1
  O  O395  1  0.13000777  0.87909662  0.62983791  1
  O  O396  1  0.63070070  0.38003169  0.13039711  1
  O  O397  1  0.62935507  0.37964200  0.62924946  1
  O  O398  1  0.62588120  0.87637568  0.13992462  1
  O  O399  1  0.62453962  0.88040370  0.63417948  1
  O  O400  1  0.12541211  0.25608784  0.25599409  1
  O  O401  1  0.11237951  0.24645262  0.75133385  1
  O  O402  1  0.11839109  0.75735035  0.25124044  1
  O  O403  1  0.12060953  0.75448551  0.75440150  1
  O  O404  1  0.62453909  0.25700611  0.25750166  1
  O  O405  1  0.61834656  0.25604219  0.75464914  1
  O  O406  1  0.61901525  0.75561313  0.25528646  1
  O  O407  1  0.61995862  0.75882084  0.74843611  1
  O  O408  1  0.37489963  0.24359474  0.24290848  1
  O  O409  1  0.38073310  0.24546878  0.74497767  1
  O  O410  1  0.38512002  0.74536219  0.25287237  1
  O  O411  1  0.38093322  0.74585854  0.74532305  1
  O  O412  1  0.87403728  0.24364588  0.24366170  1
  O  O413  1  0.88154049  0.24160650  0.74544488  1
  O  O414  1  0.88049786  0.74477976  0.24289042  1
  O  O415  1  0.88085018  0.74261410  0.74253531  1
  O  O416  1  0.38021365  0.49551494  0.49528030  1
  O  O417  1  0.37897726  0.49538788  0.99556554  1
  O  O418  1  0.37891339  0.99650161  0.49547985  1
  O  O419  1  0.38256019  0.99896352  0.99217789  1
  O  O420  1  0.87982739  0.49334217  0.49355203  1
  O  O421  1  0.88002750  0.49468923  0.99408672  1
  O  O422  1  0.87625386  0.99423949  0.49363290  1
  O  O423  1  0.88673594  1.00098733  0.99927558  1
  O  O424  1  0.11774324  0.00641928  0.00411040  1
  O  O425  1  0.12566903  0.00993687  0.50502679  1
  O  O426  1  0.11891930  0.50648291  -0.00109715  1
  O  O427  1  0.11960193  0.50817880  0.49963866  1
  O  O428  1  0.61772650  0.00976445  0.00055689  1
  O  O429  1  0.61915419  0.00569533  0.50435096  1
  O  O430  1  0.61921916  0.50564290  0.00629124  1
  O  O431  1  0.61966120  0.50437159  0.50443410  1
  O  O432  1  0.36930353  0.37002156  0.11970176  1
  O  O433  1  0.37452952  0.36842679  0.61810014  1
  O  O434  1  0.36660903  0.87231884  0.12278990  1
  O  O435  1  0.36977046  0.87134602  0.62015268  1
  O  O436  1  0.86807468  0.37060885  0.11891714  1
  O  O437  1  0.86903958  0.36823187  0.61846467  1
  O  O438  1  0.87310691  0.86410498  0.12364171  1
  O  O439  1  0.87590718  0.86568461  0.62029187  1
  O  O440  1  0.12586639  0.13068343  0.38396540  1
  O  O441  1  0.12701376  0.12495618  0.88786645  1
  O  O442  1  0.13144176  0.62509780  0.38476607  1
  O  O443  1  0.13127662  0.63173047  0.87997004  1
  O  O444  1  0.62970016  0.13005060  0.38082891  1
  O  O445  1  0.62846831  0.13305822  0.87934361  1
  O  O446  1  0.63170584  0.62873245  0.38013149  1
  O  O447  1  0.62607040  0.62390765  0.88754038  1
