# generated using pymatgen
data_V3Zn3O8
_symmetry_space_group_name_H-M   'P 1'
_cell_length_a   17.08670868
_cell_length_b   17.08738651
_cell_length_c   17.08572685
_cell_angle_alpha   90.00846333
_cell_angle_beta   89.99618685
_cell_angle_gamma   90.00660304
_symmetry_Int_Tables_number   1
_chemical_formula_structural   V3Zn3O8
_chemical_formula_sum   'V96 Zn96 O256'
_cell_volume   4988.47165159
_cell_formula_units_Z   32
loop_
 _symmetry_equiv_pos_site_id
 _symmetry_equiv_pos_as_xyz
  1  'x, y, z'
loop_
 _atom_site_type_symbol
 _atom_site_label
 _atom_site_symmetry_multiplicity
 _atom_site_fract_x
 _atom_site_fract_y
 _atom_site_fract_z
 _atom_site_occupancy
  V  V0  1  0.00082719  0.74963612  0.25044445  1
  V  V1  1  0.87683077  0.87594970  0.50041320  1
  V  V2  1  0.12575567  0.87435260  0.25032703  1
  V  V3  1  0.87438056  0.12547807  0.74928302  1
  V  V4  1  0.37574558  0.37514766  0.49819568  1
  V  V5  1  0.74942110  0.87514028  0.12637482  1
  V  V6  1  0.75008244  0.50068305  0.25005251  1
  V  V7  1  0.50033274  0.37617582  0.37460339  1
  V  V8  1  0.12451085  0.37529763  0.74966549  1
  V  V9  1  0.12601369  0.12546636  -0.00196950  1
  V  V10  1  0.25024832  0.62436887  0.37603524  1
  V  V11  1  0.62602172  0.62654739  0.50142285  1
  V  V12  1  0.12491360  0.50067480  0.62422477  1
  V  V13  1  0.87481802  0.24909819  0.12573575  1
  V  V14  1  0.37443910  0.87337557  0.50187209  1
  V  V15  1  0.87516074  0.00003241  0.87544788  1
  V  V16  1  0.12590857  0.62577831  -0.00000716  1
  V  V17  1  -0.00003533  0.49962629  -0.00010006  1
  V  V18  1  0.49946069  -0.00122980  -0.00071711  1
  V  V19  1  0.37621859  0.49960496  0.37520561  1
  V  V20  1  0.75051554  0.62407116  0.87566393  1
  V  V21  1  0.49953174  0.37421917  0.87395017  1
  V  V22  1  0.74980129  0.74926191  0.00082028  1
  V  V23  1  0.37492805  0.12487230  0.24951183  1
  V  V24  1  0.87394966  0.00152083  0.37311661  1
  V  V25  1  0.12474904  0.74985135  0.87600488  1
  V  V26  1  0.62508293  -0.00123572  0.12519564  1
  V  V27  1  0.00035064  0.62467541  0.12499801  1
  V  V28  1  0.62575582  0.50091599  0.62489622  1
  V  V29  1  0.25062865  0.37534306  0.62345096  1
  V  V30  1  0.49910221  0.12447862  0.12476582  1
  V  V31  1  0.37500143  0.87429845  0.00040037  1
  V  V32  1  0.50069069  0.49951057  0.00052878  1
  V  V33  1  0.62532260  0.37602311  0.24992351  1
  V  V34  1  0.49853304  0.24814014  0.74829059  1
  V  V35  1  0.37274609  0.00117191  0.87345212  1
  V  V36  1  0.00003409  0.00065403  0.50072199  1
  V  V37  1  0.00065861  0.37485270  0.37415066  1
  V  V38  1  0.12452145  0.24995999  0.37406139  1
  V  V39  1  0.37440956  0.24827467  0.62317630  1
  V  V40  1  0.00070097  0.37475097  0.87436049  1
  V  V41  1  -0.00149118  0.12434028  0.12560744  1
  V  V42  1  0.12534844  0.49894714  0.12498966  1
  V  V43  1  0.37672982  0.62560710  0.24890376  1
  V  V44  1  0.62625043  0.24980888  0.37360604  1
  V  V45  1  0.75033148  0.50014337  0.75131756  1
  V  V46  1  -0.00005940  0.25141684  0.75015606  1
  V  V47  1  0.87644573  0.75008712  0.62587676  1
  V  V48  1  0.24967572  -0.00048005  0.25000247  1
  V  V49  1  0.75021166  0.00136281  0.74874772  1
  V  V50  1  0.37545479  0.62484669  0.75013802  1
  V  V51  1  0.62501292  0.49966971  0.12524479  1
  V  V52  1  0.74845110  0.24872938  -0.00240164  1
  V  V53  1  0.12458808  0.00022728  0.12501174  1
  V  V54  1  0.62472392  0.12452177  -0.00083168  1
  V  V55  1  0.87514454  0.75045422  0.12577332  1
  V  V56  1  0.24986655  0.87506270  0.62658714  1
  V  V57  1  0.25005724  0.74981761  0.00063817  1
  V  V58  1  0.62458645  0.12454570  0.49911121  1
  V  V59  1  0.25083171  0.50043672  0.74963390  1
  V  V60  1  0.49936674  0.87534724  0.37647030  1
  V  V61  1  0.75050942  0.87535506  0.62545150  1
  V  V62  1  0.87456153  0.37570237  0.50013372  1
  V  V63  1  0.24894665  0.12497785  0.37514801  1
  V  V64  1  0.75093021  0.75063363  0.50081816  1
  V  V65  1  0.00102280  0.62512103  0.62521287  1
  V  V66  1  0.87473317  0.62461732  0.25072585  1
  V  V67  1  0.62505693  0.87441598  0.75143535  1
  V  V68  1  0.62515235  0.75084911  0.87494696  1
  V  V69  1  0.24930203  0.24971583  -0.00089579  1
  V  V70  1  0.75019706  0.37590781  0.62463813  1
  V  V71  1  0.00098138  0.50056946  0.50050651  1
  V  V72  1  0.62500854  0.87519737  0.25063520  1
  V  V73  1  0.25069058  0.87404557  0.12501656  1
  V  V74  1  0.24972820  0.37524903  0.12509824  1
  V  V75  1  0.37445278  0.49980925  0.87473266  1
  V  V76  1  0.87539203  0.87551566  0.00011042  1
  V  V77  1  0.12570989  0.74959688  0.37644137  1
  V  V78  1  0.62452579  0.62400475  0.00097051  1
  V  V79  1  0.49978477  0.62680427  0.62666697  1
  V  V80  1  0.37548881  0.24939030  0.12478634  1
  V  V81  1  0.37485015  0.37480527  0.00026186  1
  V  V82  1  0.62607302  0.75066687  0.37679467  1
  V  V83  1  0.87399615  0.25150441  0.62435795  1
  V  V84  1  -0.00000538  0.74981277  0.75014858  1
  V  V85  1  0.12484271  0.87676101  0.75068911  1
  V  V86  1  0.00007646  0.12566689  0.62419027  1
  V  V87  1  0.62425644  0.00094858  0.62447195  1
  V  V88  1  0.37476457  -0.00070943  0.37535704  1
  V  V89  1  0.12477267  0.37462065  0.24944285  1
  V  V90  1  0.62404607  0.37455231  0.74931092  1
  V  V91  1  0.87512754  0.50062433  0.37453163  1
  V  V92  1  0.49971588  0.74982594  0.25055206  1
  V  V93  1  0.87451230  0.50049700  0.87551395  1
  V  V94  1  0.12442329  0.12487857  0.49929094  1
  V  V95  1  0.87490554  0.37401762  -0.00033661  1
  Zn  Zn96  1  0.74972970  0.37509911  0.12470618  1
  Zn  Zn97  1  0.37101891  0.12311602  0.74801937  1
  Zn  Zn98  1  0.49972700  0.00001512  0.50168408  1
  Zn  Zn99  1  0.12505372  0.00194320  0.62630635  1
  Zn  Zn100  1  0.75058116  0.62619543  0.37632084  1
  Zn  Zn101  1  0.37401430  0.74987461  0.62864583  1
  Zn  Zn102  1  0.24989560  0.24952449  0.49867988  1
  Zn  Zn103  1  0.49979682  0.62644938  0.12421373  1
  Zn  Zn104  1  0.25084929  0.62514133  0.87494790  1
  Zn  Zn105  1  0.12615187  0.25002765  0.87363807  1
  Zn  Zn106  1  0.25088229  0.49888503  0.24911887  1
  Zn  Zn107  1  0.24868198  0.00334616  0.75080295  1
  Zn  Zn108  1  0.75017974  0.00179125  0.24969941  1
  Zn  Zn109  1  0.24948391  0.74873419  0.50291284  1
  Zn  Zn110  1  0.00095459  0.87530736  0.37550628  1
  Zn  Zn111  1  0.62369445  0.24748785  0.87323896  1
  Zn  Zn112  1  0.37661748  0.74978651  0.12378922  1
  Zn  Zn113  1  0.74726906  0.12552267  0.87231545  1
  Zn  Zn114  1  0.49771270  0.12230561  0.62411314  1
  Zn  Zn115  1  0.49811083  0.75176621  0.75309521  1
  Zn  Zn116  1  0.87534723  0.62570425  0.75077538  1
  Zn  Zn117  1  0.75020840  0.12585504  0.37126389  1
  Zn  Zn118  1  0.75020738  0.25074634  0.49896811  1
  Zn  Zn119  1  0.50020958  0.87365456  0.87449626  1
  Zn  Zn120  1  0.12620967  0.62501950  0.50044831  1
  Zn  Zn121  1  -0.00196832  0.24982332  0.25065178  1
  Zn  Zn122  1  0.87202170  0.12502494  0.25061921  1
  Zn  Zn123  1  0.50075398  0.25025705  0.24813389  1
  Zn  Zn124  1  0.00020913  -0.00181245  -0.00059896  1
  Zn  Zn125  1  0.50151548  0.50092373  0.49982313  1
  Zn  Zn126  1  0.00004147  0.87433880  0.87718025  1
  Zn  Zn127  1  0.24912386  0.12737634  0.87052669  1
  Zn  Zn128  1  0.18751067  0.18880803  0.18774105  1
  Zn  Zn129  1  0.18764757  0.18751097  0.68747517  1
  Zn  Zn130  1  0.18910067  0.68763484  0.18773170  1
  Zn  Zn131  1  0.18785704  0.68810004  0.68893974  1
  Zn  Zn132  1  0.68848217  0.18456345  0.18793628  1
  Zn  Zn133  1  0.68725033  0.18773779  0.68477481  1
  Zn  Zn134  1  0.68705389  0.68658424  0.18870963  1
  Zn  Zn135  1  0.68837182  0.68806401  0.68929327  1
  Zn  Zn136  1  0.31156291  0.31105731  0.31116381  1
  Zn  Zn137  1  0.31106318  0.31237081  0.81247772  1
  Zn  Zn138  1  0.31241113  0.81123637  0.31302183  1
  Zn  Zn139  1  0.31265319  0.81170036  0.81431089  1
  Zn  Zn140  1  0.81087944  0.31448248  0.31144538  1
  Zn  Zn141  1  0.81283965  0.31325849  0.81245184  1
  Zn  Zn142  1  0.81247552  0.81468150  0.31375747  1
  Zn  Zn143  1  0.81176123  0.81297040  0.81281871  1
  Zn  Zn144  1  0.18868758  0.43722168  0.43743855  1
  Zn  Zn145  1  0.18762999  0.43772619  0.93665911  1
  Zn  Zn146  1  0.18767950  0.93808407  0.43885663  1
  Zn  Zn147  1  0.18892855  0.93759901  0.93765166  1
  Zn  Zn148  1  0.68816409  0.43938140  0.43769711  1
  Zn  Zn149  1  0.68657698  0.43510517  0.93680085  1
  Zn  Zn150  1  0.68897141  0.93795244  0.43823248  1
  Zn  Zn151  1  0.68909260  0.93703497  0.93759619  1
  Zn  Zn152  1  0.31177622  0.06156740  0.06135665  1
  Zn  Zn153  1  0.30986775  0.06051911  0.56187807  1
  Zn  Zn154  1  0.31187018  0.56212893  0.06249174  1
  Zn  Zn155  1  0.31431887  0.56090155  0.56156789  1
  Zn  Zn156  1  0.81040849  0.06227744  0.06125669  1
  Zn  Zn157  1  0.81077674  0.06425221  0.55978046  1
  Zn  Zn158  1  0.81156608  0.56214596  0.06384972  1
  Zn  Zn159  1  0.81362037  0.56389449  0.56319335  1
  Zn  Zn160  1  0.43917334  0.43829549  0.18804495  1
  Zn  Zn161  1  0.43750672  0.43787132  0.68597602  1
  Zn  Zn162  1  0.43786907  0.93702279  0.18755812  1
  Zn  Zn163  1  0.44021873  0.93762012  0.68911063  1
  Zn  Zn164  1  0.93752321  0.43623545  0.18759556  1
  Zn  Zn165  1  0.93675732  0.43885238  0.68800871  1
  Zn  Zn166  1  0.93881797  0.93668897  0.18857514  1
  Zn  Zn167  1  0.93895998  0.93790094  0.68765582  1
  Zn  Zn168  1  0.06025126  0.06266495  0.31246329  1
  Zn  Zn169  1  0.05984574  0.06260975  0.81220616  1
  Zn  Zn170  1  0.06275247  0.56121103  0.31130983  1
  Zn  Zn171  1  0.06314560  0.56349724  0.81228314  1
  Zn  Zn172  1  0.56070349  0.06160430  0.31206295  1
  Zn  Zn173  1  0.56054669  0.06257399  0.81293753  1
  Zn  Zn174  1  0.56325478  0.56315725  0.31431046  1
  Zn  Zn175  1  0.56274805  0.56273429  0.81326126  1
  Zn  Zn176  1  0.43994136  0.18788927  0.43618583  1
  Zn  Zn177  1  0.43663885  0.18583857  0.93658223  1
  Zn  Zn178  1  0.43868453  0.68907209  0.43919728  1
  Zn  Zn179  1  0.43808215  0.68717260  0.93634150  1
  Zn  Zn180  1  0.93779817  0.18783463  0.43800209  1
  Zn  Zn181  1  0.93801117  0.18643756  0.93660766  1
  Zn  Zn182  1  0.93853190  0.68650636  0.43861729  1
  Zn  Zn183  1  0.93820993  0.68805934  0.93717300  1
  Zn  Zn184  1  0.06214702  0.31141890  0.06199252  1
  Zn  Zn185  1  0.06255313  0.31203775  0.56126224  1
  Zn  Zn186  1  0.06167539  0.81321949  0.06242802  1
  Zn  Zn187  1  0.06267037  0.81302745  0.56247702  1
  Zn  Zn188  1  0.56268888  0.31254518  0.06339903  1
  Zn  Zn189  1  0.56178977  0.31277465  0.56042618  1
  Zn  Zn190  1  0.56065900  0.81188992  0.06310673  1
  Zn  Zn191  1  0.56227845  0.81236139  0.56438130  1
  O  O192  1  0.11752544  0.12132447  0.11788700  1
  O  O193  1  0.11785660  0.12459814  0.61809001  1
  O  O194  1  0.11961312  0.61974035  0.12062139  1
  O  O195  1  0.11994688  0.61877505  0.62330330  1
  O  O196  1  0.61876977  0.11872304  0.11912387  1
  O  O197  1  0.62365497  0.12038163  0.61489040  1
  O  O198  1  0.62380357  0.61803749  0.11865910  1
  O  O199  1  0.61856465  0.62074406  0.62185199  1
  O  O200  1  0.37953807  0.37922001  0.37790065  1
  O  O201  1  0.37990353  0.38033565  0.88067210  1
  O  O202  1  0.37788014  0.87916270  0.38268379  1
  O  O203  1  0.37591508  0.88409640  0.88205453  1
  O  O204  1  0.88054400  0.38075858  0.37961466  1
  O  O205  1  0.88093229  0.38085288  0.88052215  1
  O  O206  1  0.87814996  0.88327717  0.38209221  1
  O  O207  1  0.87474921  0.88394591  0.88054638  1
  O  O208  1  0.25486598  0.00487575  0.36877701  1
  O  O209  1  0.26114899  0.00209057  0.87492612  1
  O  O210  1  0.25555614  0.50961899  0.37254606  1
  O  O211  1  0.25684455  0.50025832  0.86774909  1
  O  O212  1  0.76292970  0.00008394  0.37458243  1
  O  O213  1  0.76052349  0.00149934  0.86837897  1
  O  O214  1  0.75743520  0.50267810  0.36854787  1
  O  O215  1  0.75495407  0.50396530  0.87127616  1
  O  O216  1  0.24314124  0.49283877  0.12573257  1
  O  O217  1  0.24522513  0.49461571  0.62955701  1
  O  O218  1  0.24406275  0.99455928  0.13094068  1
  O  O219  1  0.24719424  0.98673582  0.62784352  1
  O  O220  1  0.74385958  0.49771400  0.13137045  1
  O  O221  1  0.74568582  0.49550197  0.63148889  1
  O  O222  1  0.74296607  0.99215720  0.12452432  1
  O  O223  1  0.74543128  0.99469894  0.62949394  1
  O  O224  1  0.00645388  0.37366587  0.25638143  1
  O  O225  1  0.00468887  0.37108624  0.75464310  1
  O  O226  1  0.00844237  0.86708963  0.25134512  1
  O  O227  1  0.01031975  0.86875536  0.74938087  1
  O  O228  1  0.50727771  0.37344016  0.25677421  1
  O  O229  1  0.50384137  0.36738671  0.75339733  1
  O  O230  1  0.50447784  0.86943703  0.25666535  1
  O  O231  1  0.51034643  0.87180472  0.75250012  1
  O  O232  1  0.49226303  0.12537851  0.24247595  1
  O  O233  1  0.49680024  0.13795898  0.74721559  1
  O  O234  1  0.49041625  0.63068597  0.25211779  1
  O  O235  1  0.49504792  0.62439633  0.74116170  1
  O  O236  1  0.99809182  0.12747729  0.23590675  1
  O  O237  1  0.99419010  0.13153281  0.74398595  1
  O  O238  1  0.99492685  0.62977505  0.24382620  1
  O  O239  1  0.99894034  0.63172231  0.74337179  1
  O  O240  1  0.36997394  0.25561540  0.00530385  1
  O  O241  1  0.37558242  0.25563672  0.50843825  1
  O  O242  1  0.36858107  0.75552862  0.00068534  1
  O  O243  1  0.37221282  0.76292684  0.50156763  1
  O  O244  1  0.86809147  0.25322685  0.00632721  1
  O  O245  1  0.87367993  0.25773377  0.50620716  1
  O  O246  1  0.86964797  0.75445729  0.00642450  1
  O  O247  1  0.87159958  0.75595130  0.50583826  1
  O  O248  1  0.12614568  0.24335006  0.49253537  1
  O  O249  1  0.13004011  0.24082827  1.00010744  1
  O  O250  1  0.12648049  0.74831122  0.48771059  1
  O  O251  1  0.12953711  0.74527104  0.99612207  1
  O  O252  1  0.62528702  0.24311564  0.49077701  1
  O  O253  1  0.63382351  0.24493874  0.99994958  1
  O  O254  1  0.63150987  0.74680027  0.49644682  1
  O  O255  1  0.63123074  0.74444662  0.99603741  1
  O  O256  1  0.49305902  0.24265519  0.12497554  1
  O  O257  1  0.49044239  0.25171674  0.63262822  1
  O  O258  1  0.49706671  0.74667868  0.13426359  1
  O  O259  1  0.49968742  0.73713161  0.62848590  1
  O  O260  1  0.99023810  0.24191897  0.12320392  1
  O  O261  1  0.99331930  0.24601505  0.63040445  1
  O  O262  1  0.99493321  0.74399499  0.13071162  1
  O  O263  1  0.99605220  0.74493083  0.63000359  1
  O  O264  1  0.00567388  0.25702843  0.37303369  1
  O  O265  1  0.00052317  0.25701562  0.86815530  1
  O  O266  1  0.01071876  0.74894702  0.36919643  1
  O  O267  1  0.00626205  0.75198121  0.86873409  1
  O  O268  1  0.51110033  0.25647294  0.37197606  1
  O  O269  1  0.49764340  0.25598140  0.86414309  1
  O  O270  1  0.50615936  0.75637306  0.37081284  1
  O  O271  1  0.51036582  0.75168029  0.87395354  1
  O  O272  1  0.24285675  0.12536365  0.49239648  1
  O  O273  1  0.23891124  0.13081881  1.00215941  1
  O  O274  1  0.25011305  0.62733272  0.48769136  1
  O  O275  1  0.24312312  0.63111848  0.99954512  1
  O  O276  1  0.73672555  0.12863299  0.49603489  1
  O  O277  1  0.74375458  0.13413962  0.99861659  1
  O  O278  1  0.74417874  0.63322991  0.50067874  1
  O  O279  1  0.74471259  0.62991639  0.99543200  1
  O  O280  1  0.25521602  0.37009641  0.00559342  1
  O  O281  1  0.25740820  0.37271661  0.50573894  1
  O  O282  1  0.25448706  0.86933708  0.00646396  1
  O  O283  1  0.25753765  0.87437317  0.50857612  1
  O  O284  1  0.75568980  0.36508373  0.00101746  1
  O  O285  1  0.75696639  0.37578521  0.50720739  1
  O  O286  1  0.75545087  0.86808368  0.00682507  1
  O  O287  1  0.75640566  0.86985665  0.50703048  1
  O  O288  1  0.12644879  0.49340153  0.24217153  1
  O  O289  1  0.13031195  0.49461802  0.74380655  1
  O  O290  1  0.13022336  0.99474055  0.24540369  1
  O  O291  1  0.12438159  0.98796740  0.74962650  1
  O  O292  1  0.63020537  0.49614951  0.24582809  1
  O  O293  1  0.63084245  0.49415702  0.74505081  1
  O  O294  1  0.62439097  0.99202310  0.24324367  1
  O  O295  1  0.63110882  0.99605703  0.74500233  1
  O  O296  1  0.36872131  0.00474774  0.25536921  1
  O  O297  1  0.37455984  0.00038355  0.76122363  1
  O  O298  1  0.37458376  0.50982813  0.25640769  1
  O  O299  1  0.37006613  0.50368834  0.75490189  1
  O  O300  1  0.87549664  -0.00023598  0.26146392  1
  O  O301  1  0.87013329  0.00495685  0.75611342  1
  O  O302  1  0.87090323  0.50487501  0.25447116  1
  O  O303  1  0.86822490  0.50096942  0.75791808  1
  O  O304  1  0.12038704  0.37033462  0.36973919  1
  O  O305  1  0.11784244  0.37504552  0.86792294  1
  O  O306  1  0.12646757  0.86491499  0.36917149  1
  O  O307  1  0.12418587  0.86987226  0.86628400  1
  O  O308  1  0.62085534  0.36844087  0.37101469  1
  O  O309  1  0.61726447  0.37196832  0.86737924  1
  O  O310  1  0.61940322  0.87025270  0.37137132  1
  O  O311  1  0.62634539  0.86902774  0.86928804  1
  O  O312  1  0.37902373  0.12916180  0.12938358  1
  O  O313  1  0.37581013  0.13627773  0.62346720  1
  O  O314  1  0.37540958  0.62555092  0.13796201  1
  O  O315  1  0.38406533  0.62480554  0.62963494  1
  O  O316  1  0.88311259  0.13234674  0.12177659  1
  O  O317  1  0.87974015  0.13127802  0.62914850  1
  O  O318  1  0.88101991  0.63058157  0.13014262  1
  O  O319  1  0.88256355  0.63231568  0.62719989  1
  O  O320  1  0.25577288  0.25564180  0.11898267  1
  O  O321  1  0.26012929  0.25684960  0.62357626  1
  O  O322  1  0.25145121  0.75683851  0.11920823  1
  O  O323  1  0.25109255  0.76183116  0.62309617  1
  O  O324  1  0.75881402  0.24955333  0.11445325  1
  O  O325  1  0.75651666  0.25864791  0.62378457  1
  O  O326  1  0.75574273  0.75474315  0.12029904  1
  O  O327  1  0.75629939  0.75605119  0.62062332  1
  O  O328  1  0.24316617  0.24225626  0.37571688  1
  O  O329  1  0.24680758  0.24839952  0.88341520  1
  O  O330  1  0.24114137  0.74135543  0.37455000  1
  O  O331  1  0.24224809  0.74811225  0.88284362  1
  O  O332  1  0.73742964  0.25068594  0.37678093  1
  O  O333  1  0.74972303  0.24827371  0.88613024  1
  O  O334  1  0.74430668  0.75011516  0.38306359  1
  O  O335  1  0.74585828  0.74416842  0.88195697  1
  O  O336  1  0.00829383  0.12437257  0.00956044  1
  O  O337  1  0.00510399  0.12035654  0.50575580  1
  O  O338  1  0.00543460  0.61957145  0.00612418  1
  O  O339  1  0.00263734  0.61788511  0.50686074  1
  O  O340  1  0.50482035  0.11921979  0.00582900  1
  O  O341  1  0.51236842  0.12303019  0.50087555  1
  O  O342  1  0.50666206  0.61693391  0.00068336  1
  O  O343  1  0.50624387  0.62501790  0.51017602  1
  O  O344  1  0.49379521  0.37754933  0.49271553  1
  O  O345  1  0.49424262  0.37922497  0.99423631  1
  O  O346  1  0.49042394  0.87512822  0.49558993  1
  O  O347  1  0.49331441  0.88184800  0.99957207  1
  O  O348  1  0.99434089  0.38140146  0.49436983  1
  O  O349  1  0.99514346  0.38030684  0.99450649  1
  O  O350  1  0.99416501  0.88192845  0.49925160  1
  O  O351  1  0.99155402  0.87798008  0.99854195  1
  O  O352  1  0.49433724  0.49399601  0.37743298  1
  O  O353  1  0.49469470  0.49323270  0.88026323  1
  O  O354  1  0.49203282  0.99231116  0.37687384  1
  O  O355  1  0.49010529  0.99868726  0.88185509  1
  O  O356  1  0.99520186  0.49467991  0.38016973  1
  O  O357  1  0.99465915  0.49506765  0.88080123  1
  O  O358  1  0.99115612  0.99860455  0.38138333  1
  O  O359  1  0.98627926  0.99769832  0.87589534  1
  O  O360  1  0.00514234  0.00910547  0.12350981  1
  O  O361  1  0.00023990  0.00816413  0.61881349  1
  O  O362  1  0.00467154  0.50496784  0.11891522  1
  O  O363  1  0.00532647  0.50480586  0.62045111  1
  O  O364  1  0.50512029  0.00491685  0.11906162  1
  O  O365  1  0.50855215  0.00278727  0.62241275  1
  O  O366  1  0.50675681  0.50174066  0.11769121  1
  O  O367  1  0.50662315  0.51037167  0.62442909  1
  O  O368  1  0.24346645  0.37646629  0.24260775  1
  O  O369  1  0.24476433  0.38087714  0.74331302  1
  O  O370  1  0.24515595  0.88007946  0.24555002  1
  O  O371  1  0.24048230  0.87453937  0.74298320  1
  O  O372  1  0.74335189  0.38292622  0.24713187  1
  O  O373  1  0.74428721  0.38033462  0.74498766  1
  O  O374  1  0.74267664  0.87575688  0.24338134  1
  O  O375  1  0.74534631  0.88159741  0.74367545  1
  O  O376  1  0.25472686  0.11854208  0.25460732  1
  O  O377  1  0.25208641  0.12109547  0.75273614  1
  O  O378  1  0.25929272  0.62453627  0.25961689  1
  O  O379  1  0.25680846  0.61753650  0.75061773  1
  O  O380  1  0.75426527  0.11918622  0.25289240  1
  O  O381  1  0.75665727  0.11963000  0.74938026  1
  O  O382  1  0.75750325  0.61916008  0.25219804  1
  O  O383  1  0.75154175  0.61773604  0.75766587  1
  O  O384  1  0.36984602  0.11961193  0.37026660  1
  O  O385  1  0.37221792  0.11340246  0.87493778  1
  O  O386  1  0.36880205  0.62181836  0.36886138  1
  O  O387  1  0.37415374  0.61635265  0.86870896  1
  O  O388  1  0.87418834  0.11519288  0.37447062  1
  O  O389  1  0.87366323  0.11622466  0.86843984  1
  O  O390  1  0.87519833  0.61859855  0.36834200  1
  O  O391  1  0.86834706  0.61828985  0.87546014  1
  O  O392  1  0.12932866  0.37943773  0.12872563  1
  O  O393  1  0.13024991  0.38039586  0.62976736  1
  O  O394  1  0.13048318  0.88037212  0.13046736  1
  O  O395  1  0.13262338  0.87514060  0.63373714  1
  O  O396  1  0.62624864  0.38136594  0.13164736  1
  O  O397  1  0.62955962  0.38098554  0.62942459  1
  O  O398  1  0.62978445  0.87925423  0.13055063  1
  O  O399  1  0.63182069  0.88046445  0.62991973  1
  O  O400  1  0.12228811  0.25661536  0.25545896  1
  O  O401  1  0.11741067  0.25786837  0.75008821  1
  O  O402  1  0.12104020  0.75382381  0.25758480  1
  O  O403  1  0.12029970  0.75819965  0.75558401  1
  O  O404  1  0.62463125  0.25571911  0.25791780  1
  O  O405  1  0.61449640  0.25576784  0.74823717  1
  O  O406  1  0.61986715  0.75520500  0.25669416  1
  O  O407  1  0.62702792  0.75682140  0.75787549  1
  O  O408  1  0.37621155  0.24237985  0.24254837  1
  O  O409  1  0.38260227  0.25220629  0.73956455  1
  O  O410  1  0.38052420  0.74067873  0.25120543  1
  O  O411  1  0.37738688  0.74144684  0.74920753  1
  O  O412  1  0.87497378  0.24934603  0.23702696  1
  O  O413  1  0.88018081  0.24583803  0.74430932  1
  O  O414  1  0.88053790  0.74543698  0.24526901  1
  O  O415  1  0.88118464  0.75005125  0.74355435  1
  O  O416  1  0.37771497  0.49301856  0.49245622  1
  O  O417  1  0.38014067  0.49391666  0.99540333  1
  O  O418  1  0.37502882  0.98871268  0.49438946  1
  O  O419  1  0.37926370  0.99448073  0.99367936  1
  O  O420  1  0.88094424  0.49514099  0.49481678  1
  O  O421  1  0.88025010  0.49424647  0.99592691  1
  O  O422  1  0.88002583  0.99576111  0.49309558  1
  O  O423  1  0.87427030  0.99508565  0.99070962  1
  O  O424  1  0.12408573  0.00882015  0.00649505  1
  O  O425  1  0.11786395  0.00664830  0.50069577  1
  O  O426  1  0.11912406  0.50500907  0.00536755  1
  O  O427  1  0.11885652  0.50063115  0.50639726  1
  O  O428  1  0.62013730  0.00427092  0.00531790  1
  O  O429  1  0.62456453  0.00833754  0.50484342  1
  O  O430  1  0.62045800  0.50389091  0.00450522  1
  O  O431  1  0.62483106  0.50795934  0.50738143  1
  O  O432  1  0.37039103  0.37011072  0.11973947  1
  O  O433  1  0.37064038  0.36815416  0.61898784  1
  O  O434  1  0.36766411  0.87453965  0.11925424  1
  O  O435  1  0.36770971  0.87457549  0.61855071  1
  O  O436  1  0.87538779  0.36481535  0.11794819  1
  O  O437  1  0.87029024  0.37118280  0.61995711  1
  O  O438  1  0.87003722  0.86936877  0.12069076  1
  O  O439  1  0.87017725  0.87025683  0.62021737  1
  O  O440  1  0.12902121  0.12986344  0.37885871  1
  O  O441  1  0.12291113  0.12571540  0.88786301  1
  O  O442  1  0.13400267  0.63217417  0.37299276  1
  O  O443  1  0.12643750  0.63106774  0.88252142  1
  O  O444  1  0.62388663  0.13325641  0.38096843  1
  O  O445  1  0.62678277  0.12754680  0.88289201  1
  O  O446  1  0.62613626  0.63312401  0.38313669  1
  O  O447  1  0.63172575  0.62901586  0.88157094  1
