# generated using pymatgen
data_V3Zn3O8
_symmetry_space_group_name_H-M   'P 1'
_cell_length_a   17.08713524
_cell_length_b   17.08695186
_cell_length_c   17.08649250
_cell_angle_alpha   89.99872571
_cell_angle_beta   89.99767792
_cell_angle_gamma   90.00618083
_symmetry_Int_Tables_number   1
_chemical_formula_structural   V3Zn3O8
_chemical_formula_sum   'V96 Zn96 O256'
_cell_volume   4988.69289836
_cell_formula_units_Z   32
loop_
 _symmetry_equiv_pos_site_id
 _symmetry_equiv_pos_as_xyz
  1  'x, y, z'
loop_
 _atom_site_type_symbol
 _atom_site_label
 _atom_site_symmetry_multiplicity
 _atom_site_fract_x
 _atom_site_fract_y
 _atom_site_fract_z
 _atom_site_occupancy
  V  V0  1  0.37433776  0.37415080  0.49936492  1
  V  V1  1  0.12605220  0.74925716  0.87468766  1
  V  V2  1  0.37415132  0.24905888  0.12496220  1
  V  V3  1  0.25072557  -0.00068595  0.74995321  1
  V  V4  1  0.50174963  0.00096821  0.50048634  1
  V  V5  1  0.49938853  0.37375672  0.87540207  1
  V  V6  1  0.62536087  0.75016788  0.87535929  1
  V  V7  1  0.62504637  0.12438292  -0.00006753  1
  V  V8  1  0.37550973  -0.00084292  0.87404703  1
  V  V9  1  0.87595566  0.00052751  0.37593017  1
  V  V10  1  0.37524837  0.87478633  -0.00098946  1
  V  V11  1  0.37462327  0.12440978  0.24906443  1
  V  V12  1  0.50000568  0.50022026  0.49969603  1
  V  V13  1  0.12563052  0.12510998  0.49966487  1
  V  V14  1  0.12333008  0.62382847  -0.00057279  1
  V  V15  1  0.62317383  0.62422432  0.50014191  1
  V  V16  1  0.87441929  0.62552541  0.24992159  1
  V  V17  1  0.12515411  0.37586911  0.74949534  1
  V  V18  1  0.87433869  0.50067592  0.37547452  1
  V  V19  1  0.37652240  0.87451099  0.50059255  1
  V  V20  1  0.74998923  0.12647360  0.37562033  1
  V  V21  1  0.49840616  0.24934829  0.24907526  1
  V  V22  1  0.12500403  0.62516236  0.50084334  1
  V  V23  1  0.75153433  0.75222904  0.50247736  1
  V  V24  1  0.62477551  0.37531679  0.24907858  1
  V  V25  1  0.12473023  0.50062568  0.62546263  1
  V  V26  1  0.00050882  0.25124174  0.25119477  1
  V  V27  1  0.12437548  0.25040762  0.37589735  1
  V  V28  1  0.00022300  0.87612590  0.37563220  1
  V  V29  1  0.87379521  0.37621756  0.50099316  1
  V  V30  1  0.12397383  0.49921329  0.12559061  1
  V  V31  1  -0.00132872  0.37575453  0.87484255  1
  V  V32  1  -0.00009514  0.24998184  0.74974335  1
  V  V33  1  0.87606047  0.12642274  0.75051394  1
  V  V34  1  0.49969395  0.49998776  0.00193022  1
  V  V35  1  0.00016480  0.75032389  0.74894255  1
  V  V36  1  0.00064551  0.87572545  0.87580641  1
  V  V37  1  -0.00013848  0.50145010  0.50111516  1
  V  V38  1  0.25182233  0.75044512  0.50033100  1
  V  V39  1  -0.00011875  0.74931681  0.25130960  1
  V  V40  1  0.12575006  0.87488308  0.74947305  1
  V  V41  1  0.37525269  0.12426186  0.75022863  1
  V  V42  1  0.50021947  0.74990272  0.24953591  1
  V  V43  1  0.00044810  0.12637859  0.62580975  1
  V  V44  1  0.24930252  0.37543759  0.62549796  1
  V  V45  1  0.24980726  0.87423833  0.12550899  1
  V  V46  1  0.74828707  0.37588959  0.62567464  1
  V  V47  1  0.87465373  0.74995529  0.12525208  1
  V  V48  1  0.37743615  0.75002501  0.62429695  1
  V  V49  1  0.62500264  0.75048889  0.37456935  1
  V  V50  1  0.50000329  0.62383078  0.12419434  1
  V  V51  1  0.24875552  0.24900773  -0.00142777  1
  V  V52  1  0.75001032  0.00008639  0.25075432  1
  V  V53  1  0.12540759  0.24925021  0.87569783  1
  V  V54  1  0.49844360  0.37410465  0.37408021  1
  V  V55  1  0.62455796  0.24971514  0.37478614  1
  V  V56  1  0.37554140  0.00035972  0.37430639  1
  V  V57  1  0.24838112  0.37498907  0.12536415  1
  V  V58  1  0.12612883  0.87487240  0.24953799  1
  V  V59  1  0.74924594  0.49959274  0.24941371  1
  V  V60  1  0.75216447  -0.00032647  0.75040001  1
  V  V61  1  0.50041901  0.75021255  0.74956608  1
  V  V62  1  0.87538135  0.62747554  0.74819711  1
  V  V63  1  0.75176026  0.12539461  0.87560067  1
  V  V64  1  0.24932701  0.24896870  0.49950504  1
  V  V65  1  0.24959058  0.74921619  -0.00050295  1
  V  V66  1  0.37462978  0.62374761  0.75001033  1
  V  V67  1  0.37491725  0.74932608  0.12472661  1
  V  V68  1  0.87494898  0.49942944  0.87593970  1
  V  V69  1  0.62679647  0.00177684  0.62497242  1
  V  V70  1  0.49862186  0.24956863  0.75019501  1
  V  V71  1  0.74904552  0.62510773  0.37511188  1
  V  V72  1  0.50037719  0.87487851  0.87454728  1
  V  V73  1  0.87468098  0.25082057  0.12548989  1
  V  V74  1  0.87550114  0.12565695  0.25070294  1
  V  V75  1  -0.00016139  0.37498948  0.37570899  1
  V  V76  1  0.12544678  0.74974766  0.37558849  1
  V  V77  1  0.37391429  0.62417855  0.25051219  1
  V  V78  1  0.75056773  0.25018290  0.00131704  1
  V  V79  1  0.37392407  0.49965135  0.87445441  1
  V  V80  1  0.87639455  0.87537153  0.00025905  1
  V  V81  1  0.50077319  0.87545099  0.37457450  1
  V  V82  1  0.37528939  0.24910402  0.62506874  1
  V  V83  1  0.00265511  0.12372221  0.12337539  1
  V  V84  1  0.37319911  0.49973008  0.37417836  1
  V  V85  1  0.62573891  0.87571914  0.24901177  1
  V  V86  1  0.74871278  0.62596232  0.87603997  1
  V  V87  1  0.74930920  0.25105637  0.49867323  1
  V  V88  1  0.25077869  -0.00086811  0.24923892  1
  V  V89  1  0.25043210  0.62434303  0.37485434  1
  V  V90  1  0.12604158  -0.00053267  0.62531139  1
  V  V91  1  0.62490643  -0.00086778  0.12389508  1
  V  V92  1  0.37464373  0.37416631  0.00014478  1
  V  V93  1  0.74997872  0.37514731  0.12509776  1
  V  V94  1  0.62411503  0.37511052  0.75077102  1
  V  V95  1  0.00063171  0.00026965  0.49944423  1
  Zn  Zn96  1  0.62278740  0.50160707  0.62512570  1
  Zn  Zn97  1  0.74857272  0.75069104  0.00145296  1
  Zn  Zn98  1  0.62434471  0.12629267  0.49959948  1
  Zn  Zn99  1  0.49889006  0.12468092  0.12327490  1
  Zn  Zn100  1  -0.00020228  0.62731550  0.62415404  1
  Zn  Zn101  1  -0.00097733  0.49808152  0.00087191  1
  Zn  Zn102  1  0.62578658  0.50156755  0.12342516  1
  Zn  Zn103  1  0.75030106  0.87420526  0.12432133  1
  Zn  Zn104  1  0.62727970  0.87549867  0.74984728  1
  Zn  Zn105  1  0.12668761  0.12206392  -0.00128934  1
  Zn  Zn106  1  0.24817323  0.49858385  0.25105052  1
  Zn  Zn107  1  0.87599600  0.87569633  0.50235067  1
  Zn  Zn108  1  0.50161266  0.62335728  0.62432214  1
  Zn  Zn109  1  0.12521752  0.37585122  0.25112176  1
  Zn  Zn110  1  0.24922645  0.62266098  0.87424791  1
  Zn  Zn111  1  0.87483474  0.37540741  0.00028436  1
  Zn  Zn112  1  0.50073414  0.12606111  0.62359104  1
  Zn  Zn113  1  0.24894095  0.12397572  0.87634090  1
  Zn  Zn114  1  0.87811420  0.00057610  0.87699980  1
  Zn  Zn115  1  0.12569229  -0.00059389  0.12281935  1
  Zn  Zn116  1  0.62405277  0.62385082  0.00102674  1
  Zn  Zn117  1  0.74772039  0.50018161  0.74988205  1
  Zn  Zn118  1  0.75365725  0.87591030  0.62549617  1
  Zn  Zn119  1  0.25164110  0.87474127  0.62477824  1
  Zn  Zn120  1  0.00340420  0.00061346  -0.00068392  1
  Zn  Zn121  1  0.49959323  0.00020484  -0.00159194  1
  Zn  Zn122  1  0.24951057  0.12453535  0.37413842  1
  Zn  Zn123  1  0.62503251  0.24979731  0.87601963  1
  Zn  Zn124  1  0.24942016  0.50005504  0.75092640  1
  Zn  Zn125  1  0.87648627  0.75353713  0.62396814  1
  Zn  Zn126  1  -0.00153179  0.62199861  0.12551819  1
  Zn  Zn127  1  0.87530457  0.25135951  0.62519960  1
  Zn  Zn128  1  0.18730956  0.18805332  0.18846636  1
  Zn  Zn129  1  0.18832218  0.18686001  0.68886952  1
  Zn  Zn130  1  0.18776253  0.68629085  0.18727276  1
  Zn  Zn131  1  0.18944317  0.68806958  0.68595344  1
  Zn  Zn132  1  0.68735766  0.18751957  0.18776073  1
  Zn  Zn133  1  0.68755233  0.18806777  0.68743748  1
  Zn  Zn134  1  0.68724051  0.68650121  0.18660070  1
  Zn  Zn135  1  0.68648522  0.68634932  0.68684262  1
  Zn  Zn136  1  0.30944360  0.31223004  0.31108331  1
  Zn  Zn137  1  0.31120722  0.31206467  0.81208127  1
  Zn  Zn138  1  0.31307371  0.81251676  0.31325601  1
  Zn  Zn139  1  0.31150889  0.81192643  0.81226877  1
  Zn  Zn140  1  0.81271803  0.31327178  0.31239059  1
  Zn  Zn141  1  0.81133051  0.31083121  0.81335098  1
  Zn  Zn142  1  0.81231716  0.81461130  0.31417137  1
  Zn  Zn143  1  0.81310625  0.81337034  0.81356574  1
  Zn  Zn144  1  0.18692534  0.43734321  0.43897625  1
  Zn  Zn145  1  0.18833536  0.43687857  0.93671423  1
  Zn  Zn146  1  0.18928051  0.93723509  0.43718435  1
  Zn  Zn147  1  0.18710574  0.93891922  0.93819159  1
  Zn  Zn148  1  0.68547143  0.43757429  0.43646466  1
  Zn  Zn149  1  0.68634888  0.43814145  0.93862543  1
  Zn  Zn150  1  0.68810238  0.93792667  0.43789896  1
  Zn  Zn151  1  0.69123043  0.93639724  0.93698912  1
  Zn  Zn152  1  0.31159318  0.06214224  0.06162087  1
  Zn  Zn153  1  0.31274511  0.06237685  0.56326693  1
  Zn  Zn154  1  0.31095497  0.56169083  0.06254414  1
  Zn  Zn155  1  0.31251477  0.56231814  0.56322201  1
  Zn  Zn156  1  0.81383284  0.06152488  0.06371019  1
  Zn  Zn157  1  0.81411558  0.06538609  0.56272423  1
  Zn  Zn158  1  0.81080328  0.56305225  0.06175420  1
  Zn  Zn159  1  0.80935310  0.56250168  0.56350095  1
  Zn  Zn160  1  0.43624555  0.43754911  0.18723357  1
  Zn  Zn161  1  0.43826747  0.43764392  0.68584886  1
  Zn  Zn162  1  0.43835577  0.93755097  0.18613217  1
  Zn  Zn163  1  0.44004542  0.93685054  0.68760971  1
  Zn  Zn164  1  0.93760859  0.43723954  0.18787532  1
  Zn  Zn165  1  0.93758881  0.43943930  0.68820272  1
  Zn  Zn166  1  0.93864201  0.93786045  0.18860223  1
  Zn  Zn167  1  0.93708568  0.93669567  0.68565366  1
  Zn  Zn168  1  0.06425031  0.06281765  0.31131327  1
  Zn  Zn169  1  0.06327850  0.06192211  0.81387512  1
  Zn  Zn170  1  0.06165142  0.56298744  0.31249877  1
  Zn  Zn171  1  0.06070922  0.56234748  0.81196402  1
  Zn  Zn172  1  0.56188737  0.06423520  0.31147993  1
  Zn  Zn173  1  0.56258755  0.06306336  0.81200034  1
  Zn  Zn174  1  0.56194065  0.56174770  0.31224212  1
  Zn  Zn175  1  0.55996815  0.56103704  0.81362240  1
  Zn  Zn176  1  0.43748034  0.18525832  0.43708785  1
  Zn  Zn177  1  0.43723901  0.18629670  0.93633219  1
  Zn  Zn178  1  0.43811481  0.68669205  0.43690458  1
  Zn  Zn179  1  0.43784792  0.68630224  0.93682639  1
  Zn  Zn180  1  0.93704674  0.18862732  0.43959344  1
  Zn  Zn181  1  0.93703873  0.18892559  0.93822236  1
  Zn  Zn182  1  0.93711217  0.68729126  0.43711476  1
  Zn  Zn183  1  0.93969820  0.68868882  0.93705388  1
  Zn  Zn184  1  0.06135107  0.31270310  0.05986959  1
  Zn  Zn185  1  0.06206368  0.31307415  0.56285870  1
  Zn  Zn186  1  0.06152123  0.81089733  0.06383579  1
  Zn  Zn187  1  0.06231827  0.81295152  0.56388968  1
  Zn  Zn188  1  0.56269777  0.31231572  0.06414708  1
  Zn  Zn189  1  0.56169665  0.31274580  0.56247894  1
  Zn  Zn190  1  0.56107061  0.81206633  0.06075588  1
  Zn  Zn191  1  0.56493194  0.81454410  0.56463325  1
  O  O192  1  0.11289226  0.12521674  0.12529598  1
  O  O193  1  0.11976206  0.11958652  0.61982649  1
  O  O194  1  0.12432072  0.61726606  0.11665436  1
  O  O195  1  0.12478663  0.61881670  0.61825381  1
  O  O196  1  0.62570658  0.11637850  0.11686970  1
  O  O197  1  0.62428284  0.11396599  0.62317099  1
  O  O198  1  0.61656942  0.62371950  0.12229733  1
  O  O199  1  0.62221902  0.62131685  0.61741459  1
  O  O200  1  0.37894100  0.37925757  0.37982635  1
  O  O201  1  0.38012734  0.37936054  0.88034785  1
  O  O202  1  0.38221746  0.87981775  0.37990655  1
  O  O203  1  0.38054676  0.87873203  0.87981725  1
  O  O204  1  0.87918569  0.38170063  0.38098159  1
  O  O205  1  0.87804208  0.38583026  0.87346216  1
  O  O206  1  0.88280831  0.88280183  0.37620734  1
  O  O207  1  0.88175929  0.87353412  0.88539689  1
  O  O208  1  0.25815232  -0.00007966  0.36761941  1
  O  O209  1  0.25770868  -0.00024919  0.86751520  1
  O  O210  1  0.25536771  0.50634153  0.37513769  1
  O  O211  1  0.25857856  0.50165616  0.87195841  1
  O  O212  1  0.75527085  0.00647634  0.37017162  1
  O  O213  1  0.75208909  0.00648988  0.86517643  1
  O  O214  1  0.75536754  0.50519758  0.36986694  1
  O  O215  1  0.75712665  0.50866539  0.87291045  1
  O  O216  1  0.23961342  0.49415854  0.12535049  1
  O  O217  1  0.24317673  0.49251666  0.62544332  1
  O  O218  1  0.25046376  0.99106314  0.13193797  1
  O  O219  1  0.24350186  0.99739717  0.63102614  1
  O  O220  1  0.74980358  0.49437081  0.13203023  1
  O  O221  1  0.74595368  0.48784129  0.62772731  1
  O  O222  1  0.74011878  0.99888461  0.13173362  1
  O  O223  1  0.74394793  1.00258038  0.63361405  1
  O  O224  1  0.00044420  0.36887635  0.25820267  1
  O  O225  1  0.00499572  0.37018916  0.75488129  1
  O  O226  1  0.00591297  0.86901131  0.25618951  1
  O  O227  1  0.00588647  0.86974624  0.75568280  1
  O  O228  1  0.50394009  0.36935315  0.25535224  1
  O  O229  1  0.50614586  0.36962212  0.75486571  1
  O  O230  1  0.50574512  0.86925416  0.25492263  1
  O  O231  1  0.50295656  0.86747128  0.75741406  1
  O  O232  1  0.49328814  0.13194991  0.24749485  1
  O  O233  1  0.49385301  0.13210694  0.74850524  1
  O  O234  1  0.49377247  0.63089771  0.24561668  1
  O  O235  1  0.48943917  0.63031931  0.74958198  1
  O  O236  1  0.99460376  0.13121588  0.24361502  1
  O  O237  1  0.99588100  0.13051290  0.74491877  1
  O  O238  1  0.99187853  0.63166579  0.25024974  1
  O  O239  1  0.98965514  0.63150104  0.75072351  1
  O  O240  1  0.37005725  0.25543956  0.00501215  1
  O  O241  1  0.36981880  0.25511117  0.50430654  1
  O  O242  1  0.36953208  0.75419834  0.00509759  1
  O  O243  1  0.37188218  0.75477560  0.50391005  1
  O  O244  1  0.86703249  0.25106116  0.00764474  1
  O  O245  1  0.86785077  0.25883902  0.50120377  1
  O  O246  1  0.87600638  0.75655271  0.00934246  1
  O  O247  1  0.86270578  0.74910012  0.49960048  1
  O  O248  1  0.12942493  0.24474589  0.49579696  1
  O  O249  1  0.13149503  0.24972955  0.99289637  1
  O  O250  1  0.13082838  0.74524166  0.49455854  1
  O  O251  1  0.12931890  0.74178851  0.99592672  1
  O  O252  1  0.63078849  0.25043609  0.49238200  1
  O  O253  1  0.63103531  0.23911420  1.00175593  1
  O  O254  1  0.63165837  0.74552032  0.49367409  1
  O  O255  1  0.62577090  0.74732320  0.98719950  1
  O  O256  1  0.49216204  0.24930886  0.13178322  1
  O  O257  1  0.49275425  0.24993233  0.63152923  1
  O  O258  1  0.49407388  0.74493739  0.13060747  1
  O  O259  1  0.49553579  0.74866197  0.63142914  1
  O  O260  1  0.99450783  0.24388444  0.13109323  1
  O  O261  1  0.99911410  0.24460520  0.63164541  1
  O  O262  1  0.98952883  0.74726751  0.13261513  1
  O  O263  1  0.99751558  0.74659287  0.63265594  1
  O  O264  1  0.00441396  0.25576327  0.37142508  1
  O  O265  1  0.00461571  0.25620116  0.86889045  1
  O  O266  1  0.00574605  0.75531172  0.37055081  1
  O  O267  1  0.00697648  0.75562902  0.86866282  1
  O  O268  1  0.50394221  0.25563684  0.36908189  1
  O  O269  1  0.50142401  0.25706696  0.86862734  1
  O  O270  1  0.50542632  0.75568940  0.36900930  1
  O  O271  1  0.50783274  0.75390569  0.86983037  1
  O  O272  1  0.24343278  0.13128863  0.49882083  1
  O  O273  1  0.24866219  0.13438544  0.99767788  1
  O  O274  1  0.24542771  0.63084050  0.49406534  1
  O  O275  1  0.23926456  0.63050351  0.99920510  1
  O  O276  1  0.74933784  0.13323103  0.49298065  1
  O  O277  1  0.74335861  0.12889273  0.99655949  1
  O  O278  1  0.74395842  0.63202704  0.49397017  1
  O  O279  1  0.74866389  0.62851747  0.98663272  1
  O  O280  1  0.25600438  0.36895649  0.00553592  1
  O  O281  1  0.25516759  0.36877935  0.50563487  1
  O  O282  1  0.25553279  0.86807605  0.00569037  1
  O  O283  1  0.25848096  0.86799721  0.50012207  1
  O  O284  1  0.75048451  0.36832349  0.00669161  1
  O  O285  1  0.75340873  0.37172481  0.50687584  1
  O  O286  1  0.76269936  0.87100244  0.00185094  1
  O  O287  1  0.75152021  0.86295813  0.49868054  1
  O  O288  1  0.12556255  0.50010584  0.23824719  1
  O  O289  1  0.12573152  0.49422435  0.74409592  1
  O  O290  1  0.13232006  0.99218618  0.24875648  1
  O  O291  1  0.13052098  0.99450529  0.74470261  1
  O  O292  1  0.63154978  0.49305025  0.24968470  1
  O  O293  1  0.62399966  0.48659980  0.74965627  1
  O  O294  1  0.62951063  0.99607199  0.24212296  1
  O  O295  1  0.63579334  1.00176091  0.74285321  1
  O  O296  1  0.37118011  0.00388654  0.25443846  1
  O  O297  1  0.37067884  0.00383346  0.75393092  1
  O  O298  1  0.37288434  0.50649951  0.25668867  1
  O  O299  1  0.37575156  0.50857787  0.75463769  1
  O  O300  1  0.86981265  0.00583669  0.25600077  1
  O  O301  1  0.86623456  0.00742382  0.75027736  1
  O  O302  1  0.86938466  0.50578440  0.25616353  1
  O  O303  1  0.87332483  0.50964788  0.76010086  1
  O  O304  1  0.11701774  0.36940521  0.37586872  1
  O  O305  1  0.11885575  0.37042865  0.86869386  1
  O  O306  1  0.12034815  0.86866392  0.36939927  1
  O  O307  1  0.12025210  0.86838778  0.86948332  1
  O  O308  1  0.61847069  0.36916693  0.36869889  1
  O  O309  1  0.61920650  0.37324304  0.86621251  1
  O  O310  1  0.61955615  0.87056197  0.36875903  1
  O  O311  1  0.62099736  0.86547177  0.87415639  1
  O  O312  1  0.37711113  0.13107924  0.13059052  1
  O  O313  1  0.37679522  0.13179944  0.63173266  1
  O  O314  1  0.37892611  0.63057641  0.13047009  1
  O  O315  1  0.37733612  0.63036313  0.63374140  1
  O  O316  1  0.88191126  0.13065256  0.13177889  1
  O  O317  1  0.88272807  0.12860185  0.63189238  1
  O  O318  1  0.87562727  0.63354360  0.13019020  1
  O  O319  1  0.87348690  0.62516352  0.63863703  1
  O  O320  1  0.25471415  0.25575184  0.11940988  1
  O  O321  1  0.25473221  0.25586524  0.61910091  1
  O  O322  1  0.25599630  0.75439915  0.11978057  1
  O  O323  1  0.25855036  0.75188768  0.61719769  1
  O  O324  1  0.75578214  0.25483636  0.12184266  1
  O  O325  1  0.75059367  0.26122839  0.61903799  1
  O  O326  1  0.76252250  0.75139586  0.12467600  1
  O  O327  1  0.74932890  0.75083950  0.61313338  1
  O  O328  1  0.24299357  0.24902341  0.38239149  1
  O  O329  1  0.24315514  0.25022368  0.88126250  1
  O  O330  1  0.24521145  0.74441101  0.38055095  1
  O  O331  1  0.24320699  0.74791582  0.88221046  1
  O  O332  1  0.74439753  0.24636867  0.37902487  1
  O  O333  1  0.74765855  0.24310910  0.88266763  1
  O  O334  1  0.74448134  0.74477627  0.38165467  1
  O  O335  1  0.74198232  0.74200785  0.87430720  1
  O  O336  1  -0.00065028  0.12555403  0.01313614  1
  O  O337  1  0.00594170  0.12029810  0.50566329  1
  O  O338  1  0.01288090  0.62391005  0.00125360  1
  O  O339  1  0.00650515  0.61910037  0.50029549  1
  O  O340  1  0.51258848  0.12257363  0.00107333  1
  O  O341  1  0.50343760  0.11680188  0.50206076  1
  O  O342  1  0.49876249  0.61788945  0.00659376  1
  O  O343  1  0.50592810  0.61841165  0.49894695  1
  O  O344  1  0.49347998  0.37899699  0.49282308  1
  O  O345  1  0.49391377  0.37869630  0.99547698  1
  O  O346  1  0.49631231  0.88022115  0.49335317  1
  O  O347  1  0.49273922  0.87585575  0.99246404  1
  O  O348  1  0.99353325  0.38132277  0.49551981  1
  O  O349  1  0.99506200  0.37748446  0.99027087  1
  O  O350  1  1.00085343  0.88220631  0.49251113  1
  O  O351  1  0.99123806  0.87291242  0.99496567  1
  O  O352  1  0.49299976  0.49335533  0.37928662  1
  O  O353  1  0.49301671  0.49301070  0.88159450  1
  O  O354  1  0.49591119  0.99398424  0.37904886  1
  O  O355  1  0.49431268  0.99245831  0.87498247  1
  O  O356  1  0.99377079  0.49535280  0.38101025  1
  O  O357  1  0.98958302  0.49498906  0.87495714  1
  O  O358  1  0.99577140  0.99596333  0.37958751  1
  O  O359  1  0.99776124  0.99102190  0.87725943  1
  O  O360  1  0.00077679  0.01248243  0.12635755  1
  O  O361  1  0.00677612  0.00657974  0.61973173  1
  O  O362  1  0.00928220  0.50167049  0.12205074  1
  O  O363  1  0.00610772  0.50258087  0.61840160  1
  O  O364  1  0.51372443  0.00096777  0.12283760  1
  O  O365  1  0.51082596  0.00068498  0.62015134  1
  O  O366  1  0.49970906  0.50612978  0.11955771  1
  O  O367  1  0.50196511  0.50081210  0.61451268  1
  O  O368  1  0.24572728  0.37778281  0.24146614  1
  O  O369  1  0.24306103  0.37584023  0.74236678  1
  O  O370  1  0.24595284  0.87838247  0.24482987  1
  O  O371  1  0.24341816  0.88058432  0.74779650  1
  O  O372  1  0.74463637  0.38035230  0.24552529  1
  O  O373  1  0.74096386  0.37414805  0.74279456  1
  O  O374  1  0.74320303  0.88230828  0.24944420  1
  O  O375  1  0.75020191  0.88818904  0.75042567  1
  O  O376  1  0.25683208  0.11804650  0.25087020  1
  O  O377  1  0.25720343  0.11768499  0.75161047  1
  O  O378  1  0.25646856  0.62414958  0.25710704  1
  O  O379  1  0.26321926  0.62421046  0.75133488  1
  O  O380  1  0.75599733  0.12028283  0.25561731  1
  O  O381  1  0.75560526  0.11955936  0.75534151  1
  O  O382  1  0.75495840  0.62013239  0.25609687  1
  O  O383  1  0.75752889  0.62398960  0.76005182  1
  O  O384  1  0.37321071  0.11774082  0.36754401  1
  O  O385  1  0.37387529  0.11726618  0.86797677  1
  O  O386  1  0.36974659  0.61966525  0.37000931  1
  O  O387  1  0.37436858  0.61949005  0.86556668  1
  O  O388  1  0.87026452  0.12069809  0.36966601  1
  O  O389  1  0.86949537  0.12291181  0.86917463  1
  O  O390  1  0.86870324  0.61962759  0.36960880  1
  O  O391  1  0.86828040  0.62033136  0.86800642  1
  O  O392  1  0.12881864  0.38484145  0.12403469  1
  O  O393  1  0.12955698  0.38077745  0.62968882  1
  O  O394  1  0.13165192  0.87273112  0.13254607  1
  O  O395  1  0.12658031  0.88192448  0.63164998  1
  O  O396  1  0.63199653  0.37598485  0.13265629  1
  O  O397  1  0.63208425  0.37537895  0.63327135  1
  O  O398  1  0.62656218  0.88257681  0.12921419  1
  O  O399  1  0.63056794  0.88852945  0.62846450  1
  O  O400  1  0.11802954  0.25193679  0.25773097  1
  O  O401  1  0.11938061  0.25632766  0.75484139  1
  O  O402  1  0.12013620  0.75396293  0.25622016  1
  O  O403  1  0.12096496  0.75424043  0.75481167  1
  O  O404  1  0.61909627  0.25539438  0.25504420  1
  O  O405  1  0.61906231  0.25982833  0.75129937  1
  O  O406  1  0.62003348  0.75566431  0.25488859  1
  O  O407  1  0.62063361  0.75056411  0.76009654  1
  O  O408  1  0.37885530  0.24466254  0.24473325  1
  O  O409  1  0.37914204  0.24517963  0.74438002  1
  O  O410  1  0.38097229  0.74479529  0.24514720  1
  O  O411  1  0.38009665  0.74242713  0.74570175  1
  O  O412  1  0.88048642  0.24469004  0.24578741  1
  O  O413  1  0.88197649  0.24438825  0.74885633  1
  O  O414  1  0.87910755  0.74606543  0.24399487  1
  O  O415  1  0.87993715  0.74074399  0.75151452  1
  O  O416  1  0.37935907  0.49364066  0.49366473  1
  O  O417  1  0.37932586  0.49338803  0.99520137  1
  O  O418  1  0.38110083  0.99432255  0.49481214  1
  O  O419  1  0.37651075  0.99244930  0.99340435  1
  O  O420  1  0.87890177  0.49652524  0.49470975  1
  O  O421  1  0.87611543  0.50135380  0.98685718  1
  O  O422  1  0.88275426  1.00130423  0.49310927  1
  O  O423  1  0.87786999  0.98718328  1.00101193  1
  O  O424  1  0.12144006  0.00336806  0.00523403  1
  O  O425  1  0.12056150  0.00512371  0.50449188  1
  O  O426  1  0.12484147  0.50805043  0.00743728  1
  O  O427  1  0.11917202  0.50581278  0.50526895  1
  O  O428  1  0.62773369  0.00735757  0.00776864  1
  O  O429  1  0.62136013  0.00123051  0.50840469  1
  O  O430  1  0.61539221  0.50242259  0.00210544  1
  O  O431  1  0.61768224  0.50627027  0.49796532  1
  O  O432  1  0.36884383  0.36932777  0.11949098  1
  O  O433  1  0.36939843  0.36906897  0.61881854  1
  O  O434  1  0.37059427  0.86809448  0.11977124  1
  O  O435  1  0.37590849  0.86825910  0.61777818  1
  O  O436  1  0.86812244  0.36868909  0.12451017  1
  O  O437  1  0.86453656  0.37574811  0.62052474  1
  O  O438  1  0.87579943  0.86617543  0.11911420  1
  O  O439  1  0.87082070  0.87153418  0.61997790  1
  O  O440  1  0.12597528  0.13189093  0.38204031  1
  O  O441  1  0.12686689  0.13449163  0.87625820  1
  O  O442  1  0.13025651  0.63034863  0.38075649  1
  O  O443  1  0.12581596  0.62951906  0.88327661  1
  O  O444  1  0.63238950  0.13217625  0.37447387  1
  O  O445  1  0.63163296  0.12504676  0.88564472  1
  O  O446  1  0.63015036  0.63152003  0.37889267  1
  O  O447  1  0.63276284  0.63220594  0.87320774  1
