# generated using pymatgen
data_V3Zn3O8
_symmetry_space_group_name_H-M   'P 1'
_cell_length_a   17.08671264
_cell_length_b   17.08666550
_cell_length_c   17.08689816
_cell_angle_alpha   89.99170720
_cell_angle_beta   90.00147174
_cell_angle_gamma   89.99273599
_symmetry_Int_Tables_number   1
_chemical_formula_structural   V3Zn3O8
_chemical_formula_sum   'V96 Zn96 O256'
_cell_volume   4988.60429022
_cell_formula_units_Z   32
loop_
 _symmetry_equiv_pos_site_id
 _symmetry_equiv_pos_as_xyz
  1  'x, y, z'
loop_
 _atom_site_type_symbol
 _atom_site_label
 _atom_site_symmetry_multiplicity
 _atom_site_fract_x
 _atom_site_fract_y
 _atom_site_fract_z
 _atom_site_occupancy
  V  V0  1  0.62380179  0.87584413  0.25130726  1
  V  V1  1  0.49948917  -0.00013506  0.50010739  1
  V  V2  1  0.37468172  0.87580748  0.00050346  1
  V  V3  1  0.50000499  0.50056104  -0.00027018  1
  V  V4  1  0.49944144  0.87509916  0.37634112  1
  V  V5  1  0.62669159  0.24969156  0.87507180  1
  V  V6  1  0.49988878  0.62593793  0.62538642  1
  V  V7  1  0.74944260  0.87490976  0.62670324  1
  V  V8  1  0.12597786  0.12503485  0.49958200  1
  V  V9  1  0.00013169  0.87375615  0.87462102  1
  V  V10  1  0.49973753  0.12559173  0.12527435  1
  V  V11  1  0.75031071  -0.00081507  0.75094476  1
  V  V12  1  0.12486157  0.74971603  0.37485189  1
  V  V13  1  0.62417056  0.62464195  0.50091194  1
  V  V14  1  0.62406626  0.75009716  0.37500739  1
  V  V15  1  0.37413529  0.12499726  0.25033593  1
  V  V16  1  0.00100530  0.37466471  0.37298201  1
  V  V17  1  0.62509331  0.25125436  0.37457815  1
  V  V18  1  0.12385889  0.25113721  0.37247907  1
  V  V19  1  0.75049234  0.12584530  0.37492857  1
  V  V20  1  -0.00041062  -0.00026890  0.49992850  1
  V  V21  1  0.87502204  0.75065963  0.12597194  1
  V  V22  1  0.62491603  0.12518878  -0.00012829  1
  V  V23  1  0.74906740  0.74909272  0.00095540  1
  V  V24  1  0.87460764  0.62636956  0.25119728  1
  V  V25  1  0.74967943  0.75027334  0.50094918  1
  V  V26  1  0.12489514  0.87454560  0.24982144  1
  V  V27  1  -0.00005365  0.62408539  0.62512161  1
  V  V28  1  0.87517112  0.37464936  0.49931519  1
  V  V29  1  -0.00027244  -0.00124311  -0.00056350  1
  V  V30  1  0.49877340  -0.00029460  0.00074965  1
  V  V31  1  0.37508130  0.62490225  0.24987365  1
  V  V32  1  0.00028465  0.50034216  -0.00020443  1
  V  V33  1  0.75024867  0.49967136  0.74997225  1
  V  V34  1  0.50032939  0.37491063  0.37465572  1
  V  V35  1  0.25010099  0.12538936  0.37482182  1
  V  V36  1  0.87595715  0.25018792  0.62376325  1
  V  V37  1  0.87406338  0.37475461  -0.00006244  1
  V  V38  1  0.87566611  0.87395716  0.00120210  1
  V  V39  1  0.87477166  0.87546167  0.50004849  1
  V  V40  1  0.37532057  0.12487579  0.75078570  1
  V  V41  1  0.12517516  0.62546888  0.49937510  1
  V  V42  1  0.25085297  0.37604867  0.62388451  1
  V  V43  1  0.25003495  -0.00089763  0.24984666  1
  V  V44  1  0.00026146  0.12559502  0.62523797  1
  V  V45  1  0.62538360  0.50051050  0.12542843  1
  V  V46  1  0.12439860  0.87494345  0.75020692  1
  V  V47  1  -0.00137110  0.12483169  0.12548597  1
  V  V48  1  0.37458443  0.75042691  0.62534832  1
  V  V49  1  0.87471995  0.50117760  0.37514002  1
  V  V50  1  0.74994070  0.12393473  0.87546486  1
  V  V51  1  0.25077889  0.00154773  0.74966661  1
  V  V52  1  0.49994312  0.87601626  0.87570730  1
  V  V53  1  0.37535121  0.74947682  0.12575062  1
  V  V54  1  0.00039675  0.37448588  0.87445815  1
  V  V55  1  0.25044961  0.87480910  0.62472476  1
  V  V56  1  0.62478502  0.50057388  0.62548568  1
  V  V57  1  0.62518777  0.87472295  0.75136540  1
  V  V58  1  0.62544080  0.12562759  0.50047276  1
  V  V59  1  0.12590977  0.49945741  0.62440799  1
  V  V60  1  0.74890415  0.00027966  0.25062025  1
  V  V61  1  0.75032594  0.37499678  0.12452138  1
  V  V62  1  0.37567947  0.62598270  0.74939959  1
  V  V63  1  0.87587763  0.12492108  0.24936579  1
  V  V64  1  0.75138515  0.25017463  0.49998870  1
  V  V65  1  0.62436232  0.00030673  0.12690817  1
  V  V66  1  0.87496100  0.74940251  0.62499256  1
  V  V67  1  0.50204404  0.12558166  0.62492141  1
  V  V68  1  0.62461201  0.75037991  0.87667726  1
  V  V69  1  0.50093889  0.24978564  0.74875403  1
  V  V70  1  0.25058140  0.25081251  0.49956729  1
  V  V71  1  0.00031115  0.74995210  0.75039538  1
  V  V72  1  0.37383904  0.37323703  -0.00015599  1
  V  V73  1  0.87475254  0.62378975  0.75027824  1
  V  V74  1  0.24998785  0.75024919  0.50097926  1
  V  V75  1  0.50002033  0.25035944  0.25019360  1
  V  V76  1  0.37558624  0.50007219  0.37387752  1
  V  V77  1  0.12516690  0.00011744  0.62458390  1
  V  V78  1  0.75005928  0.62486407  0.37540054  1
  V  V79  1  0.00181598  0.62422705  0.12456906  1
  V  V80  1  0.12542661  0.12535298  -0.00268901  1
  V  V81  1  0.50078492  0.37574654  0.87392200  1
  V  V82  1  0.00041118  0.49989087  0.49941732  1
  V  V83  1  0.87398059  -0.00056447  0.87501988  1
  V  V84  1  0.37546140  0.49965631  0.87457716  1
  V  V85  1  0.25025558  0.49945505  0.74913211  1
  V  V86  1  0.50010897  0.62519548  0.12519632  1
  V  V87  1  0.37362670  0.25098209  0.12287434  1
  V  V88  1  0.24832915  0.49711220  0.24670284  1
  V  V89  1  0.87457090  0.50032381  0.87368447  1
  V  V90  1  0.24896625  0.74979942  -0.00076690  1
  V  V91  1  0.00159670  0.25047059  0.75108580  1
  V  V92  1  0.87478799  -0.00026804  0.37592396  1
  V  V93  1  0.25043905  0.62487707  0.87537712  1
  V  V94  1  0.62582680  0.37576202  0.74923031  1
  V  V95  1  0.37521947  0.37554236  0.49875136  1
  Zn  Zn96  1  0.62651093  -0.00055568  0.62631058  1
  Zn  Zn97  1  0.37577995  0.25189422  0.62425180  1
  Zn  Zn98  1  0.24912228  0.12588808  0.87503097  1
  Zn  Zn99  1  0.49971401  0.50031798  0.49916927  1
  Zn  Zn100  1  0.24982500  0.87457429  0.12408036  1
  Zn  Zn101  1  0.12429101  0.74830813  0.87531146  1
  Zn  Zn102  1  0.74929174  0.50005748  0.25130206  1
  Zn  Zn103  1  0.12735577  0.37489481  0.75150972  1
  Zn  Zn104  1  0.24433446  0.37148819  0.12111741  1
  Zn  Zn105  1  0.12807237  0.25185606  0.87512829  1
  Zn  Zn106  1  0.37448849  0.87506218  0.49975994  1
  Zn  Zn107  1  0.12522308  0.49614077  0.12320422  1
  Zn  Zn108  1  0.12291894  0.37337317  0.24581945  1
  Zn  Zn109  1  0.12590874  0.62317373  -0.00104783  1
  Zn  Zn110  1  0.25079926  0.62380060  0.37443327  1
  Zn  Zn111  1  0.74981031  0.87549352  0.12706143  1
  Zn  Zn112  1  0.74824425  0.62419010  0.87536618  1
  Zn  Zn113  1  0.49980209  0.75170240  0.75118898  1
  Zn  Zn114  1  0.49883207  0.75060750  0.25102148  1
  Zn  Zn115  1  0.37330017  0.00032180  0.87640455  1
  Zn  Zn116  1  0.75007741  0.37442317  0.62462388  1
  Zn  Zn117  1  0.12481568  -0.00236912  0.12346166  1
  Zn  Zn118  1  0.87308237  0.24994446  0.12497325  1
  Zn  Zn119  1  -0.00183836  0.87485965  0.37444845  1
  Zn  Zn120  1  0.62632265  0.37498774  0.25070595  1
  Zn  Zn121  1  0.62443962  0.62603795  -0.00081001  1
  Zn  Zn122  1  0.75128057  0.24865827  -0.00018143  1
  Zn  Zn123  1  0.37434147  -0.00137707  0.37636328  1
  Zn  Zn124  1  0.24938193  0.24955810  -0.00292049  1
  Zn  Zn125  1  -0.00013169  0.75121169  0.25008223  1
  Zn  Zn126  1  -0.00069438  0.25206255  0.24833119  1
  Zn  Zn127  1  0.87464167  0.12451954  0.75055901  1
  Zn  Zn128  1  0.18598392  0.18790118  0.18490270  1
  Zn  Zn129  1  0.18844307  0.18887353  0.68583470  1
  Zn  Zn130  1  0.18919288  0.68532309  0.18727107  1
  Zn  Zn131  1  0.18725563  0.68706388  0.68802014  1
  Zn  Zn132  1  0.68733625  0.18867048  0.18779190  1
  Zn  Zn133  1  0.68879332  0.18675124  0.68763011  1
  Zn  Zn134  1  0.68725733  0.68786486  0.18882339  1
  Zn  Zn135  1  0.68712535  0.68725568  0.68990041  1
  Zn  Zn136  1  0.31226506  0.31342311  0.31113199  1
  Zn  Zn137  1  0.31141874  0.31024958  0.81347182  1
  Zn  Zn138  1  0.31335889  0.81257713  0.31474930  1
  Zn  Zn139  1  0.31322702  0.81359522  0.81304280  1
  Zn  Zn140  1  0.81431942  0.31251101  0.30981313  1
  Zn  Zn141  1  0.81299545  0.31216566  0.81182826  1
  Zn  Zn142  1  0.81087238  0.81259312  0.31246809  1
  Zn  Zn143  1  0.81232380  0.81169564  0.81413027  1
  Zn  Zn144  1  0.18829975  0.43712829  0.43431262  1
  Zn  Zn145  1  0.18593810  0.43678126  0.93824149  1
  Zn  Zn146  1  0.18718529  0.93673352  0.43679103  1
  Zn  Zn147  1  0.18757813  0.93918625  0.93456466  1
  Zn  Zn148  1  0.68751706  0.43753544  0.43900874  1
  Zn  Zn149  1  0.68788208  0.43770719  0.93788373  1
  Zn  Zn150  1  0.68663038  0.93785357  0.43808144  1
  Zn  Zn151  1  0.68698720  0.93657127  0.93932258  1
  Zn  Zn152  1  0.31119380  0.06288583  0.06429640  1
  Zn  Zn153  1  0.31429146  0.06376123  0.56464552  1
  Zn  Zn154  1  0.31349839  0.56184616  0.06297495  1
  Zn  Zn155  1  0.31284071  0.56322260  0.56075864  1
  Zn  Zn156  1  0.81157032  0.06115805  0.06263088  1
  Zn  Zn157  1  0.81307072  0.06296949  0.56428760  1
  Zn  Zn158  1  0.81416180  0.56286669  0.06259195  1
  Zn  Zn159  1  0.81125259  0.56151167  0.56304814  1
  Zn  Zn160  1  0.43643908  0.43589397  0.18742363  1
  Zn  Zn161  1  0.43784114  0.43857778  0.68607738  1
  Zn  Zn162  1  0.43652866  0.93641731  0.18804666  1
  Zn  Zn163  1  0.43801535  0.93768110  0.68715033  1
  Zn  Zn164  1  0.93589948  0.43938870  0.18884233  1
  Zn  Zn165  1  0.93790351  0.43562368  0.68693192  1
  Zn  Zn166  1  0.93803114  0.93796278  0.18797447  1
  Zn  Zn167  1  0.93677070  0.93740883  0.68759654  1
  Zn  Zn168  1  0.06270747  0.06214538  0.31329399  1
  Zn  Zn169  1  0.06139945  0.06223108  0.81248974  1
  Zn  Zn170  1  0.06271597  0.56248411  0.31047295  1
  Zn  Zn171  1  0.06442740  0.56213064  0.81334202  1
  Zn  Zn172  1  0.56191323  0.06354379  0.31397007  1
  Zn  Zn173  1  0.56304596  0.06089266  0.81350590  1
  Zn  Zn174  1  0.56158643  0.56238824  0.31116899  1
  Zn  Zn175  1  0.56340770  0.56504385  0.81222469  1
  Zn  Zn176  1  0.43636113  0.18797499  0.43646920  1
  Zn  Zn177  1  0.43906694  0.18820037  0.93613995  1
  Zn  Zn178  1  0.43707168  0.68705518  0.43795051  1
  Zn  Zn179  1  0.43739593  0.68818883  0.93835534  1
  Zn  Zn180  1  0.93884605  0.18758999  0.43641731  1
  Zn  Zn181  1  0.93596510  0.18837015  0.93831221  1
  Zn  Zn182  1  0.93863118  0.68827203  0.43743770  1
  Zn  Zn183  1  0.93616317  0.68663230  0.93747575  1
  Zn  Zn184  1  0.06175198  0.31131790  0.06262890  1
  Zn  Zn185  1  0.06398573  0.31324182  0.56165260  1
  Zn  Zn186  1  0.06348730  0.81074343  0.06337370  1
  Zn  Zn187  1  0.06221739  0.81338572  0.56282135  1
  Zn  Zn188  1  0.56224387  0.31265037  0.06144456  1
  Zn  Zn189  1  0.56238325  0.31352423  0.56205245  1
  Zn  Zn190  1  0.56163688  0.81361626  0.06442086  1
  Zn  Zn191  1  0.56235317  0.81207008  0.56410145  1
  O  O192  1  0.11457101  0.12129761  0.11678629  1
  O  O193  1  0.12031631  0.11929269  0.61857932  1
  O  O194  1  0.11139824  0.62439058  0.12384985  1
  O  O195  1  0.11899041  0.61954306  0.61926426  1
  O  O196  1  0.61884520  0.12021757  0.12034567  1
  O  O197  1  0.62001803  0.12309640  0.61786008  1
  O  O198  1  0.62009116  0.61602902  0.12350768  1
  O  O199  1  0.61995523  0.62112817  0.62073662  1
  O  O200  1  0.38092546  0.37975179  0.37972585  1
  O  O201  1  0.38208585  0.38058496  0.87872461  1
  O  O202  1  0.38327445  0.87763484  0.37940066  1
  O  O203  1  0.38213240  0.87698345  0.88217974  1
  O  O204  1  0.88021925  0.38110570  0.38040841  1
  O  O205  1  0.88004574  0.38114980  0.87978712  1
  O  O206  1  0.87502723  0.88139218  0.38225925  1
  O  O207  1  0.88089877  0.87944678  0.88148579  1
  O  O208  1  0.25042438  0.00592700  0.36606673  1
  O  O209  1  0.25332157  0.00479084  0.86497442  1
  O  O210  1  0.25702189  0.50114488  0.36482229  1
  O  O211  1  0.25667665  0.50474920  0.86931938  1
  O  O212  1  0.75472926  0.00681805  0.37104185  1
  O  O213  1  0.75467867  0.00373076  0.87087522  1
  O  O214  1  0.75652912  0.50730865  0.37543882  1
  O  O215  1  0.75642995  0.50135752  0.86856322  1
  O  O216  1  0.24967100  0.49856867  0.13472920  1
  O  O217  1  0.24523986  0.49599576  0.62943196  1
  O  O218  1  0.24701377  0.99826876  0.13909308  1
  O  O219  1  0.24399903  0.99501654  0.62922834  1
  O  O220  1  0.74165984  0.49306860  0.12428962  1
  O  O221  1  0.74322999  0.49814051  0.63189658  1
  O  O222  1  0.74218777  0.99891316  0.13262532  1
  O  O223  1  0.74982996  0.99266209  0.63162914  1
  O  O224  1  0.00010219  0.37381009  0.25841772  1
  O  O225  1  0.00108727  0.36588097  0.75492432  1
  O  O226  1  0.01197699  0.87388738  0.25272724  1
  O  O227  1  0.00449478  0.86949335  0.75422160  1
  O  O228  1  0.50126066  0.36731718  0.25650142  1
  O  O229  1  0.50551181  0.37037400  0.75504847  1
  O  O230  1  0.50603024  0.87531259  0.25889979  1
  O  O231  1  0.50686550  0.87466330  0.75685065  1
  O  O232  1  0.49417059  0.13009035  0.24512557  1
  O  O233  1  0.49495316  0.12884983  0.74501921  1
  O  O234  1  0.49296038  0.62660548  0.24270442  1
  O  O235  1  0.49292810  0.62770154  0.74379768  1
  O  O236  1  0.99472010  0.12153529  0.24002757  1
  O  O237  1  0.99859534  0.13343123  0.74359819  1
  O  O238  1  0.99364970  0.62689707  0.24077593  1
  O  O239  1  0.99470156  0.62957121  0.74393026  1
  O  O240  1  0.37684685  0.25524498  0.00550221  1
  O  O241  1  0.36803293  0.25647054  0.50068526  1
  O  O242  1  0.36683094  0.75542867  0.00526063  1
  O  O243  1  0.36731912  0.75045189  0.50725757  1
  O  O244  1  0.87168376  0.25918355  0.00312120  1
  O  O245  1  0.87076754  0.25486259  0.50372211  1
  O  O246  1  0.86740169  0.75476287  0.00492696  1
  O  O247  1  0.86967731  0.75477155  0.50560776  1
  O  O248  1  0.13082594  0.24381177  0.49382162  1
  O  O249  1  0.12342595  0.23651835  0.99835256  1
  O  O250  1  0.12906534  0.74603600  0.49351441  1
  O  O251  1  0.13767434  0.74815978  0.99875072  1
  O  O252  1  0.63111755  0.24503581  0.49424238  1
  O  O253  1  0.62521166  0.24301530  0.99252585  1
  O  O254  1  0.63115746  0.74465847  0.49539220  1
  O  O255  1  0.63412729  0.75137154  0.99637011  1
  O  O256  1  0.49512042  0.24425336  0.13023298  1
  O  O257  1  0.49977240  0.24353762  0.63139079  1
  O  O258  1  0.49333150  0.74337651  0.12665407  1
  O  O259  1  0.49302163  0.74402719  0.62740322  1
  O  O260  1  0.99623582  0.23522768  0.12585697  1
  O  O261  1  0.99630545  0.24562898  0.63102200  1
  O  O262  1  0.99353361  0.74035518  0.12534367  1
  O  O263  1  0.99441661  0.74404282  0.62979339  1
  O  O264  1  0.00663399  0.25633779  0.37440157  1
  O  O265  1  -0.00118120  0.25507509  0.86479669  1
  O  O266  1  0.01257368  0.75228145  0.37392787  1
  O  O267  1  -0.00007451  0.75595724  0.86832367  1
  O  O268  1  0.50563223  0.25444917  0.36971955  1
  O  O269  1  0.50713306  0.25599961  0.86816253  1
  O  O270  1  0.50681679  0.75735738  0.37554125  1
  O  O271  1  0.50691991  0.75776341  0.87608685  1
  O  O272  1  0.24521008  0.12963567  0.49534698  1
  O  O273  1  0.23714345  0.12317694  1.00003465  1
  O  O274  1  0.24190193  0.63193940  0.49846675  1
  O  O275  1  0.25216037  0.63410796  0.99416516  1
  O  O276  1  0.74567507  0.12994487  0.49412241  1
  O  O277  1  0.74221904  0.12481805  0.99387814  1
  O  O278  1  0.74471728  0.63149417  0.49558964  1
  O  O279  1  0.75020487  0.63846414  0.99928522  1
  O  O280  1  0.25984689  0.37282951  0.00014887  1
  O  O281  1  0.25553849  0.37024623  0.50378644  1
  O  O282  1  0.25499351  0.86656451  0.00012333  1
  O  O283  1  0.25016281  0.86923503  0.50719472  1
  O  O284  1  0.75524115  0.37514998  0.00918976  1
  O  O285  1  0.75738914  0.36750975  0.50090825  1
  O  O286  1  0.75634473  0.86489289  0.00235052  1
  O  O287  1  0.75477844  0.86962459  0.50601417  1
  O  O288  1  0.13662775  0.49949765  0.24876333  1
  O  O289  1  0.13220657  0.49950849  0.74180889  1
  O  O290  1  0.13338749  0.99083929  0.25191376  1
  O  O291  1  0.12944328  0.99522162  0.74330922  1
  O  O292  1  0.62634552  0.49798023  0.23686210  1
  O  O293  1  0.63027926  0.49531537  0.74552637  1
  O  O294  1  0.62966147  0.99672061  0.24650099  1
  O  O295  1  0.63265152  0.99257076  0.74966912  1
  O  O296  1  0.36545027  0.00540067  0.25154376  1
  O  O297  1  0.37000782  0.00969365  0.74900024  1
  O  O298  1  0.36796068  0.50469652  0.25390654  1
  O  O299  1  0.36988102  0.50584612  0.75531390  1
  O  O300  1  0.86868606  0.00438464  0.25650296  1
  O  O301  1  0.86852709  -0.00008048  0.75735763  1
  O  O302  1  0.87248637  0.50870427  0.25844880  1
  O  O303  1  0.87064036  0.50437964  0.75360067  1
  O  O304  1  0.11791824  0.36830493  0.37391084  1
  O  O305  1  0.11539337  0.37279431  0.87182723  1
  O  O306  1  0.12406504  0.86613161  0.36730641  1
  O  O307  1  0.11763189  0.87305872  0.86739820  1
  O  O308  1  0.61956296  0.36883774  0.37388135  1
  O  O309  1  0.61972554  0.37052580  0.86927238  1
  O  O310  1  0.61973962  0.86965313  0.37104279  1
  O  O311  1  0.61956264  0.86964364  0.87135549  1
  O  O312  1  0.38129678  0.13050756  0.13063520  1
  O  O313  1  0.38268129  0.12753052  0.63525681  1
  O  O314  1  0.38147247  0.62975682  0.13016440  1
  O  O315  1  0.37957630  0.63008732  0.63015683  1
  O  O316  1  0.88319574  0.12317285  0.12974799  1
  O  O317  1  0.88289945  0.13197426  0.62624374  1
  O  O318  1  0.88249073  0.63044141  0.13071026  1
  O  O319  1  0.88085713  0.63002805  0.62957679  1
  O  O320  1  0.25977523  0.24970870  0.12092007  1
  O  O321  1  0.25115062  0.25765269  0.61693008  1
  O  O322  1  0.25630220  0.74914289  0.11464222  1
  O  O323  1  0.25405811  0.75554399  0.62036826  1
  O  O324  1  0.74919259  0.26212214  0.12211010  1
  O  O325  1  0.75755304  0.25040943  0.61798500  1
  O  O326  1  0.75543482  0.75195803  0.11690547  1
  O  O327  1  0.75596917  0.75461244  0.62033226  1
  O  O328  1  0.24436630  0.24475108  0.38000041  1
  O  O329  1  0.24567056  0.24343649  0.87772941  1
  O  O330  1  0.23939915  0.74870288  0.38141794  1
  O  O331  1  0.25122384  0.74433301  0.88470810  1
  O  O332  1  0.74567437  0.24468712  0.37995943  1
  O  O333  1  0.74364262  0.24306289  0.87547509  1
  O  O334  1  0.74420115  0.74467134  0.38219803  1
  O  O335  1  0.74421471  0.74987250  0.88548683  1
  O  O336  1  0.00453638  0.11845710  0.00671523  1
  O  O337  1  0.00640531  0.11952390  0.50550754  1
  O  O338  1  -0.00159304  0.61988520  0.00911053  1
  O  O339  1  0.00514115  0.61971164  0.50605293  1
  O  O340  1  0.50522393  0.11947795  0.00568542  1
  O  O341  1  0.50514689  0.11884693  0.50372063  1
  O  O342  1  0.50019203  0.61771864  0.00729376  1
  O  O343  1  0.50717929  0.62401057  0.50712804  1
  O  O344  1  0.49344700  0.37605523  0.49235883  1
  O  O345  1  0.49509195  0.38096140  0.99272284  1
  O  O346  1  0.50126263  0.88496174  0.49550191  1
  O  O347  1  0.49438679  0.88101969  0.99614506  1
  O  O348  1  0.99491176  0.38108571  0.49374441  1
  O  O349  1  0.99297184  0.38056415  0.99457973  1
  O  O350  1  0.99287236  0.88207151  0.49998237  1
  O  O351  1  0.99572812  0.87867087  0.99504138  1
  O  O352  1  0.49372179  0.49303056  0.37520634  1
  O  O353  1  0.49537602  0.49523644  0.87936698  1
  O  O354  1  0.49978686  0.99508561  0.38499248  1
  O  O355  1  0.49906960  0.99358957  0.88362936  1
  O  O356  1  0.99473812  0.49618662  0.38106080  1
  O  O357  1  0.99366148  0.49487438  0.87895398  1
  O  O358  1  0.99306438  0.99928663  0.38277623  1
  O  O359  1  0.99349396  0.99300179  0.87940106  1
  O  O360  1  0.00050158  0.00875376  0.11821281  1
  O  O361  1  0.00541137  0.00528962  0.62007759  1
  O  O362  1  -0.00309249  0.51059646  0.11883863  1
  O  O363  1  0.00520797  0.50492124  0.61890247  1
  O  O364  1  0.50476731  0.00660334  0.12110598  1
  O  O365  1  0.50334845  0.00563331  0.61531245  1
  O  O366  1  0.50751527  0.50345041  0.11973503  1
  O  O367  1  0.50706729  0.50790357  0.62349832  1
  O  O368  1  0.24998358  0.38600972  0.24657999  1
  O  O369  1  0.25043232  0.38195527  0.74275948  1
  O  O370  1  0.24215699  0.88300827  0.25120637  1
  O  O371  1  0.24442199  0.88091966  0.74430966  1
  O  O372  1  0.74844597  0.37842935  0.23808807  1
  O  O373  1  0.74343080  0.38124210  0.74807485  1
  O  O374  1  0.74217129  0.88291195  0.25033388  1
  O  O375  1  0.74564184  0.87947025  0.74600731  1
  O  O376  1  0.25322522  0.11672272  0.25477317  1
  O  O377  1  0.25993864  0.12027939  0.74661879  1
  O  O378  1  0.25692272  0.61506465  0.25096263  1
  O  O379  1  0.25619356  0.61928528  0.75469232  1
  O  O380  1  0.75485596  0.11970241  0.25565064  1
  O  O381  1  0.75157865  0.11748478  0.75734393  1
  O  O382  1  0.75647095  0.62427060  0.25793042  1
  O  O383  1  0.75778787  0.61820654  0.75123123  1
  O  O384  1  0.36779594  0.12336994  0.36766014  1
  O  O385  1  0.37704756  0.12320570  0.86090051  1
  O  O386  1  0.37413747  0.61884572  0.36802927  1
  O  O387  1  0.37079389  0.61896199  0.86946037  1
  O  O388  1  0.86968180  0.11908618  0.37048056  1
  O  O389  1  0.86834076  0.11684109  0.87502378  1
  O  O390  1  0.87012077  0.62126666  0.37190373  1
  O  O391  1  0.87387561  0.61803416  0.86724818  1
  O  O392  1  0.12622098  0.37770546  0.12812339  1
  O  O393  1  0.13238381  0.38281501  0.62486237  1
  O  O394  1  0.12778569  0.87532914  0.13731894  1
  O  O395  1  0.12989471  0.88102295  0.63056866  1
  O  O396  1  0.63231844  0.38409150  0.12418118  1
  O  O397  1  0.62586885  0.38180823  0.63174764  1
  O  O398  1  0.62446353  0.88307280  0.13339505  1
  O  O399  1  0.63263721  0.87485719  0.63261557  1
  O  O400  1  0.12202462  0.25001611  0.25847865  1
  O  O401  1  0.11206503  0.25120131  0.74912656  1
  O  O402  1  0.12727698  0.75753326  0.25846899  1
  O  O403  1  0.11776324  0.75688688  0.74983565  1
  O  O404  1  0.61793062  0.25067939  0.25713737  1
  O  O405  1  0.62045291  0.25546469  0.75536031  1
  O  O406  1  0.62331583  0.75693489  0.25750884  1
  O  O407  1  0.62506881  0.75701746  0.75901616  1
  O  O408  1  0.38024482  0.24384364  0.24406403  1
  O  O409  1  0.38272665  0.24127620  0.74784772  1
  O  O410  1  0.37440437  0.74344853  0.24383201  1
  O  O411  1  0.37524641  0.74349763  0.74333413  1
  O  O412  1  0.87782167  0.23979170  0.24653306  1
  O  O413  1  0.88591064  0.24912588  0.74345222  1
  O  O414  1  0.87653057  0.74498998  0.24486107  1
  O  O415  1  0.88024125  0.74477344  0.74409991  1
  O  O416  1  0.37562553  0.49383574  0.49194904  1
  O  O417  1  0.38102150  0.49401695  0.99364558  1
  O  O418  1  0.38794539  1.00026269  0.49945166  1
  O  O419  1  0.38104000  0.99467137  1.00071260  1
  O  O420  1  0.88101749  0.49566200  0.49510668  1
  O  O421  1  0.88009652  0.49499765  0.99312794  1
  O  O422  1  0.87952453  0.99498835  0.49555328  1
  O  O423  1  0.87949227  0.99301646  0.99452880  1
  O  O424  1  0.11777381  0.00658897  0.00133424  1
  O  O425  1  0.12012100  0.00528453  0.50502235  1
  O  O426  1  0.11583934  0.50355653  0.00230818  1
  O  O427  1  0.11996871  0.50588423  0.50379866  1
  O  O428  1  0.61895505  0.00504344  0.00679406  1
  O  O429  1  0.61554982  0.00697759  0.50067411  1
  O  O430  1  0.61931992  0.50151972  0.00956449  1
  O  O431  1  0.62416928  0.50746162  0.50712506  1
  O  O432  1  0.37625365  0.36724116  0.11636769  1
  O  O433  1  0.36896931  0.37503120  0.61724316  1
  O  O434  1  0.37288928  0.86782080  0.11887771  1
  O  O435  1  0.36811384  0.86876462  0.62373692  1
  O  O436  1  0.86499768  0.37711751  0.11909642  1
  O  O437  1  0.87468408  0.36833968  0.61642338  1
  O  O438  1  0.87442529  0.86881359  0.11902730  1
  O  O439  1  0.86948406  0.86847831  0.61981892  1
  O  O440  1  0.13045222  0.13009246  0.38093407  1
  O  O441  1  0.12234408  0.12533831  0.88660493  1
  O  O442  1  0.12530582  0.63477449  0.38029082  1
  O  O443  1  0.13414515  0.62835140  0.87709948  1
  O  O444  1  0.63107051  0.13164020  0.38053213  1
  O  O445  1  0.62984136  0.12988846  0.88058349  1
  O  O446  1  0.62969457  0.62994040  0.38035414  1
  O  O447  1  0.62747192  0.63384798  0.87898355  1
