# generated using pymatgen
data_V3Zn3O8
_symmetry_space_group_name_H-M   'P 1'
_cell_length_a   17.08920626
_cell_length_b   17.08862428
_cell_length_c   17.08920014
_cell_angle_alpha   89.99290144
_cell_angle_beta   89.99873416
_cell_angle_gamma   89.99851055
_symmetry_Int_Tables_number   1
_chemical_formula_structural   V3Zn3O8
_chemical_formula_sum   'V96 Zn96 O256'
_cell_volume   4990.57659273
_cell_formula_units_Z   32
loop_
 _symmetry_equiv_pos_site_id
 _symmetry_equiv_pos_as_xyz
  1  'x, y, z'
loop_
 _atom_site_type_symbol
 _atom_site_label
 _atom_site_symmetry_multiplicity
 _atom_site_fract_x
 _atom_site_fract_y
 _atom_site_fract_z
 _atom_site_occupancy
  V  V0  1  0.87515338  0.50035847  0.87431179  1
  V  V1  1  0.12430253  0.87603480  0.75043451  1
  V  V2  1  -0.00222461  -0.00112679  0.49880795  1
  V  V3  1  0.62662107  0.37596218  0.24983381  1
  V  V4  1  0.50065171  0.37560122  0.87519017  1
  V  V5  1  0.62363479  0.87421501  0.74936666  1
  V  V6  1  0.00030759  0.62443373  0.62506290  1
  V  V7  1  0.12471087  0.00067283  0.62726142  1
  V  V8  1  0.75046349  0.24872029  0.49964860  1
  V  V9  1  0.74953824  0.49936708  0.74806447  1
  V  V10  1  0.12465408  0.74948310  0.37481139  1
  V  V11  1  0.00100034  0.37470482  0.37520342  1
  V  V12  1  0.87482738  0.25050754  0.62455807  1
  V  V13  1  0.49951791  0.62486718  0.12474160  1
  V  V14  1  0.00075323  0.25048231  0.75073738  1
  V  V15  1  0.74869035  0.62542620  0.87417745  1
  V  V16  1  0.62680504  0.24917580  0.37573554  1
  V  V17  1  0.62540876  0.62377036  0.49799729  1
  V  V18  1  0.25028541  0.25051730  0.00080183  1
  V  V19  1  0.62587020  0.37449103  0.74900524  1
  V  V20  1  0.00028474  0.37463916  0.87453623  1
  V  V21  1  0.87525525  0.74943805  0.12487597  1
  V  V22  1  0.00065931  0.49972201  -0.00040351  1
  V  V23  1  0.87403411  0.50130551  0.37301656  1
  V  V24  1  0.62451800  0.12480447  0.00044848  1
  V  V25  1  0.25126256  0.37584359  0.62479154  1
  V  V26  1  0.00020186  0.49892636  0.49999757  1
  V  V27  1  0.25028809  0.49960344  0.25033637  1
  V  V28  1  0.75088129  0.00000242  0.24962544  1
  V  V29  1  0.37421808  0.12539735  0.75135525  1
  V  V30  1  0.50065047  0.87394540  0.37528219  1
  V  V31  1  0.37607974  0.24953919  0.62626947  1
  V  V32  1  0.00011889  0.74980901  0.24927635  1
  V  V33  1  0.74896781  0.87536462  0.12493383  1
  V  V34  1  0.49884199  0.12559622  0.12668780  1
  V  V35  1  -0.00022196  0.00071208  0.00073934  1
  V  V36  1  0.24990564  0.87553867  0.12600837  1
  V  V37  1  0.12464024  0.75006705  0.87590038  1
  V  V38  1  0.49936338  0.24977275  0.75011852  1
  V  V39  1  0.50018086  0.75053476  0.25004506  1
  V  V40  1  0.37493220  0.50118723  0.87441011  1
  V  V41  1  0.37541627  -0.00125257  0.37696924  1
  V  V42  1  0.87433068  0.00003541  0.87478489  1
  V  V43  1  0.25084766  0.50155694  0.75018901  1
  V  V44  1  0.49952207  0.62667573  0.62502717  1
  V  V45  1  0.12507285  0.37484718  0.25117786  1
  V  V46  1  0.24877466  0.74976536  -0.00021503  1
  V  V47  1  0.00069911  0.24991729  0.25036843  1
  V  V48  1  0.12528760  0.50027934  0.12499928  1
  V  V49  1  0.74942727  0.87482878  0.62455723  1
  V  V50  1  0.87442181  0.12508319  0.75035805  1
  V  V51  1  0.37459967  0.87530361  0.00068871  1
  V  V52  1  0.75066104  0.74950332  0.49654707  1
  V  V53  1  0.12511720  0.25035898  0.87583869  1
  V  V54  1  0.87536100  0.12520939  0.25027861  1
  V  V55  1  0.12606078  0.12625282  0.50133939  1
  V  V56  1  0.25083195  0.24937019  0.50042570  1
  V  V57  1  0.25055942  0.87418617  0.62424921  1
  V  V58  1  0.62496085  0.49953366  0.12504627  1
  V  V59  1  0.87382848  0.62496188  0.74912631  1
  V  V60  1  0.37226095  0.00071667  0.87630732  1
  V  V61  1  0.50105998  0.37461386  0.37546996  1
  V  V62  1  0.50069209  0.24982103  0.24949873  1
  V  V63  1  0.87459121  0.37525461  0.00033566  1
  V  V64  1  0.37497771  0.62465210  0.25066693  1
  V  V65  1  0.12405625  0.87445167  0.25121349  1
  V  V66  1  0.25038771  0.12471717  0.37599241  1
  V  V67  1  0.37422160  0.74975814  0.12506977  1
  V  V68  1  0.87464753  0.74993187  0.62381144  1
  V  V69  1  0.24913116  0.00092165  0.25089102  1
  V  V70  1  0.24982607  0.62526186  0.37581253  1
  V  V71  1  0.49953251  0.87335464  0.87538067  1
  V  V72  1  0.75030936  0.37391626  0.62466108  1
  V  V73  1  0.62448422  0.24929911  0.87440268  1
  V  V74  1  0.12585479  0.62557700  0.49966071  1
  V  V75  1  -0.00043461  0.62561451  0.12464902  1
  V  V76  1  0.74948364  0.37541356  0.12436641  1
  V  V77  1  0.75018408  0.12455911  0.37463912  1
  V  V78  1  0.62481337  0.62549229  -0.00080770  1
  V  V79  1  0.75060778  0.25068440  -0.00036734  1
  V  V80  1  0.12566621  0.49984213  0.62537240  1
  V  V81  1  0.12564605  0.62530987  -0.00098652  1
  V  V82  1  -0.00110217  0.87524889  0.87481023  1
  V  V83  1  0.25122188  0.37451232  0.12575455  1
  V  V84  1  -0.00073201  0.74993598  0.74987153  1
  V  V85  1  0.12414781  0.00035725  0.12524092  1
  V  V86  1  0.74919782  0.74941923  -0.00088163  1
  V  V87  1  0.00004483  0.12608502  0.62562647  1
  V  V88  1  0.74899427  -0.00053177  0.74872432  1
  V  V89  1  0.87383977  0.87478684  -0.00072988  1
  V  V90  1  0.74911799  0.12469887  0.87492965  1
  V  V91  1  0.37653139  0.49929197  0.37574784  1
  V  V92  1  -0.00032320  0.12494616  0.12567311  1
  V  V93  1  0.62548549  -0.00004904  0.12557107  1
  V  V94  1  0.37706616  0.37457310  0.49962524  1
  V  V95  1  0.49945201  0.49993498  -0.00066870  1
  Zn  Zn96  1  0.62121622  0.00087218  0.62121078  1
  Zn  Zn97  1  0.87251282  0.62544983  0.24891691  1
  Zn  Zn98  1  0.37338081  0.12695950  0.25026132  1
  Zn  Zn99  1  0.12519457  0.37485329  0.74980258  1
  Zn  Zn100  1  0.62501835  0.49863896  0.62345537  1
  Zn  Zn101  1  0.12594961  0.25026988  0.37599979  1
  Zn  Zn102  1  0.50228358  0.49904572  0.50074930  1
  Zn  Zn103  1  0.87488095  0.87503790  0.49793153  1
  Zn  Zn104  1  -0.00126393  0.87419166  0.37589761  1
  Zn  Zn105  1  0.24794077  0.00146331  0.75145488  1
  Zn  Zn106  1  0.49969699  0.00002077  0.00251295  1
  Zn  Zn107  1  0.25126708  0.62687596  0.87343790  1
  Zn  Zn108  1  0.50265580  0.00008158  0.50206306  1
  Zn  Zn109  1  0.49632636  0.75035161  0.74775897  1
  Zn  Zn110  1  0.37473404  0.25124499  0.12628009  1
  Zn  Zn111  1  0.37368526  0.74962095  0.62471714  1
  Zn  Zn112  1  0.50124391  0.12146681  0.62088452  1
  Zn  Zn113  1  0.25100258  0.75087471  0.50011234  1
  Zn  Zn114  1  0.75076772  0.50247109  0.24924715  1
  Zn  Zn115  1  0.87548159  0.25110971  0.12517806  1
  Zn  Zn116  1  0.87536381  0.37465244  0.49952303  1
  Zn  Zn117  1  0.74925636  0.62516469  0.37040597  1
  Zn  Zn118  1  0.37670223  0.62840963  0.74829902  1
  Zn  Zn119  1  0.62597477  0.87334001  0.24920489  1
  Zn  Zn120  1  0.12483407  0.12475008  0.00010810  1
  Zn  Zn121  1  0.37592306  0.87218194  0.50276285  1
  Zn  Zn122  1  0.62327844  0.12169748  0.50217809  1
  Zn  Zn123  1  0.37650463  0.37437516  0.00239807  1
  Zn  Zn124  1  0.62330252  0.74865827  0.87418858  1
  Zn  Zn125  1  0.87458203  -0.00226931  0.37478746  1
  Zn  Zn126  1  0.62673972  0.74961249  0.37086200  1
  Zn  Zn127  1  0.24764920  0.12525190  0.87736496  1
  Zn  Zn128  1  0.18592662  0.18725422  0.18790245  1
  Zn  Zn129  1  0.18876973  0.18837107  0.68919703  1
  Zn  Zn130  1  0.18689446  0.68723237  0.18801546  1
  Zn  Zn131  1  0.18692219  0.68843263  0.68778944  1
  Zn  Zn132  1  0.68775676  0.18822371  0.18787265  1
  Zn  Zn133  1  0.68592186  0.18625624  0.68533704  1
  Zn  Zn134  1  0.68786216  0.68694441  0.18819993  1
  Zn  Zn135  1  0.68495105  0.68893857  0.68498943  1
  Zn  Zn136  1  0.31421725  0.31056487  0.31259736  1
  Zn  Zn137  1  0.31226347  0.31470179  0.81393556  1
  Zn  Zn138  1  0.31227810  0.81231040  0.31337906  1
  Zn  Zn139  1  0.31200696  0.81133518  0.80861237  1
  Zn  Zn140  1  0.81404459  0.31354310  0.31185769  1
  Zn  Zn141  1  0.81269454  0.31230039  0.81235168  1
  Zn  Zn142  1  0.81633624  0.81546417  0.31284827  1
  Zn  Zn143  1  0.81107629  0.81166772  0.81188071  1
  Zn  Zn144  1  0.18834672  0.43754844  0.43796588  1
  Zn  Zn145  1  0.18789049  0.43526763  0.93750374  1
  Zn  Zn146  1  0.18528197  0.93780728  0.43905162  1
  Zn  Zn147  1  0.18682835  0.93669383  0.93886125  1
  Zn  Zn148  1  0.68964611  0.43660438  0.43783618  1
  Zn  Zn149  1  0.68728026  0.43821006  0.93688068  1
  Zn  Zn150  1  0.68560406  0.93787953  0.43638614  1
  Zn  Zn151  1  0.68576517  0.93822089  0.93790557  1
  Zn  Zn152  1  0.31199467  0.06388081  0.06259670  1
  Zn  Zn153  1  0.31334529  0.06044707  0.56351148  1
  Zn  Zn154  1  0.31190022  0.56236724  0.06144710  1
  Zn  Zn155  1  0.31436676  0.56243228  0.56110471  1
  Zn  Zn156  1  0.81341841  0.06346206  0.06373476  1
  Zn  Zn157  1  0.81059152  0.06299735  0.56247109  1
  Zn  Zn158  1  0.81194214  0.56246103  0.06227562  1
  Zn  Zn159  1  0.81263906  0.56152464  0.56059750  1
  Zn  Zn160  1  0.43760461  0.43639857  0.18803812  1
  Zn  Zn161  1  0.43963814  0.44004641  0.68612329  1
  Zn  Zn162  1  0.43732609  0.93894414  0.19036806  1
  Zn  Zn163  1  0.43674030  0.93950070  0.68793580  1
  Zn  Zn164  1  0.93735322  0.43693442  0.18795130  1
  Zn  Zn165  1  0.93681916  0.43642740  0.68726358  1
  Zn  Zn166  1  0.93668630  0.93683493  0.18816880  1
  Zn  Zn167  1  0.93591487  0.93722771  0.68539979  1
  Zn  Zn168  1  0.06348544  0.06404498  0.31406631  1
  Zn  Zn169  1  0.06247664  0.06439290  0.81435673  1
  Zn  Zn170  1  0.06106175  0.56319948  0.31218134  1
  Zn  Zn171  1  0.06362887  0.56290444  0.81225002  1
  Zn  Zn172  1  0.56466174  0.06127796  0.31262012  1
  Zn  Zn173  1  0.56042440  0.06048061  0.81124721  1
  Zn  Zn174  1  0.56289495  0.56204214  0.31286258  1
  Zn  Zn175  1  0.56318480  0.56216415  0.81010881  1
  Zn  Zn176  1  0.43883304  0.18589596  0.43795332  1
  Zn  Zn177  1  0.43671603  0.18793952  0.93947975  1
  Zn  Zn178  1  0.43606327  0.69059120  0.44112441  1
  Zn  Zn179  1  0.43623910  0.68751639  0.93762481  1
  Zn  Zn180  1  0.93653849  0.18696732  0.43647337  1
  Zn  Zn181  1  0.93756323  0.18761064  0.93856198  1
  Zn  Zn182  1  0.93813648  0.68594574  0.43634956  1
  Zn  Zn183  1  0.93684394  0.68701162  0.93759322  1
  Zn  Zn184  1  0.06356868  0.31214228  0.06355499  1
  Zn  Zn185  1  0.06387252  0.31344402  0.56275348  1
  Zn  Zn186  1  0.06210255  0.81383696  0.06300788  1
  Zn  Zn187  1  0.06452641  0.81251858  0.56239218  1
  Zn  Zn188  1  0.56336862  0.31213203  0.06175085  1
  Zn  Zn189  1  0.56340866  0.30891213  0.56255040  1
  Zn  Zn190  1  0.56264704  0.81188369  0.06217721  1
  Zn  Zn191  1  0.56318487  0.81169819  0.56047301  1
  O  O192  1  0.11751368  0.11689067  0.12415722  1
  O  O193  1  0.11968147  0.12085099  0.62183042  1
  O  O194  1  0.11994285  0.61957993  0.11866791  1
  O  O195  1  0.11918067  0.61928923  0.62057947  1
  O  O196  1  0.61775038  0.12053665  0.11992967  1
  O  O197  1  0.62077303  0.12058223  0.62388397  1
  O  O198  1  0.61833742  0.61941739  0.11838670  1
  O  O199  1  0.61832893  0.62405069  0.61496071  1
  O  O200  1  0.38097586  0.37957030  0.37990622  1
  O  O201  1  0.38180558  0.38668630  0.87587990  1
  O  O202  1  0.38179323  0.88314441  0.37384023  1
  O  O203  1  0.38062760  0.88225663  0.87934893  1
  O  O204  1  0.88278285  0.38432589  0.37620048  1
  O  O205  1  0.88002977  0.38123341  0.88010940  1
  O  O206  1  0.88138332  0.88003307  0.38042607  1
  O  O207  1  0.87944185  0.88023658  0.87926660  1
  O  O208  1  0.25600469  0.00381801  0.37063452  1
  O  O209  1  0.26102997  0.00032686  0.87552299  1
  O  O210  1  0.25602543  0.50507195  0.36891203  1
  O  O211  1  0.25771901  0.49936149  0.86734846  1
  O  O212  1  0.75127438  0.00631874  0.36697433  1
  O  O213  1  0.75536035  0.00517027  0.86973856  1
  O  O214  1  0.76262753  0.50006268  0.37421482  1
  O  O215  1  0.75614575  0.50552316  0.86895668  1
  O  O216  1  0.24468549  0.49571168  0.13073715  1
  O  O217  1  0.24647905  0.49581783  0.63221870  1
  O  O218  1  0.24503033  0.99478399  0.13012410  1
  O  O219  1  0.24212483  0.99261871  0.62782158  1
  O  O220  1  0.74222960  0.49302449  0.12334002  1
  O  O221  1  0.75021450  0.49270249  0.63124683  1
  O  O222  1  0.74535705  0.99500973  0.12913147  1
  O  O223  1  0.75078263  0.99218141  0.63306659  1
  O  O224  1  0.00637233  0.37025628  0.25481662  1
  O  O225  1  0.00052766  0.36834556  0.75682698  1
  O  O226  1  0.00746586  0.86788527  0.24935441  1
  O  O227  1  0.00350276  0.86939432  0.75522390  1
  O  O228  1  0.50681012  0.36990343  0.25530728  1
  O  O229  1  0.50564078  0.36988869  0.75563045  1
  O  O230  1  0.49939024  0.86805074  0.25731300  1
  O  O231  1  0.50739531  0.87563598  0.75953947  1
  O  O232  1  0.50226593  0.13074668  0.24001239  1
  O  O233  1  0.48764208  0.13139263  0.75303480  1
  O  O234  1  0.49389975  0.62964352  0.24399811  1
  O  O235  1  0.50219336  0.62730936  0.73847916  1
  O  O236  1  0.99573938  0.12965910  0.24537172  1
  O  O237  1  0.99371418  0.13066832  0.74510498  1
  O  O238  1  0.99983679  0.63192646  0.24103624  1
  O  O239  1  0.99403003  0.63015093  0.74500521  1
  O  O240  1  0.36351698  0.25309607  0.00177543  1
  O  O241  1  0.36967928  0.25537148  0.50615999  1
  O  O242  1  0.36851480  0.75500141  0.00591763  1
  O  O243  1  0.36794373  0.75454839  0.50574069  1
  O  O244  1  0.86816131  0.25761771  -0.00003317  1
  O  O245  1  0.86942863  0.25104880  0.50739156  1
  O  O246  1  0.86957781  0.75562099  0.00437469  1
  O  O247  1  0.86656097  0.74777065  0.50617910  1
  O  O248  1  0.13299248  0.24361127  0.50049010  1
  O  O249  1  0.13370043  0.24995204  0.99426695  1
  O  O250  1  0.12549091  0.74204547  0.49316502  1
  O  O251  1  0.12914620  0.74591129  0.99534131  1
  O  O252  1  0.63344515  0.24880900  0.49207195  1
  O  O253  1  0.63083420  0.24444090  0.99290012  1
  O  O254  1  0.63553652  0.74132146  0.49802852  1
  O  O255  1  0.63131382  0.74294944  0.99830477  1
  O  O256  1  0.50196327  0.24059441  0.12995587  1
  O  O257  1  0.49211507  0.24921213  0.63367806  1
  O  O258  1  0.49287350  0.74423011  0.12871982  1
  O  O259  1  0.49998228  0.73905177  0.62484820  1
  O  O260  1  0.99940702  0.24372830  0.13180647  1
  O  O261  1  0.99532202  0.24522398  0.63056599  1
  O  O262  1  0.99504038  0.74523697  0.12844557  1
  O  O263  1  0.99574419  0.74392757  0.63065953  1
  O  O264  1  0.00230976  0.25640218  0.36895133  1
  O  O265  1  0.00479657  0.25510254  0.87065911  1
  O  O266  1  0.00733952  0.74956002  0.36785784  1
  O  O267  1  0.00381392  0.75577465  0.86984041  1
  O  O268  1  0.50626500  0.25575082  0.36896537  1
  O  O269  1  0.50506734  0.25560664  0.87069550  1
  O  O270  1  0.49759216  0.75889910  0.36769110  1
  O  O271  1  0.49955753  0.76310461  0.87472746  1
  O  O272  1  0.24570510  0.12991683  0.49678130  1
  O  O273  1  0.24748686  0.13720770  0.99968886  1
  O  O274  1  0.24248556  0.62394885  0.49316854  1
  O  O275  1  0.24306853  0.63196249  0.99879916  1
  O  O276  1  0.75041876  0.13217958  0.49217132  1
  O  O277  1  0.74512431  0.13027394  0.99409325  1
  O  O278  1  0.74247819  0.63387913  0.50054833  1
  O  O279  1  0.74448263  0.62950846  0.99400131  1
  O  O280  1  0.25042263  0.36647600  0.00710965  1
  O  O281  1  0.25670085  0.36999993  0.50538325  1
  O  O282  1  0.25470639  0.86905979  0.00696914  1
  O  O283  1  0.24701086  0.87496744  0.51298793  1
  O  O284  1  0.75463387  0.37033607  0.00362640  1
  O  O285  1  0.75238833  0.36688924  0.50698906  1
  O  O286  1  0.75510018  0.86997015  0.00392316  1
  O  O287  1  0.74955652  0.86374561  0.50554927  1
  O  O288  1  0.13077615  0.49550076  0.24426432  1
  O  O289  1  0.13415209  0.49871595  0.74472238  1
  O  O290  1  0.12966230  0.99433912  0.24483283  1
  O  O291  1  0.12415277  0.99439750  0.74553134  1
  O  O292  1  0.62523688  0.49333604  0.24243374  1
  O  O293  1  0.63305389  0.49174642  0.74915895  1
  O  O294  1  0.63336165  0.99796924  0.24199255  1
  O  O295  1  0.63111044  0.98838591  0.75196203  1
  O  O296  1  0.36688056  0.00158971  0.25995558  1
  O  O297  1  0.37331075  0.00882439  0.76123389  1
  O  O298  1  0.36988320  0.50536668  0.25562316  1
  O  O299  1  0.36744050  0.50113820  0.75811741  1
  O  O300  1  0.86863441  0.00732601  0.24950918  1
  O  O301  1  0.87001932  0.00538552  0.75579667  1
  O  O302  1  0.87564860  0.50145547  0.26037011  1
  O  O303  1  0.86990982  0.50595914  0.75519199  1
  O  O304  1  0.11937390  0.37495486  0.36866163  1
  O  O305  1  0.11744168  0.36840564  0.87330738  1
  O  O306  1  0.12336616  0.86835674  0.36819949  1
  O  O307  1  0.11781144  0.86988303  0.87085301  1
  O  O308  1  0.62080639  0.36970293  0.36957740  1
  O  O309  1  0.62046075  0.36916021  0.86932184  1
  O  O310  1  0.61277266  0.87213802  0.37029582  1
  O  O311  1  0.61542657  0.87557007  0.86875563  1
  O  O312  1  0.38778503  0.12558280  0.12660469  1
  O  O313  1  0.37374060  0.13061654  0.63689280  1
  O  O314  1  0.37976204  0.62958567  0.13034214  1
  O  O315  1  0.38764166  0.62369054  0.62461484  1
  O  O316  1  0.88190238  0.12756571  0.13164460  1
  O  O317  1  0.88016279  0.13093453  0.63199437  1
  O  O318  1  0.88256069  0.63163459  0.12278400  1
  O  O319  1  0.88082196  0.62948288  0.63042510  1
  O  O320  1  0.24922585  0.25550413  0.11700566  1
  O  O321  1  0.25646777  0.25610700  0.62071795  1
  O  O322  1  0.25501647  0.75559185  0.12034089  1
  O  O323  1  0.24637232  0.76241890  0.62438886  1
  O  O324  1  0.75022086  0.25720421  0.11680044  1
  O  O325  1  0.75632014  0.25446828  0.62075443  1
  O  O326  1  0.75547476  0.75512090  0.11785996  1
  O  O327  1  0.75526937  0.75427390  0.61675066  1
  O  O328  1  0.25024203  0.24342151  0.38307080  1
  O  O329  1  0.24398883  0.25273021  0.88463194  1
  O  O330  1  0.24247228  0.74226193  0.37429590  1
  O  O331  1  0.24290173  0.74993598  0.88177715  1
  O  O332  1  0.74635811  0.24550442  0.37954949  1
  O  O333  1  0.74413529  0.24415460  0.87937978  1
  O  O334  1  0.75079681  0.74899621  0.38595865  1
  O  O335  1  0.74927822  0.74300277  0.88150136  1
  O  O336  1  -0.00008536  0.11784235  0.00679492  1
  O  O337  1  0.00545632  0.11915420  0.50668903  1
  O  O338  1  0.00576469  0.61928185  0.00439167  1
  O  O339  1  0.00626930  0.61883220  0.50652465  1
  O  O340  1  0.50606838  0.12514066  0.01006913  1
  O  O341  1  0.50318561  0.12079887  0.50159248  1
  O  O342  1  0.50445473  0.62014368  0.00534564  1
  O  O343  1  0.51018515  0.62507916  0.50605217  1
  O  O344  1  0.49458740  0.37428515  0.49326852  1
  O  O345  1  0.50008749  0.38175893  0.99298038  1
  O  O346  1  0.49785054  0.87497618  0.48635868  1
  O  O347  1  0.49328177  0.87655581  0.99202374  1
  O  O348  1  0.99972245  0.38169249  0.49419237  1
  O  O349  1  0.99494952  0.38078171  0.99477217  1
  O  O350  1  1.00062183  0.88740561  0.50193536  1
  O  O351  1  0.99331865  0.88025801  0.99437823  1
  O  O352  1  0.49363851  0.49225865  0.37596274  1
  O  O353  1  0.49324758  0.49579268  0.87889073  1
  O  O354  1  0.49047939  0.99056363  0.36999964  1
  O  O355  1  0.48951882  0.99043553  0.87736451  1
  O  O356  1  0.99420702  0.49517080  0.38013686  1
  O  O357  1  0.99475721  0.49546852  0.87974623  1
  O  O358  1  1.00089785  1.00063685  0.38830226  1
  O  O359  1  0.99353992  0.99453448  0.88011443  1
  O  O360  1  0.00473401  0.00417807  0.11979193  1
  O  O361  1  0.00440174  0.00678799  0.61922817  1
  O  O362  1  0.00602514  0.50463521  0.11859009  1
  O  O363  1  0.00504390  0.50510185  0.62111967  1
  O  O364  1  0.50527986  0.00967989  0.12574679  1
  O  O365  1  0.50095798  0.00193959  0.62156552  1
  O  O366  1  0.50459202  0.50568954  0.11941299  1
  O  O367  1  0.50464075  0.50988191  0.62124910  1
  O  O368  1  0.24511727  0.38054030  0.24628955  1
  O  O369  1  0.25016943  0.38632714  0.74390297  1
  O  O370  1  0.24401209  0.88024381  0.24435146  1
  O  O371  1  0.24124276  0.87799967  0.74254420  1
  O  O372  1  0.74355127  0.37661548  0.24229338  1
  O  O373  1  0.74555298  0.37920778  0.74529302  1
  O  O374  1  0.75000520  0.88085800  0.24149254  1
  O  O375  1  0.74241660  0.87936072  0.74642712  1
  O  O376  1  0.25003329  0.11835328  0.25661376  1
  O  O377  1  0.26233808  0.12482115  0.75498174  1
  O  O378  1  0.25540242  0.61881836  0.25488661  1
  O  O379  1  0.25098724  0.61211597  0.75077789  1
  O  O380  1  0.75582741  0.12059012  0.25398751  1
  O  O381  1  0.75549590  0.12009559  0.75642078  1
  O  O382  1  0.75398390  0.62085637  0.25244637  1
  O  O383  1  0.75447035  0.62044609  0.75367419  1
  O  O384  1  0.36884563  0.11476444  0.37317302  1
  O  O385  1  0.37495925  0.11654645  0.86975156  1
  O  O386  1  0.37024768  0.61950463  0.36963000  1
  O  O387  1  0.37399759  0.61251192  0.87322073  1
  O  O388  1  0.86829430  0.12246228  0.36738921  1
  O  O389  1  0.86934226  0.11959480  0.86998174  1
  O  O390  1  0.87531485  0.61281562  0.37310919  1
  O  O391  1  0.86953149  0.61964416  0.86902689  1
  O  O392  1  0.13052444  0.38209168  0.13128933  1
  O  O393  1  0.13307260  0.38229901  0.62664769  1
  O  O394  1  0.13088504  0.88039501  0.13050921  1
  O  O395  1  0.12980903  0.88093872  0.63188944  1
  O  O396  1  0.62934112  0.38065154  0.12927186  1
  O  O397  1  0.63218551  0.37402753  0.63205471  1
  O  O398  1  0.63134327  0.88171306  0.12428051  1
  O  O399  1  0.63060572  0.87440866  0.63562276  1
  O  O400  1  0.11908380  0.25749164  0.25261140  1
  O  O401  1  0.11878772  0.25199596  0.75705491  1
  O  O402  1  0.11996083  0.75484153  0.25437392  1
  O  O403  1  0.11778775  0.75511956  0.75637943  1
  O  O404  1  0.62038306  0.25697146  0.25550040  1
  O  O405  1  0.61982514  0.25488149  0.75671364  1
  O  O406  1  0.61557705  0.75172905  0.25040229  1
  O  O407  1  0.62391456  0.76347725  0.75336077  1
  O  O408  1  0.38444843  0.24668714  0.24727412  1
  O  O409  1  0.37911113  0.24378884  0.74764084  1
  O  O410  1  0.37901270  0.74350011  0.24359806  1
  O  O411  1  0.37791619  0.74552914  0.74445908  1
  O  O412  1  0.88274268  0.24384786  0.24783625  1
  O  O413  1  0.88044436  0.24395056  0.74575073  1
  O  O414  1  0.88232431  0.74924415  0.24154763  1
  O  O415  1  0.87983332  0.74418495  0.74452806  1
  O  O416  1  0.37670231  0.49180730  0.49239610  1
  O  O417  1  0.38034120  0.49914540  0.99064254  1
  O  O418  1  0.37394236  0.99606663  0.48569869  1
  O  O419  1  0.37573898  0.99429566  0.99214390  1
  O  O420  1  0.88249656  0.49862081  0.49135553  1
  O  O421  1  0.88097450  0.49542904  0.99330955  1
  O  O422  1  0.88734666  1.00038809  0.50157403  1
  O  O423  1  0.87925054  0.99423590  0.99410588  1
  O  O424  1  0.11768187  -0.00014045  0.00679138  1
  O  O425  1  0.11674776  0.00698601  0.50744397  1
  O  O426  1  0.12019635  0.50484591  0.00487964  1
  O  O427  1  0.12019887  0.50564442  0.50600751  1
  O  O428  1  0.62292186  0.00757543  0.00652243  1
  O  O429  1  0.62253294  0.00265204  0.50246172  1
  O  O430  1  0.61873853  0.50584506  0.00443237  1
  O  O431  1  0.62592612  0.51119847  0.50102867  1
  O  O432  1  0.36731308  0.37334403  0.12300563  1
  O  O433  1  0.37076897  0.36999414  0.62004771  1
  O  O434  1  0.36967496  0.87009606  0.12087817  1
  O  O435  1  0.36091717  0.87723804  0.62621565  1
  O  O436  1  0.86871940  0.37477706  0.11721418  1
  O  O437  1  0.86865289  0.36770512  0.62429436  1
  O  O438  1  0.86920871  0.86951799  0.11764268  1
  O  O439  1  0.86787086  0.86683932  0.62339946  1
  O  O440  1  0.13303650  0.12655674  0.38358272  1
  O  O441  1  0.12703390  0.13414366  0.87865002  1
  O  O442  1  0.13044941  0.62878464  0.37972636  1
  O  O443  1  0.12575446  0.63217307  0.88149737  1
  O  O444  1  0.63363216  0.13325753  0.37262910  1
  O  O445  1  0.62923761  0.12929557  0.87933261  1
  O  O446  1  0.62622659  0.62774279  0.38535258  1
  O  O447  1  0.63062809  0.62590877  0.88107262  1
