# generated using pymatgen
data_V3Zn3O8
_symmetry_space_group_name_H-M   'P 1'
_cell_length_a   17.08850591
_cell_length_b   17.08672677
_cell_length_c   17.09027550
_cell_angle_alpha   90.00041758
_cell_angle_beta   89.99960994
_cell_angle_gamma   90.00860990
_symmetry_Int_Tables_number   1
_chemical_formula_structural   V3Zn3O8
_chemical_formula_sum   'V96 Zn96 O256'
_cell_volume   4990.13191415
_cell_formula_units_Z   32
loop_
 _symmetry_equiv_pos_site_id
 _symmetry_equiv_pos_as_xyz
  1  'x, y, z'
loop_
 _atom_site_type_symbol
 _atom_site_label
 _atom_site_symmetry_multiplicity
 _atom_site_fract_x
 _atom_site_fract_y
 _atom_site_fract_z
 _atom_site_occupancy
  V  V0  1  0.37560922  0.37398567  0.49914236  1
  V  V1  1  0.62506288  0.87484766  0.25025362  1
  V  V2  1  0.37519866  0.50015805  0.87485453  1
  V  V3  1  0.87535241  -0.00007319  0.37571307  1
  V  V4  1  0.74959508  0.25079703  0.00102624  1
  V  V5  1  0.62565726  -0.00090340  0.12550682  1
  V  V6  1  0.62432627  0.87548631  0.75000317  1
  V  V7  1  0.25040978  0.50020453  0.24969205  1
  V  V8  1  0.87525937  0.87555730  0.00086235  1
  V  V9  1  0.37405578  0.87453392  0.00063549  1
  V  V10  1  0.87420687  0.12440526  0.74895731  1
  V  V11  1  0.12414471  0.87517129  0.25084007  1
  V  V12  1  0.50013903  0.37538832  0.87531155  1
  V  V13  1  0.25178528  0.87322628  0.62454829  1
  V  V14  1  0.87450881  0.00135111  0.87335461  1
  V  V15  1  0.25020535  0.62383603  0.87553109  1
  V  V16  1  0.87354015  0.25127435  0.12506995  1
  V  V17  1  -0.00019677  0.74995827  0.25051037  1
  V  V18  1  0.12492096  0.50050943  0.12464440  1
  V  V19  1  0.49971119  0.62572279  0.12550734  1
  V  V20  1  0.62468935  0.74917322  0.37613623  1
  V  V21  1  0.12606266  0.87465723  0.74973457  1
  V  V22  1  0.62509192  0.24981168  0.37505786  1
  V  V23  1  0.50010649  0.12544849  0.62473175  1
  V  V24  1  0.74976518  0.25063983  0.50027830  1
  V  V25  1  -0.00051941  0.49922380  0.49932983  1
  V  V26  1  0.24879592  0.24886573  -0.00128659  1
  V  V27  1  0.00008994  0.87476290  0.87438652  1
  V  V28  1  0.37527501  0.24980834  0.12417259  1
  V  V29  1  0.25037419  -0.00041999  0.74982385  1
  V  V30  1  0.62529666  0.24960498  0.87650503  1
  V  V31  1  0.24910072  0.00022518  0.24930855  1
  V  V32  1  0.75008231  0.50054782  0.24998688  1
  V  V33  1  0.87554390  0.62548238  0.24983340  1
  V  V34  1  0.12514406  0.74935471  0.87562758  1
  V  V35  1  0.37519175  0.37463418  -0.00013185  1
  V  V36  1  0.50016203  0.62386661  0.62501068  1
  V  V37  1  0.49888352  -0.00088091  0.49895584  1
  V  V38  1  0.87351573  0.12488081  0.25067787  1
  V  V39  1  0.74992220  0.37576023  0.12469491  1
  V  V40  1  0.50071050  0.25041263  0.25006538  1
  V  V41  1  0.37490748  0.62364070  0.75081031  1
  V  V42  1  0.37486615  0.62550068  0.25039695  1
  V  V43  1  0.24967206  0.37442108  0.62419923  1
  V  V44  1  0.62521490  0.12542785  0.50003213  1
  V  V45  1  0.12528293  0.49886353  0.62456924  1
  V  V46  1  0.50007839  0.74966929  0.25057110  1
  V  V47  1  0.74974722  0.74805467  0.50049164  1
  V  V48  1  0.87475030  0.62496439  0.75051483  1
  V  V49  1  0.37500821  0.12426802  0.24940039  1
  V  V50  1  0.50065772  0.50156313  0.00102726  1
  V  V51  1  0.00060062  0.25004864  0.75039682  1
  V  V52  1  0.50119712  0.50023050  0.50030262  1
  V  V53  1  0.12464969  0.37355102  0.75147453  1
  V  V54  1  0.24876678  0.12547250  0.87428788  1
  V  V55  1  0.87530553  0.75040152  0.62477967  1
  V  V56  1  0.00039132  0.74926463  0.74979051  1
  V  V57  1  0.12587927  0.37570984  0.24900392  1
  V  V58  1  0.37399256  0.74979335  0.62486207  1
  V  V59  1  0.62564870  0.37577360  0.75018585  1
  V  V60  1  0.62510486  0.50112418  0.12564717  1
  V  V61  1  0.62503348  0.12485914  -0.00021121  1
  V  V62  1  0.12348321  0.00101432  0.12387589  1
  V  V63  1  -0.00075381  0.12569776  0.12467482  1
  V  V64  1  0.00020108  0.62507026  0.12455244  1
  V  V65  1  0.12451873  0.12359170  0.49968865  1
  V  V66  1  0.50039753  0.25023490  0.75031167  1
  V  V67  1  0.74905372  0.75068496  0.00000173  1
  V  V68  1  0.62477797  0.00012543  0.62513313  1
  V  V69  1  0.74998638  0.37567108  0.62602253  1
  V  V70  1  0.50038513  0.74972543  0.75083215  1
  V  V71  1  -0.00086846  0.25071535  0.25001586  1
  V  V72  1  0.12539637  0.75001813  0.37508800  1
  V  V73  1  -0.00033666  0.37546466  0.37531111  1
  V  V74  1  0.37509148  -0.00045408  0.87537100  1
  V  V75  1  0.49940478  -0.00077512  -0.00029360  1
  V  V76  1  0.24984906  0.12513109  0.37375685  1
  V  V77  1  0.37575653  -0.00096653  0.37514287  1
  V  V78  1  0.25011910  0.24968178  0.49847168  1
  V  V79  1  0.87425429  0.25026352  0.62466562  1
  V  V80  1  0.12489526  0.24965857  0.37388440  1
  V  V81  1  0.12559107  0.00009766  0.62310414  1
  V  V82  1  0.49986861  0.37437565  0.37457917  1
  V  V83  1  0.49999588  0.12427859  0.12490031  1
  V  V84  1  0.74972809  -0.00074143  0.24962566  1
  V  V85  1  0.75035031  0.50058698  0.75045355  1
  V  V86  1  0.12352571  0.62419424  0.00038800  1
  V  V87  1  0.87696690  0.87553463  0.50028205  1
  V  V88  1  0.74975535  0.62569297  0.87511627  1
  V  V89  1  0.25000723  0.62501026  0.37480308  1
  V  V90  1  0.00101856  0.62432970  0.62513406  1
  V  V91  1  0.37492041  0.12470276  0.74938722  1
  V  V92  1  0.37557169  0.24962804  0.62443170  1
  V  V93  1  0.25013765  0.75067864  0.00163022  1
  V  V94  1  0.12645004  0.62545941  0.49971305  1
  V  V95  1  0.87507855  0.50002370  0.37457735  1
  Zn  Zn96  1  0.00116116  0.00078006  0.50033991  1
  Zn  Zn97  1  0.12317507  0.24919845  0.87641036  1
  Zn  Zn98  1  0.00009649  0.12316566  0.62187646  1
  Zn  Zn99  1  0.87708145  0.49726807  0.87855190  1
  Zn  Zn100  1  0.74854376  0.00008731  0.74863573  1
  Zn  Zn101  1  0.37340431  0.75182476  0.12670597  1
  Zn  Zn102  1  0.62295391  0.75212896  0.87534739  1
  Zn  Zn103  1  0.62676515  0.50206017  0.62526192  1
  Zn  Zn104  1  0.37489104  0.49985849  0.37401383  1
  Zn  Zn105  1  0.75062112  0.87363978  0.12586650  1
  Zn  Zn106  1  0.87811258  0.37592630  -0.00212589  1
  Zn  Zn107  1  0.75014405  0.62319365  0.37476242  1
  Zn  Zn108  1  0.62473265  0.37541514  0.25023732  1
  Zn  Zn109  1  0.00010655  0.00318697  -0.00085691  1
  Zn  Zn110  1  0.37529524  0.87268390  0.49859854  1
  Zn  Zn111  1  0.87490935  0.75042868  0.12669821  1
  Zn  Zn112  1  -0.00135060  0.49663799  -0.00170427  1
  Zn  Zn113  1  0.25157045  0.75007945  0.49989578  1
  Zn  Zn114  1  0.74932303  0.12627752  0.37565150  1
  Zn  Zn115  1  0.00157601  0.87476219  0.37525635  1
  Zn  Zn116  1  -0.00211939  0.37761837  0.87719909  1
  Zn  Zn117  1  0.75075504  0.87710766  0.62667212  1
  Zn  Zn118  1  0.74907665  0.12546475  0.87522681  1
  Zn  Zn119  1  0.12194081  0.12500482  -0.00332940  1
  Zn  Zn120  1  0.49764890  0.87450752  0.37637446  1
  Zn  Zn121  1  0.62557271  0.62430483  0.50140665  1
  Zn  Zn122  1  0.25002417  0.49847053  0.75018226  1
  Zn  Zn123  1  0.62402690  0.62776531  -0.00030627  1
  Zn  Zn124  1  0.24981340  0.87415962  0.12561745  1
  Zn  Zn125  1  0.87433342  0.37496647  0.50027481  1
  Zn  Zn126  1  0.25015614  0.37573174  0.12452970  1
  Zn  Zn127  1  0.50030574  0.87340766  0.87610705  1
  Zn  Zn128  1  0.18726207  0.18728545  0.18565218  1
  Zn  Zn129  1  0.18773639  0.18670811  0.68551481  1
  Zn  Zn130  1  0.18754284  0.68782720  0.18714473  1
  Zn  Zn131  1  0.18902647  0.68649181  0.68841987  1
  Zn  Zn132  1  0.68756499  0.18679873  0.18823846  1
  Zn  Zn133  1  0.68823396  0.18801907  0.68765639  1
  Zn  Zn134  1  0.68838531  0.68650704  0.18676505  1
  Zn  Zn135  1  0.68614398  0.68825149  0.68635477  1
  Zn  Zn136  1  0.31319659  0.31363879  0.31161809  1
  Zn  Zn137  1  0.31213367  0.31254942  0.81286174  1
  Zn  Zn138  1  0.31134368  0.81320665  0.31255372  1
  Zn  Zn139  1  0.31323889  0.81134594  0.81355031  1
  Zn  Zn140  1  0.81129059  0.31480920  0.31256298  1
  Zn  Zn141  1  0.81231091  0.31342685  0.81493735  1
  Zn  Zn142  1  0.81184550  0.81273472  0.31364000  1
  Zn  Zn143  1  0.81050762  0.81291988  0.81244903  1
  Zn  Zn144  1  0.18735856  0.43835913  0.43592420  1
  Zn  Zn145  1  0.18669349  0.43743815  0.93748203  1
  Zn  Zn146  1  0.19022107  0.93595530  0.43810777  1
  Zn  Zn147  1  0.18825142  0.93768165  0.93848668  1
  Zn  Zn148  1  0.68720210  0.43549970  0.43708580  1
  Zn  Zn149  1  0.68835878  0.43877168  0.93926094  1
  Zn  Zn150  1  0.68827962  0.93614051  0.43768011  1
  Zn  Zn151  1  0.68825541  0.93841886  0.93529210  1
  Zn  Zn152  1  0.31098667  0.06248768  0.06207983  1
  Zn  Zn153  1  0.31198239  0.06107959  0.56121079  1
  Zn  Zn154  1  0.31260113  0.56385945  0.06400523  1
  Zn  Zn155  1  0.31314844  0.56163657  0.56247571  1
  Zn  Zn156  1  0.81104937  0.06340654  0.06301641  1
  Zn  Zn157  1  0.80971909  0.06310277  0.56361988  1
  Zn  Zn158  1  0.81513135  0.56159052  0.06268531  1
  Zn  Zn159  1  0.81384514  0.56184082  0.56320213  1
  Zn  Zn160  1  0.43673788  0.43761601  0.18724245  1
  Zn  Zn161  1  0.43761506  0.43771533  0.68687087  1
  Zn  Zn162  1  0.43841764  0.93507517  0.18770716  1
  Zn  Zn163  1  0.43850779  0.93638889  0.68641597  1
  Zn  Zn164  1  0.93725012  0.43844736  0.18544072  1
  Zn  Zn165  1  0.93590994  0.43793135  0.68904125  1
  Zn  Zn166  1  0.93862398  0.93682604  0.18799054  1
  Zn  Zn167  1  0.94051917  0.93786251  0.68583284  1
  Zn  Zn168  1  0.06032841  0.06270225  0.31197383  1
  Zn  Zn169  1  0.06240732  0.06300579  0.81095357  1
  Zn  Zn170  1  0.06287291  0.56307748  0.31179330  1
  Zn  Zn171  1  0.06188308  0.56043447  0.81379860  1
  Zn  Zn172  1  0.56241969  0.06280509  0.31376958  1
  Zn  Zn173  1  0.56115633  0.06169971  0.81379438  1
  Zn  Zn174  1  0.56305034  0.56290878  0.31291269  1
  Zn  Zn175  1  0.56426396  0.56309375  0.81286915  1
  Zn  Zn176  1  0.43832298  0.18623925  0.43648652  1
  Zn  Zn177  1  0.43707154  0.18616734  0.93699287  1
  Zn  Zn178  1  0.43597839  0.68669311  0.43802980  1
  Zn  Zn179  1  0.43713577  0.68865760  0.93781854  1
  Zn  Zn180  1  0.93746202  0.18681409  0.43817778  1
  Zn  Zn181  1  0.93698856  0.18972045  0.93828038  1
  Zn  Zn182  1  0.93906339  0.68623115  0.43568801  1
  Zn  Zn183  1  0.93702522  0.68677956  0.93795966  1
  Zn  Zn184  1  0.06251466  0.31397717  0.06325404  1
  Zn  Zn185  1  0.06146962  0.31146676  0.56274227  1
  Zn  Zn186  1  0.06153596  0.81241156  0.06350529  1
  Zn  Zn187  1  0.06375525  0.81195006  0.56201386  1
  Zn  Zn188  1  0.56350815  0.31409978  0.06346438  1
  Zn  Zn189  1  0.56429556  0.31383136  0.56279637  1
  Zn  Zn190  1  0.56213093  0.81297047  0.06426117  1
  Zn  Zn191  1  0.56009909  0.81363665  0.56371789  1
  O  O192  1  0.11818943  0.11535623  0.12588510  1
  O  O193  1  0.12644131  0.11781747  0.61746805  1
  O  O194  1  0.11982998  0.62007204  0.11976818  1
  O  O195  1  0.12007875  0.61911891  0.62088046  1
  O  O196  1  0.61864587  0.11898350  0.11981143  1
  O  O197  1  0.61863744  0.12120250  0.62050134  1
  O  O198  1  0.61777775  0.61883024  0.12324685  1
  O  O199  1  0.61602286  0.62286386  0.62208823  1
  O  O200  1  0.38165734  0.37518277  0.38219543  1
  O  O201  1  0.38138247  0.37991306  0.87956410  1
  O  O202  1  0.37633259  0.88402355  0.37652905  1
  O  O203  1  0.37557722  0.88195455  0.88302723  1
  O  O204  1  0.88285000  0.38177183  0.37616810  1
  O  O205  1  0.87803597  0.37780352  0.87761078  1
  O  O206  1  0.87560465  0.88309886  0.38383479  1
  O  O207  1  0.87985049  0.88251585  0.87999686  1
  O  O208  1  0.25498405  0.00695171  0.36838717  1
  O  O209  1  0.25499327  0.00524567  0.86887418  1
  O  O210  1  0.25108684  0.50666293  0.36798521  1
  O  O211  1  0.25731703  0.50567235  0.87378707  1
  O  O212  1  0.76060696  0.00063268  0.37004463  1
  O  O213  1  0.76348727  0.00273512  0.87136940  1
  O  O214  1  0.75608813  0.50064600  0.36946938  1
  O  O215  1  0.74995496  0.51144270  0.86972074  1
  O  O216  1  0.24329757  0.49914922  0.13170627  1
  O  O217  1  0.24361613  0.49193808  0.62605673  1
  O  O218  1  0.23889215  1.00178218  0.13111181  1
  O  O219  1  0.24591761  0.99424571  0.63151845  1
  O  O220  1  0.74428845  0.49584176  0.13046828  1
  O  O221  1  0.74886354  0.49446481  0.63167259  1
  O  O222  1  0.74315189  0.99810209  0.13144589  1
  O  O223  1  0.74045845  0.99745245  0.62794328  1
  O  O224  1  0.00602690  0.36954964  0.25547025  1
  O  O225  1  0.00943111  0.36580004  0.74698480  1
  O  O226  1  0.00606688  0.86812838  0.25214301  1
  O  O227  1  0.00605180  0.86851029  0.75490603  1
  O  O228  1  0.50013456  0.36779631  0.25618674  1
  O  O229  1  0.50451864  0.36924743  0.75550792  1
  O  O230  1  0.50760652  0.86797882  0.25280920  1
  O  O231  1  0.50851050  0.86919468  0.75091427  1
  O  O232  1  0.49423301  0.13002001  0.24396522  1
  O  O233  1  0.49428156  0.13094899  0.74451504  1
  O  O234  1  0.49465252  0.63000043  0.24568883  1
  O  O235  1  0.49446302  0.62903145  0.74523974  1
  O  O236  1  0.99297565  0.13155376  0.24512740  1
  O  O237  1  0.99108609  0.13243384  0.74714815  1
  O  O238  1  0.99558796  0.63068974  0.24441379  1
  O  O239  1  0.99574282  0.63086002  0.74422930  1
  O  O240  1  0.36837667  0.25405074  0.00399375  1
  O  O241  1  0.36987774  0.25377802  0.50488345  1
  O  O242  1  0.36844906  0.75806892  0.00097264  1
  O  O243  1  0.37302789  0.75086484  0.50960331  1
  O  O244  1  0.86672583  0.24943071  0.00854785  1
  O  O245  1  0.86868875  0.25065942  0.50678471  1
  O  O246  1  0.86684320  0.76080144  -0.00154131  1
  O  O247  1  0.86896063  0.75649749  0.50295516  1
  O  O248  1  0.13115324  0.24518396  0.49355778  1
  O  O249  1  0.13801167  0.24825571  0.99933827  1
  O  O250  1  0.12603176  0.74232472  0.49380674  1
  O  O251  1  0.12974754  0.74561481  0.99389901  1
  O  O252  1  0.62932731  0.24452711  0.49535038  1
  O  O253  1  0.62843066  0.24400309  0.99583745  1
  O  O254  1  0.63333097  0.75188925  0.49355284  1
  O  O255  1  0.63655111  0.75122346  0.99734507  1
  O  O256  1  0.49481490  0.24386434  0.12933421  1
  O  O257  1  0.49477865  0.24521524  0.63035443  1
  O  O258  1  0.49972667  0.74319911  0.13298176  1
  O  O259  1  0.49378163  0.74352952  0.63104107  1
  O  O260  1  0.99437842  0.24507790  0.13233362  1
  O  O261  1  0.99416418  0.24799729  0.63496890  1
  O  O262  1  0.99893242  0.74343793  0.13258374  1
  O  O263  1  0.99553325  0.74407739  0.63049692  1
  O  O264  1  0.00534972  0.25494149  0.36923319  1
  O  O265  1  0.00190082  0.24988392  0.86014907  1
  O  O266  1  0.00782524  0.75058731  0.36814605  1
  O  O267  1  0.00550568  0.75484215  0.86886819  1
  O  O268  1  0.50481425  0.25424461  0.36975554  1
  O  O269  1  0.50454544  0.25543130  0.87007323  1
  O  O270  1  0.50976186  0.75033504  0.37068156  1
  O  O271  1  0.50257832  0.75184893  0.86659833  1
  O  O272  1  0.24535427  0.13094375  0.49304195  1
  O  O273  1  0.25076466  0.13444120  0.99345877  1
  O  O274  1  0.24334917  0.62469754  0.49375976  1
  O  O275  1  0.24434153  0.63068172  0.99445114  1
  O  O276  1  0.74244149  0.13270922  0.49923599  1
  O  O277  1  0.74227404  0.13192270  0.99920840  1
  O  O278  1  0.74975753  0.63727960  0.49845278  1
  O  O279  1  0.75124497  0.63509415  0.99187584  1
  O  O280  1  0.25656232  0.36444985  -0.00052673  1
  O  O281  1  0.25472395  0.36880083  0.50374733  1
  O  O282  1  0.25704687  0.86941618  0.00108661  1
  O  O283  1  0.25346848  0.87169283  0.50960287  1
  O  O284  1  0.74892226  0.36731505  0.00816048  1
  O  O285  1  0.75108112  0.36840428  0.50793392  1
  O  O286  1  0.75949364  0.86770208  -0.00266886  1
  O  O287  1  0.76024432  0.86508216  0.50131468  1
  O  O288  1  0.13082376  0.49516737  0.24482727  1
  O  O289  1  0.12563652  0.48920583  0.74261030  1
  O  O290  1  0.12867419  0.99634034  0.24314400  1
  O  O291  1  0.13126062  0.99378921  0.74473660  1
  O  O292  1  0.63157126  0.49955615  0.24410088  1
  O  O293  1  0.63166614  0.49291387  0.74920088  1
  O  O294  1  0.62962859  0.99530653  0.24595638  1
  O  O295  1  0.62360615  0.99279343  0.74421148  1
  O  O296  1  0.36968900  0.00593620  0.25381863  1
  O  O297  1  0.37002181  0.00542747  0.75446849  1
  O  O298  1  0.36867666  0.50657170  0.25144065  1
  O  O299  1  0.37422186  0.50514107  0.75689317  1
  O  O300  1  0.87034298  0.00360519  0.25751540  1
  O  O301  1  0.87640565  0.00744960  0.75654909  1
  O  O302  1  0.87017846  0.50564839  0.25530824  1
  O  O303  1  0.86752389  0.50882989  0.75071400  1
  O  O304  1  0.11964010  0.36878813  0.36917157  1
  O  O305  1  0.12596659  0.37162999  0.86044807  1
  O  O306  1  0.12384116  0.86924709  0.36895002  1
  O  O307  1  0.12013047  0.86993499  0.86953248  1
  O  O308  1  0.61706918  0.36711422  0.37323759  1
  O  O309  1  0.61890915  0.36971495  0.87032301  1
  O  O310  1  0.62462457  0.86394560  0.36982712  1
  O  O311  1  0.62234318  0.87567233  0.86263453  1
  O  O312  1  0.38086650  0.12927922  0.13000119  1
  O  O313  1  0.37989125  0.13044159  0.63018722  1
  O  O314  1  0.38208321  0.62746502  0.13242680  1
  O  O315  1  0.37995224  0.62903287  0.63186412  1
  O  O316  1  0.87946620  0.13025735  0.13168357  1
  O  O317  1  0.87612995  0.12987159  0.63433736  1
  O  O318  1  0.88250123  0.62737505  0.13257365  1
  O  O319  1  0.88168996  0.63124045  0.63032225  1
  O  O320  1  0.25689270  0.24952822  0.11508067  1
  O  O321  1  0.25625263  0.25443290  0.61791472  1
  O  O322  1  0.25084743  0.75278042  0.11676521  1
  O  O323  1  0.25636294  0.75537176  0.62583902  1
  O  O324  1  0.75379566  0.25516844  0.12112533  1
  O  O325  1  0.75479651  0.25574892  0.62062619  1
  O  O326  1  0.75325607  0.75189849  0.11279930  1
  O  O327  1  0.75657202  0.75148274  0.61550917  1
  O  O328  1  0.24463767  0.24466976  0.37899558  1
  O  O329  1  0.25110926  0.24408920  0.88370482  1
  O  O330  1  0.24279432  0.74255440  0.37586788  1
  O  O331  1  0.24402851  0.74399939  0.88062429  1
  O  O332  1  0.74363054  0.24978250  0.38165523  1
  O  O333  1  0.74177816  0.24834424  0.88215979  1
  O  O334  1  0.74223669  0.74894645  0.38424373  1
  O  O335  1  0.74908032  0.74273716  0.88291781  1
  O  O336  1  0.00197602  0.12412013  0.00855542  1
  O  O337  1  0.00903022  0.12291332  0.50163236  1
  O  O338  1  0.00767487  0.62732221  0.00713264  1
  O  O339  1  0.00616500  0.61941381  0.50612335  1
  O  O340  1  0.50450972  0.11930148  0.00592888  1
  O  O341  1  0.50555050  0.12047908  0.50630853  1
  O  O342  1  0.50058105  0.61931262  0.00621358  1
  O  O343  1  0.49917042  0.61453047  0.50545214  1
  O  O344  1  0.49495398  0.38122274  0.49590518  1
  O  O345  1  0.49457453  0.38041169  0.99432685  1
  O  O346  1  0.49697600  0.88409214  0.49793377  1
  O  O347  1  0.49217932  0.88120075  0.99879541  1
  O  O348  1  0.99956697  0.38113011  0.49329542  1
  O  O349  1  0.99879262  0.37561987  0.99593638  1
  O  O350  1  0.98729023  0.87527783  0.49794891  1
  O  O351  1  0.98987263  0.87528950  0.99278785  1
  O  O352  1  0.49902911  0.49423871  0.38437915  1
  O  O353  1  0.49518167  0.49491242  0.88078350  1
  O  O354  1  0.49351581  1.00012063  0.38110923  1
  O  O355  1  0.49189548  0.99980750  0.88264945  1
  O  O356  1  0.99596689  0.49474264  0.37977556  1
  O  O357  1  0.99647251  0.49761635  0.87813029  1
  O  O358  1  0.98660842  0.99785738  0.37631840  1
  O  O359  1  0.99021530  0.99440851  0.87502819  1
  O  O360  1  0.00833101  0.00668488  0.12533983  1
  O  O361  1  0.01015945  0.00200281  0.62193011  1
  O  O362  1  0.00851881  0.50813279  0.12567469  1
  O  O363  1  0.00508338  0.50515513  0.61977140  1
  O  O364  1  0.50552982  0.00558532  0.11985972  1
  O  O365  1  0.50449110  0.00737670  0.61958197  1
  O  O366  1  0.50481923  0.50550208  0.12009276  1
  O  O367  1  0.50054777  0.50381592  0.61554900  1
  O  O368  1  0.24365845  0.38094864  0.24890366  1
  O  O369  1  0.24100049  0.37324204  0.74268090  1
  O  O370  1  0.24230824  0.88307720  0.24768313  1
  O  O371  1  0.24465625  0.88024408  0.74590571  1
  O  O372  1  0.74759434  0.38257718  0.24284638  1
  O  O373  1  0.74425080  0.38023300  0.74560437  1
  O  O374  1  0.74374514  0.88088283  0.24831318  1
  O  O375  1  0.73853764  0.87660941  0.74742464  1
  O  O376  1  0.25554286  0.12075513  0.25485955  1
  O  O377  1  0.25620698  0.11970223  0.75376563  1
  O  O378  1  0.25476031  0.61988933  0.25536402  1
  O  O379  1  0.25632200  0.62216389  0.75770974  1
  O  O380  1  0.75646667  0.11778540  0.25234746  1
  O  O381  1  0.76308095  0.12472716  0.75267587  1
  O  O382  1  0.75766238  0.61864125  0.25117989  1
  O  O383  1  0.75457496  0.62256502  0.75668596  1
  O  O384  1  0.36919717  0.12033303  0.36842741  1
  O  O385  1  0.36956432  0.11943666  0.86829780  1
  O  O386  1  0.36813991  0.62299982  0.36821261  1
  O  O387  1  0.36965082  0.61917885  0.87034999  1
  O  O388  1  0.87315223  0.11573505  0.36991178  1
  O  O389  1  0.87617161  0.11705798  0.86639388  1
  O  O390  1  0.87465443  0.61756912  0.36790173  1
  O  O391  1  0.86367083  0.62744128  0.86829124  1
  O  O392  1  0.12777222  0.38144892  0.13295248  1
  O  O393  1  0.13010609  0.37845495  0.63162593  1
  O  O394  1  0.12408608  0.88652563  0.13072453  1
  O  O395  1  0.13098607  0.87893862  0.63110961  1
  O  O396  1  0.63070366  0.38283265  0.12755240  1
  O  O397  1  0.63164649  0.37597467  0.63334057  1
  O  O398  1  0.62689092  0.88238038  0.13190503  1
  O  O399  1  0.62454331  0.88154341  0.63452054  1
  O  O400  1  0.11962890  0.25454056  0.25471349  1
  O  O401  1  0.11734232  0.25707026  0.74701501  1
  O  O402  1  0.11999719  0.75541968  0.25546769  1
  O  O403  1  0.12003452  0.75481693  0.75589499  1
  O  O404  1  0.61746225  0.24986493  0.25614420  1
  O  O405  1  0.61917182  0.25493232  0.75611015  1
  O  O406  1  0.62189050  0.75412580  0.25842622  1
  O  O407  1  0.61903358  0.76029327  0.74911620  1
  O  O408  1  0.38002633  0.24370490  0.24435638  1
  O  O409  1  0.38061048  0.24477581  0.74441667  1
  O  O410  1  0.38193697  0.74421453  0.24980463  1
  O  O411  1  0.38045992  0.74310870  0.74551553  1
  O  O412  1  0.87956276  0.24453067  0.24577260  1
  O  O413  1  0.88166004  0.24230388  0.74550476  1
  O  O414  1  0.88085459  0.74466221  0.25006220  1
  O  O415  1  0.88064052  0.74598354  0.74455935  1
  O  O416  1  0.38517530  0.49271780  0.49904205  1
  O  O417  1  0.38041177  0.49464757  0.99489120  1
  O  O418  1  0.38139109  1.00095403  0.49282103  1
  O  O419  1  0.37886234  0.99451051  0.99526552  1
  O  O420  1  0.88233818  0.49907125  0.49353213  1
  O  O421  1  0.87875248  0.49601952  0.99812326  1
  O  O422  1  0.87323506  0.99198575  0.49321899  1
  O  O423  1  0.87512610  0.99240256  0.99104340  1
  O  O424  1  0.12282736  0.00154841  0.01098429  1
  O  O425  1  0.12552197  0.00588327  0.50459486  1
  O  O426  1  0.12563290  0.50739965  0.00699590  1
  O  O427  1  0.11905164  0.50492833  0.50509387  1
  O  O428  1  0.62015489  0.00452397  0.00468768  1
  O  O429  1  0.62006990  0.00518123  0.50454567  1
  O  O430  1  0.61777308  0.50304135  0.00675995  1
  O  O431  1  0.61284347  0.50085826  0.50129919  1
  O  O432  1  0.37367601  0.36769845  0.11755747  1
  O  O433  1  0.36998655  0.36820131  0.61949175  1
  O  O434  1  0.37173583  0.87440244  0.11495798  1
  O  O435  1  0.36853057  0.86769351  0.62617696  1
  O  O436  1  0.86744767  0.36701230  0.12609064  1
  O  O437  1  0.86781468  0.36803852  0.62484076  1
  O  O438  1  0.87388628  0.87514004  0.11193311  1
  O  O439  1  0.87453514  0.86946863  0.61635081  1
  O  O440  1  0.13048698  0.13049403  0.37807647  1
  O  O441  1  0.13288811  0.12738539  0.87562175  1
  O  O442  1  0.13027405  0.62989044  0.38015288  1
  O  O443  1  0.13070393  0.63090518  0.87964847  1
  O  O444  1  0.62605639  0.13170935  0.38252727  1
  O  O445  1  0.62514530  0.13122929  0.88161873  1
  O  O446  1  0.62758768  0.63800686  0.37804526  1
  O  O447  1  0.63791667  0.62900192  0.87602255  1
