# generated using pymatgen
data_V3Zn3O8
_symmetry_space_group_name_H-M   'P 1'
_cell_length_a   17.08664044
_cell_length_b   17.08721872
_cell_length_c   17.08726105
_cell_angle_alpha   89.99331861
_cell_angle_beta   90.00319302
_cell_angle_gamma   89.99081695
_symmetry_Int_Tables_number   1
_chemical_formula_structural   V3Zn3O8
_chemical_formula_sum   'V96 Zn96 O256'
_cell_volume   4988.85066843
_cell_formula_units_Z   32
loop_
 _symmetry_equiv_pos_site_id
 _symmetry_equiv_pos_as_xyz
  1  'x, y, z'
loop_
 _atom_site_type_symbol
 _atom_site_label
 _atom_site_symmetry_multiplicity
 _atom_site_fract_x
 _atom_site_fract_y
 _atom_site_fract_z
 _atom_site_occupancy
  V  V0  1  0.37438918  0.25156205  0.62537838  1
  V  V1  1  0.24995349  0.12514482  0.37544586  1
  V  V2  1  0.87509219  0.24915541  0.12692000  1
  V  V3  1  0.37461199  0.37666738  0.49868741  1
  V  V4  1  0.50197301  0.00050078  0.50020506  1
  V  V5  1  0.12534146  0.49983442  0.12639095  1
  V  V6  1  0.62534433  0.24991049  0.37585901  1
  V  V7  1  -0.00002704  0.62533051  0.12517416  1
  V  V8  1  0.87531693  0.25011132  0.62562884  1
  V  V9  1  0.25091899  0.87380894  0.62451645  1
  V  V10  1  0.74997758  0.87654786  0.62549717  1
  V  V11  1  0.50029285  0.12590981  0.62547636  1
  V  V12  1  0.12416233  0.37460515  0.74947341  1
  V  V13  1  0.24910505  0.62437650  0.87414689  1
  V  V14  1  0.62470141  -0.00043003  0.12563556  1
  V  V15  1  0.12472765  0.12505618  0.00029297  1
  V  V16  1  0.12432670  0.62507624  0.00019143  1
  V  V17  1  0.62505967  0.75088424  0.87562623  1
  V  V18  1  0.12420126  0.75061406  0.87425342  1
  V  V19  1  0.87519980  0.12415633  0.25047333  1
  V  V20  1  0.12545958  0.87478935  0.24929932  1
  V  V21  1  0.00074900  0.75090013  0.24911580  1
  V  V22  1  0.87529137  0.87446158  0.50024420  1
  V  V23  1  0.37481659  0.87470377  -0.00042786  1
  V  V24  1  0.62503836  0.50013635  0.62582445  1
  V  V25  1  0.74957593  0.49946599  0.25035060  1
  V  V26  1  0.12434577  0.25087905  0.87506903  1
  V  V27  1  0.74989281  0.62503394  0.87475710  1
  V  V28  1  0.25144494  0.62495783  0.37363384  1
  V  V29  1  -0.00161729  0.49930761  0.00083126  1
  V  V30  1  0.24787413  0.49982609  0.74999099  1
  V  V31  1  0.12443330  0.87419063  0.75032742  1
  V  V32  1  0.25188343  0.75048606  0.50017409  1
  V  V33  1  0.12431382  0.62387291  0.50062069  1
  V  V34  1  -0.00000084  0.25078782  0.75007444  1
  V  V35  1  0.37429812  0.37499831  0.00030976  1
  V  V36  1  0.74934641  0.87557644  0.12580149  1
  V  V37  1  0.49971392  0.50018118  -0.00009316  1
  V  V38  1  0.74951919  0.49983532  0.75081435  1
  V  V39  1  0.74917781  0.24955030  0.50016050  1
  V  V40  1  0.25087995  0.87503871  0.12384490  1
  V  V41  1  0.00019081  -0.00188442  0.50024376  1
  V  V42  1  0.25093979  -0.00091838  0.25039348  1
  V  V43  1  0.37548958  0.62473929  0.24799819  1
  V  V44  1  0.87553734  0.87584457  -0.00101453  1
  V  V45  1  0.37557563  0.87478101  0.50113574  1
  V  V46  1  0.87580549  0.74936445  0.62510954  1
  V  V47  1  0.37564258  0.24944526  0.12527171  1
  V  V48  1  0.25029637  0.75073398  -0.00052623  1
  V  V49  1  0.24913372  0.25054740  -0.00013513  1
  V  V50  1  0.49982628  0.12439697  0.12479846  1
  V  V51  1  -0.00017519  0.24939972  0.25092814  1
  V  V52  1  0.74967116  0.37397208  0.12553745  1
  V  V53  1  0.62421597  0.49974193  0.12413786  1
  V  V54  1  0.25108376  -0.00019091  0.75050536  1
  V  V55  1  0.00087845  0.87430283  0.37370687  1
  V  V56  1  0.24877594  0.37544662  0.62470343  1
  V  V57  1  0.75043579  0.74920371  0.49912026  1
  V  V58  1  0.49903477  0.62553312  0.62511080  1
  V  V59  1  0.87572637  0.49903221  0.37587104  1
  V  V60  1  0.87405419  -0.00019646  0.37428325  1
  V  V61  1  0.12511984  -0.00199502  0.62496454  1
  V  V62  1  0.74969185  0.62497576  0.37569357  1
  V  V63  1  0.50067842  0.00014569  0.00055777  1
  V  V64  1  0.49920846  0.25152110  0.75022448  1
  V  V65  1  0.49921754  0.37523481  0.37538759  1
  V  V66  1  0.12479461  0.12428917  0.50041439  1
  V  V67  1  0.37483550  0.00043688  0.87337358  1
  V  V68  1  0.75009646  -0.00077971  0.25005648  1
  V  V69  1  0.87492404  0.62465798  0.25008222  1
  V  V70  1  0.74952863  0.75026186  0.00030932  1
  V  V71  1  0.24924650  0.37512540  0.12634701  1
  V  V72  1  0.74900086  0.12627647  0.87533204  1
  V  V73  1  0.37555054  -0.00071762  0.37581591  1
  V  V74  1  0.50156523  0.75109164  0.25082773  1
  V  V75  1  0.87588814  0.12626039  0.75043198  1
  V  V76  1  0.37305375  0.50034865  0.87469285  1
  V  V77  1  0.74995277  0.24976579  0.00036520  1
  V  V78  1  0.62460812  0.37467948  0.25024105  1
  V  V79  1  0.87541419  0.37618218  0.00069098  1
  V  V80  1  0.62422863  0.37612497  0.75076834  1
  V  V81  1  0.62608492  0.62479378  0.49982184  1
  V  V82  1  0.00067602  0.37482474  0.37542253  1
  V  V83  1  -0.00020403  0.87530576  0.87467566  1
  V  V84  1  0.62417981  0.62451590  0.00003136  1
  V  V85  1  0.12542080  0.00100745  0.12400755  1
  V  V86  1  0.87640365  0.62489433  0.74917635  1
  V  V87  1  0.87599059  0.37460275  0.49988787  1
  V  V88  1  0.87537084  0.00036556  0.87487302  1
  V  V89  1  0.49915757  0.37460972  0.87446718  1
  V  V90  1  0.12517356  0.37465828  0.25110893  1
  V  V91  1  0.62683090  0.87653949  0.74897161  1
  V  V92  1  0.87443023  0.75032468  0.12430359  1
  V  V93  1  0.50098712  0.87550947  0.87490987  1
  V  V94  1  0.49979673  0.24926135  0.24930358  1
  V  V95  1  0.50033898  0.74971596  0.74989190  1
  Zn  Zn96  1  0.25136663  0.49937283  0.24989866  1
  Zn  Zn97  1  -0.00013150  0.12379431  0.12602025  1
  Zn  Zn98  1  0.50097585  0.50125804  0.49778549  1
  Zn  Zn99  1  0.62436717  0.12606259  -0.00063124  1
  Zn  Zn100  1  0.24799702  0.25120486  0.50013142  1
  Zn  Zn101  1  0.62549333  0.75138522  0.37470930  1
  Zn  Zn102  1  0.25131293  0.12576285  0.87217172  1
  Zn  Zn103  1  0.00072352  0.62376316  0.62366957  1
  Zn  Zn104  1  0.62333121  0.24992709  0.87614219  1
  Zn  Zn105  1  0.00082558  0.74898263  0.74804455  1
  Zn  Zn106  1  0.00038529  0.49991061  0.50108346  1
  Zn  Zn107  1  0.37717744  0.49943699  0.37318301  1
  Zn  Zn108  1  0.37326670  0.12599571  0.75129391  1
  Zn  Zn109  1  0.62444723  0.87457233  0.25294296  1
  Zn  Zn110  1  0.87525601  0.49916920  0.87539746  1
  Zn  Zn111  1  0.74923805  0.00212452  0.74780196  1
  Zn  Zn112  1  0.12503446  0.25112046  0.37581683  1
  Zn  Zn113  1  0.37649902  0.75016405  0.12330856  1
  Zn  Zn114  1  0.12195992  0.49937309  0.62480185  1
  Zn  Zn115  1  0.49893394  0.62593437  0.12398214  1
  Zn  Zn116  1  0.75000901  0.37526005  0.62694160  1
  Zn  Zn117  1  -0.00019234  0.00110451  0.00109398  1
  Zn  Zn118  1  0.74824989  0.12327598  0.37534276  1
  Zn  Zn119  1  0.37503275  0.12429615  0.25022733  1
  Zn  Zn120  1  0.37553098  0.74949801  0.62623319  1
  Zn  Zn121  1  0.62580476  0.12525117  0.49925732  1
  Zn  Zn122  1  0.12562721  0.75046942  0.37397275  1
  Zn  Zn123  1  -0.00187827  0.37692645  0.87483712  1
  Zn  Zn124  1  0.62732990  0.00190200  0.62532393  1
  Zn  Zn125  1  0.37310942  0.62594784  0.74909554  1
  Zn  Zn126  1  0.50264456  0.87443348  0.37593081  1
  Zn  Zn127  1  -0.00033599  0.12320549  0.62590230  1
  Zn  Zn128  1  0.18689549  0.18813475  0.18824401  1
  Zn  Zn129  1  0.18816779  0.18768749  0.68724349  1
  Zn  Zn130  1  0.18817611  0.68946938  0.18614477  1
  Zn  Zn131  1  0.18775224  0.68789100  0.68653866  1
  Zn  Zn132  1  0.68715220  0.18474948  0.18786566  1
  Zn  Zn133  1  0.68640653  0.19002676  0.68853661  1
  Zn  Zn134  1  0.68610512  0.68642699  0.18701776  1
  Zn  Zn135  1  0.68804512  0.68883552  0.68679263  1
  Zn  Zn136  1  0.31220922  0.31023449  0.31232605  1
  Zn  Zn137  1  0.31106358  0.31257265  0.81204037  1
  Zn  Zn138  1  0.31551117  0.81171000  0.31339048  1
  Zn  Zn139  1  0.31344051  0.81185617  0.81161887  1
  Zn  Zn140  1  0.81297445  0.31162293  0.31399195  1
  Zn  Zn141  1  0.81288417  0.31362063  0.81381313  1
  Zn  Zn142  1  0.81260823  0.81260943  0.31254455  1
  Zn  Zn143  1  0.81236649  0.81209447  0.81151619  1
  Zn  Zn144  1  0.18872455  0.44018035  0.43597457  1
  Zn  Zn145  1  0.18520211  0.43712718  0.93746037  1
  Zn  Zn146  1  0.18778334  0.93714414  0.43702095  1
  Zn  Zn147  1  0.18792164  0.93854283  0.93623124  1
  Zn  Zn148  1  0.68745482  0.43707599  0.43877770  1
  Zn  Zn149  1  0.68794692  0.43739235  0.93619447  1
  Zn  Zn150  1  0.68584048  0.93534991  0.43628880  1
  Zn  Zn151  1  0.68788372  0.93959668  0.93781524  1
  Zn  Zn152  1  0.31279330  0.06286568  0.06134730  1
  Zn  Zn153  1  0.31392907  0.06150347  0.56383742  1
  Zn  Zn154  1  0.31157772  0.56240285  0.06283503  1
  Zn  Zn155  1  0.31155718  0.56088181  0.56305288  1
  Zn  Zn156  1  0.81260989  0.06259539  0.06254435  1
  Zn  Zn157  1  0.81315449  0.06333301  0.56319990  1
  Zn  Zn158  1  0.81148159  0.56205475  0.06295342  1
  Zn  Zn159  1  0.81204195  0.56085579  0.56375812  1
  Zn  Zn160  1  0.43764588  0.43798855  0.18742912  1
  Zn  Zn161  1  0.43601275  0.43960023  0.68745187  1
  Zn  Zn162  1  0.43678127  0.93675739  0.18803942  1
  Zn  Zn163  1  0.43752583  0.93742620  0.68730788  1
  Zn  Zn164  1  0.93828877  0.43663364  0.18797504  1
  Zn  Zn165  1  0.93922620  0.43869364  0.68440200  1
  Zn  Zn166  1  0.93858923  0.93883003  0.18581559  1
  Zn  Zn167  1  0.93727224  0.93833780  0.68874676  1
  Zn  Zn168  1  0.06190524  0.06123587  0.31196817  1
  Zn  Zn169  1  0.06226553  0.06284424  0.81366353  1
  Zn  Zn170  1  0.06317670  0.56127396  0.31392547  1
  Zn  Zn171  1  0.06111783  0.56006906  0.81377814  1
  Zn  Zn172  1  0.56426004  0.06429773  0.31242070  1
  Zn  Zn173  1  0.56318827  0.06238513  0.81068821  1
  Zn  Zn174  1  0.56163941  0.56269672  0.31344068  1
  Zn  Zn175  1  0.56185002  0.56245149  0.81248041  1
  Zn  Zn176  1  0.43665394  0.18887541  0.43829643  1
  Zn  Zn177  1  0.43662015  0.18601024  0.93716652  1
  Zn  Zn178  1  0.43788547  0.68858306  0.43668161  1
  Zn  Zn179  1  0.43668969  0.68704808  0.93600922  1
  Zn  Zn180  1  0.93744961  0.18699332  0.43630132  1
  Zn  Zn181  1  0.93812419  0.18970192  0.93748513  1
  Zn  Zn182  1  0.93808918  0.68829940  0.43602746  1
  Zn  Zn183  1  0.93780249  0.68803506  0.93585243  1
  Zn  Zn184  1  0.06078116  0.31214786  0.06453745  1
  Zn  Zn185  1  0.06125550  0.31106034  0.56359002  1
  Zn  Zn186  1  0.06248793  0.81384426  0.06151555  1
  Zn  Zn187  1  0.06299895  0.80833794  0.56253534  1
  Zn  Zn188  1  0.56316626  0.31150538  0.06107259  1
  Zn  Zn189  1  0.56216526  0.31403565  0.56323474  1
  Zn  Zn190  1  0.56197797  0.81251027  0.06537137  1
  Zn  Zn191  1  0.56466817  0.81214153  0.56278176  1
  O  O192  1  0.12558923  0.11994496  0.11614640  1
  O  O193  1  0.12526096  0.11733141  0.61450433  1
  O  O194  1  0.11957166  0.62066435  0.11972107  1
  O  O195  1  0.12605624  0.62450493  0.61229517  1
  O  O196  1  0.61792122  0.11771732  0.12295940  1
  O  O197  1  0.61160540  0.12590511  0.62265599  1
  O  O198  1  0.62463591  0.61683753  0.11723602  1
  O  O199  1  0.61783319  0.62060666  0.62040114  1
  O  O200  1  0.37935968  0.37422167  0.38306962  1
  O  O201  1  0.37897193  0.38075558  0.88139425  1
  O  O202  1  0.37717585  0.88246593  0.38338510  1
  O  O203  1  0.38182012  0.88019244  0.88026557  1
  O  O204  1  0.88062972  0.38015066  0.37948005  1
  O  O205  1  0.87659254  0.37807143  0.88519632  1
  O  O206  1  0.88102304  0.88001476  0.38070845  1
  O  O207  1  0.87900482  0.87967303  0.87969621  1
  O  O208  1  0.25528868  0.00683994  0.37037064  1
  O  O209  1  0.25713957  -0.00021662  0.86769252  1
  O  O210  1  0.25413666  0.51362078  0.37140074  1
  O  O211  1  0.25357891  0.50487431  0.87074763  1
  O  O212  1  0.75710137  0.00005500  0.36917649  1
  O  O213  1  0.75642543  0.01085610  0.87452922  1
  O  O214  1  0.75549451  0.50446773  0.36881334  1
  O  O215  1  0.75093108  0.50823827  0.86911866  1
  O  O216  1  0.24272908  0.49294714  0.12584355  1
  O  O217  1  0.24767122  0.49290226  0.63232972  1
  O  O218  1  0.24546876  0.99461973  0.13059624  1
  O  O219  1  0.24481035  0.99290864  0.62992254  1
  O  O220  1  0.74413871  0.49378139  0.13099525  1
  O  O221  1  0.74223396  0.49849993  0.63301264  1
  O  O222  1  0.74523112  0.99457469  0.12985442  1
  O  O223  1  0.74801359  0.99263566  0.62604797  1
  O  O224  1  0.00522429  0.36938485  0.25565414  1
  O  O225  1  0.00634516  0.36863021  0.75078426  1
  O  O226  1  0.00532869  0.87019802  0.25381553  1
  O  O227  1  0.00678419  0.87318450  0.75666332  1
  O  O228  1  0.50536233  0.36898697  0.25468494  1
  O  O229  1  0.50392574  0.37147830  0.75523153  1
  O  O230  1  0.49920216  0.86358648  0.25176676  1
  O  O231  1  0.50644625  0.86985097  0.75538895  1
  O  O232  1  0.49782003  0.13195866  0.24316953  1
  O  O233  1  0.49777142  0.13098906  0.74056872  1
  O  O234  1  0.49124181  0.63175433  0.24928944  1
  O  O235  1  0.50047825  0.63086681  0.74100677  1
  O  O236  1  0.99364945  0.13089019  0.24958202  1
  O  O237  1  0.99401769  0.13212753  0.74936331  1
  O  O238  1  0.99472466  0.63019686  0.24451759  1
  O  O239  1  0.98739251  0.62611962  0.75026004  1
  O  O240  1  0.36949247  0.25613603  0.00536110  1
  O  O241  1  0.37339788  0.26140653  0.50601439  1
  O  O242  1  0.36830404  0.75686122  -0.00087633  1
  O  O243  1  0.36975015  0.75720012  0.50204315  1
  O  O244  1  0.86977483  0.25568573  0.00736681  1
  O  O245  1  0.86772509  0.25410467  0.50419872  1
  O  O246  1  0.86880498  0.75480771  0.00519695  1
  O  O247  1  0.87004372  0.75515124  0.50464561  1
  O  O248  1  0.12610363  0.23638168  0.49800697  1
  O  O249  1  0.12958431  0.24396897  0.99667372  1
  O  O250  1  0.13323075  0.74133322  0.49643639  1
  O  O251  1  0.13030336  0.74458015  0.99446741  1
  O  O252  1  0.63404967  0.25209142  0.49520966  1
  O  O253  1  0.63384509  0.24752275  0.99699744  1
  O  O254  1  0.63328450  0.74224979  0.49934289  1
  O  O255  1  0.63007220  0.74505641  0.99517156  1
  O  O256  1  0.49511142  0.24529527  0.12950843  1
  O  O257  1  0.49447907  0.24370140  0.62941816  1
  O  O258  1  0.49692944  0.74655952  0.13503169  1
  O  O259  1  0.50121468  0.73981608  0.63079162  1
  O  O260  1  0.99224159  0.24861007  0.13355281  1
  O  O261  1  0.99300234  0.24608446  0.63192787  1
  O  O262  1  0.99408988  0.74501342  0.12922421  1
  O  O263  1  0.99122579  0.74544099  0.62722705  1
  O  O264  1  0.00115104  0.25675993  0.36821859  1
  O  O265  1  0.00679978  0.25294167  0.86814561  1
  O  O266  1  0.00077107  0.75711842  0.36620857  1
  O  O267  1  0.00715046  0.75683590  0.87340605  1
  O  O268  1  0.50477904  0.25544477  0.36944679  1
  O  O269  1  0.49918421  0.25703283  0.86883708  1
  O  O270  1  0.50181481  0.75064361  0.36400097  1
  O  O271  1  0.50634480  0.75601195  0.87062130  1
  O  O272  1  0.24133736  0.12206352  0.49210136  1
  O  O273  1  0.23974449  0.13180265  0.99940434  1
  O  O274  1  0.24581805  0.62952845  0.49202884  1
  O  O275  1  0.24338565  0.62995326  0.99442402  1
  O  O276  1  0.74898907  0.13802174  0.49888544  1
  O  O277  1  0.75047344  0.13094222  0.99056053  1
  O  O278  1  0.74623341  0.62988379  0.49498798  1
  O  O279  1  0.74441353  0.63070822  0.99519096  1
  O  O280  1  0.25455942  0.37008615  0.00638654  1
  O  O281  1  0.25836421  0.37416071  0.50418219  1
  O  O282  1  0.25479581  0.87001800  0.00387823  1
  O  O283  1  0.25497054  0.87053264  0.50469675  1
  O  O284  1  0.75471297  0.37043033  0.00668465  1
  O  O285  1  0.75643628  0.36422376  0.50094064  1
  O  O286  1  0.75549325  0.86909087  0.00513201  1
  O  O287  1  0.75688347  0.86933099  0.50502684  1
  O  O288  1  0.12648506  0.49356834  0.24316889  1
  O  O289  1  0.13085276  0.49276090  0.74989145  1
  O  O290  1  0.13120867  0.99409687  0.24446633  1
  O  O291  1  0.13006431  0.99370587  0.74469284  1
  O  O292  1  0.63033431  0.49435848  0.24456910  1
  O  O293  1  0.63003302  0.49586018  0.74560816  1
  O  O294  1  0.63172071  0.99870487  0.24331996  1
  O  O295  1  0.62763182  0.99166595  0.74677253  1
  O  O296  1  0.36843434  0.00187385  0.25731227  1
  O  O297  1  0.36903666  -0.00045791  0.75624808  1
  O  O298  1  0.37348526  0.51166676  0.25069825  1
  O  O299  1  0.36642938  0.50100031  0.75770831  1
  O  O300  1  0.87022979  0.00406045  0.25460656  1
  O  O301  1  0.87295984  0.00783775  0.75715398  1
  O  O302  1  0.86911212  0.50519910  0.25470799  1
  O  O303  1  0.86836133  0.50972888  0.75036757  1
  O  O304  1  0.11973989  0.37421088  0.36936676  1
  O  O305  1  0.12309350  0.36805611  0.86819118  1
  O  O306  1  0.11924480  0.87421185  0.36739654  1
  O  O307  1  0.12018629  0.87000421  0.87004012  1
  O  O308  1  0.61969709  0.36979656  0.36917897  1
  O  O309  1  0.61652602  0.37486987  0.86871155  1
  O  O310  1  0.62058427  0.86964029  0.37094073  1
  O  O311  1  0.62049874  0.86998151  0.87040502  1
  O  O312  1  0.38098581  0.13166288  0.12605975  1
  O  O313  1  0.38510887  0.13174657  0.62503991  1
  O  O314  1  0.37494549  0.62740619  0.13522717  1
  O  O315  1  0.38696193  0.62530576  0.62599003  1
  O  O316  1  0.87628072  0.13133727  0.13184991  1
  O  O317  1  0.87687506  0.13180568  0.63208837  1
  O  O318  1  0.87968688  0.63058024  0.13054654  1
  O  O319  1  0.87302147  0.63080668  0.63461240  1
  O  O320  1  0.25565628  0.25578187  0.12001987  1
  O  O321  1  0.25671927  0.25696240  0.62276981  1
  O  O322  1  0.25124463  0.75757285  0.11665344  1
  O  O323  1  0.25260005  0.75676163  0.61843984  1
  O  O324  1  0.75519661  0.25523955  0.12119733  1
  O  O325  1  0.75538770  0.25200030  0.61620071  1
  O  O326  1  0.75539935  0.75460834  0.11972761  1
  O  O327  1  0.75638633  0.75593352  0.61846104  1
  O  O328  1  0.24752648  0.23672223  0.37740240  1
  O  O329  1  0.24321167  0.24936439  0.88245447  1
  O  O330  1  0.25019627  0.73995223  0.38065342  1
  O  O331  1  0.24379343  0.74489865  0.88024865  1
  O  O332  1  0.74463829  0.24979563  0.38451238  1
  O  O333  1  0.75042567  0.24032019  0.88135016  1
  O  O334  1  0.75157362  0.74201886  0.38136270  1
  O  O335  1  0.74396205  0.74547760  0.88144654  1
  O  O336  1  0.01330955  0.12546211  0.00218606  1
  O  O337  1  0.00990504  0.11710382  0.49909116  1
  O  O338  1  0.00480658  0.62108726  0.00657444  1
  O  O339  1  0.01280687  0.62536769  0.49668070  1
  O  O340  1  0.50108488  0.11791598  0.00657567  1
  O  O341  1  0.49902247  0.11788397  0.50877008  1
  O  O342  1  0.50623883  0.61838389  -0.00005132  1
  O  O343  1  0.50601060  0.62469226  0.50922523  1
  O  O344  1  0.49045009  0.37562689  0.49457777  1
  O  O345  1  0.49365312  0.38025942  0.99488521  1
  O  O346  1  0.49496365  0.88559542  0.50233519  1
  O  O347  1  0.49517743  0.87991144  0.99432900  1
  O  O348  1  0.99361577  0.37433705  0.49271322  1
  O  O349  1  0.99310129  0.38185329  1.00200751  1
  O  O350  1  0.99521211  0.87850136  0.49406105  1
  O  O351  1  0.99289399  0.87578902  0.99298678  1
  O  O352  1  0.49762999  0.49120027  0.37751342  1
  O  O353  1  0.49349382  0.49455327  0.88036876  1
  O  O354  1  0.49405896  1.00283502  0.38591468  1
  O  O355  1  0.49575201  0.99420662  0.88013143  1
  O  O356  1  0.99252650  0.49300213  0.37623444  1
  O  O357  1  0.99639399  0.49805092  0.88591222  1
  O  O358  1  0.99424319  0.99266109  0.37987437  1
  O  O359  1  0.99351490  0.99313639  0.87766686  1
  O  O360  1  0.00942494  0.00279579  0.12158975  1
  O  O361  1  0.00705809  0.00027206  0.61784566  1
  O  O362  1  0.00542986  0.50662028  0.12116854  1
  O  O363  1  0.00400358  0.50585320  0.61858460  1
  O  O364  1  0.50425983  0.00441598  0.12020029  1
  O  O365  1  0.49909963  0.00954415  0.61663783  1
  O  O366  1  0.50675329  0.50072462  0.11745876  1
  O  O367  1  0.50624680  0.51072255  0.62516268  1
  O  O368  1  0.24420139  0.37566526  0.24421829  1
  O  O369  1  0.24385849  0.38012676  0.74441518  1
  O  O370  1  0.24562441  0.87931627  0.24481381  1
  O  O371  1  0.24387767  0.87961404  0.74455553  1
  O  O372  1  0.74443172  0.37988667  0.24535261  1
  O  O373  1  0.74295963  0.38162191  0.75026078  1
  O  O374  1  0.75085929  0.88112345  0.24232201  1
  O  O375  1  0.74440579  0.87586579  0.74353456  1
  O  O376  1  0.24930654  0.11840490  0.26029363  1
  O  O377  1  0.25225196  0.11573933  0.75060671  1
  O  O378  1  0.25796708  0.62771109  0.25744472  1
  O  O379  1  0.24953119  0.61854756  0.75698876  1
  O  O380  1  0.75754628  0.11743256  0.25172564  1
  O  O381  1  0.75621322  0.12704786  0.75992240  1
  O  O382  1  0.75583680  0.61914094  0.25457011  1
  O  O383  1  0.75679715  0.62094465  0.75516863  1
  O  O384  1  0.36416290  0.11920204  0.37639241  1
  O  O385  1  0.37217574  0.11609321  0.87267268  1
  O  O386  1  0.36713842  0.62430416  0.36665643  1
  O  O387  1  0.36691567  0.61774826  0.87412406  1
  O  O388  1  0.87351270  0.11674432  0.36867522  1
  O  O389  1  0.86768887  0.12145595  0.87088536  1
  O  O390  1  0.86980871  0.61915912  0.36900770  1
  O  O391  1  0.86789026  0.62538927  0.86579712  1
  O  O392  1  0.12996265  0.38009837  0.13097859  1
  O  O393  1  0.13176992  0.37470182  0.63082271  1
  O  O394  1  0.13133325  0.88077570  0.12920217  1
  O  O395  1  0.13082610  0.87884717  0.62959337  1
  O  O396  1  0.63024208  0.37991144  0.13080303  1
  O  O397  1  0.62492570  0.38243614  0.63297715  1
  O  O398  1  0.63254060  0.88164948  0.12697700  1
  O  O399  1  0.63251385  0.87546746  0.63168214  1
  O  O400  1  0.11820101  0.25658485  0.25198587  1
  O  O401  1  0.12008641  0.25459299  0.75476469  1
  O  O402  1  0.11818472  0.75722566  0.24954795  1
  O  O403  1  0.12449220  0.75641942  0.75668538  1
  O  O404  1  0.62010227  0.25618056  0.25484893  1
  O  O405  1  0.61679304  0.25825375  0.75216393  1
  O  O406  1  0.61427988  0.74895609  0.25078075  1
  O  O407  1  0.62044275  0.75578112  0.75688011  1
  O  O408  1  0.38197336  0.24802969  0.24294093  1
  O  O409  1  0.38134045  0.25053003  0.74273201  1
  O  O410  1  0.38290137  0.74084235  0.24854940  1
  O  O411  1  0.38419812  0.74699666  0.74769721  1
  O  O412  1  0.87933940  0.24456959  0.24591453  1
  O  O413  1  0.88010368  0.24603010  0.74528036  1
  O  O414  1  0.88050840  0.74423993  0.24340643  1
  O  O415  1  0.87411710  0.74004378  0.74414315  1
  O  O416  1  0.37702362  0.48696685  0.49880536  1
  O  O417  1  0.37931093  0.49418275  0.99499055  1
  O  O418  1  0.38334120  0.99517792  0.49609451  1
  O  O419  1  0.38052335  0.99367318  0.99400701  1
  O  O420  1  0.87389941  0.49280054  0.49269316  1
  O  O421  1  0.88055490  0.49419309  1.00204544  1
  O  O422  1  0.88071546  0.99405426  0.49480430  1
  O  O423  1  0.87634104  0.99334444  0.99364981  1
  O  O424  1  0.12616268  0.00982803  0.00467349  1
  O  O425  1  0.12025865  0.00541833  0.50495942  1
  O  O426  1  0.11910671  0.50590605  0.00675701  1
  O  O427  1  0.12560049  0.51273178  0.49985879  1
  O  O428  1  0.61791858  0.00120562  0.00712316  1
  O  O429  1  0.61335680  0.00273193  0.50222903  1
  O  O430  1  0.61962188  0.50460227  0.00447118  1
  O  O431  1  0.62479234  0.50654128  0.50765342  1
  O  O432  1  0.36976464  0.36960803  0.11940771  1
  O  O433  1  0.37025908  0.37116204  0.61716339  1
  O  O434  1  0.36764622  0.87465909  0.11694688  1
  O  O435  1  0.36834222  0.87409714  0.61830210  1
  O  O436  1  0.86811059  0.36927460  0.12170249  1
  O  O437  1  0.87265195  0.36764308  0.61807726  1
  O  O438  1  0.86989382  0.86935151  0.11912925  1
  O  O439  1  0.87051309  0.86963960  0.61945351  1
  O  O440  1  0.13384231  0.12138202  0.38423780  1
  O  O441  1  0.12739661  0.13116316  0.88464412  1
  O  O442  1  0.13528302  0.62727467  0.38053837  1
  O  O443  1  0.12941744  0.63023447  0.88127675  1
  O  O444  1  0.62775790  0.13476208  0.37858064  1
  O  O445  1  0.63678169  0.12642278  0.87581169  1
  O  O446  1  0.63294657  0.62511536  0.38170828  1
  O  O447  1  0.62992318  0.63118945  0.88051731  1
