# generated using pymatgen
data_V3Zn3O8
_symmetry_space_group_name_H-M   'P 1'
_cell_length_a   17.09069724
_cell_length_b   17.09122961
_cell_length_c   17.09107806
_cell_angle_alpha   89.99305242
_cell_angle_beta   90.00226153
_cell_angle_gamma   89.98292971
_symmetry_Int_Tables_number   1
_chemical_formula_structural   V3Zn3O8
_chemical_formula_sum   'V96 Zn96 O256'
_cell_volume   4992.32125757
_cell_formula_units_Z   32
loop_
 _symmetry_equiv_pos_site_id
 _symmetry_equiv_pos_as_xyz
  1  'x, y, z'
loop_
 _atom_site_type_symbol
 _atom_site_label
 _atom_site_symmetry_multiplicity
 _atom_site_fract_x
 _atom_site_fract_y
 _atom_site_fract_z
 _atom_site_occupancy
  V  V0  1  0.74887755  0.25088781  -0.00079008  1
  V  V1  1  0.12465779  0.74917355  0.87416841  1
  V  V2  1  0.87461051  0.50108461  0.37463927  1
  V  V3  1  0.87512887  0.37532866  0.49974624  1
  V  V4  1  0.75010629  0.50040600  0.75236939  1
  V  V5  1  0.62549342  0.62454408  0.50038333  1
  V  V6  1  0.74911572  0.37627338  0.12507389  1
  V  V7  1  0.37567419  0.62267327  0.75018405  1
  V  V8  1  0.12509462  0.37532923  0.24865248  1
  V  V9  1  0.87453989  0.12528988  0.74991742  1
  V  V10  1  0.62474520  0.87489345  0.75104446  1
  V  V11  1  0.12437019  0.50027235  0.12397110  1
  V  V12  1  0.87566363  0.00018318  0.37556580  1
  V  V13  1  0.00013757  0.12427853  0.62459577  1
  V  V14  1  -0.00103071  0.37567396  0.87561275  1
  V  V15  1  0.87530727  0.62565703  0.25063849  1
  V  V16  1  0.49902362  0.25022046  0.24876210  1
  V  V17  1  0.87648644  0.87687341  0.00049743  1
  V  V18  1  0.12599843  0.74892108  0.37577708  1
  V  V19  1  0.37509567  0.12471772  0.24829154  1
  V  V20  1  0.37400955  0.37418579  -0.00028627  1
  V  V21  1  0.25049432  0.87232750  0.62434951  1
  V  V22  1  0.12612128  0.87390840  0.25088191  1
  V  V23  1  0.37582167  0.62643076  0.24829327  1
  V  V24  1  0.25126338  0.87419769  0.12477652  1
  V  V25  1  0.87429356  0.25114086  0.12572128  1
  V  V26  1  0.62399127  -0.00026902  0.62389974  1
  V  V27  1  0.62537719  0.00262583  0.12514259  1
  V  V28  1  0.00177924  0.75019027  0.25064457  1
  V  V29  1  -0.00108461  0.25058590  0.24955626  1
  V  V30  1  0.12531081  0.37463685  0.74932280  1
  V  V31  1  0.00075746  0.49976753  0.50036762  1
  V  V32  1  0.12453632  0.62518157  -0.00063150  1
  V  V33  1  0.37503128  0.37422170  0.49891049  1
  V  V34  1  0.12478424  0.12419470  0.49928462  1
  V  V35  1  0.62485228  0.12580031  -0.00012250  1
  V  V36  1  0.74985192  0.37588192  0.62551784  1
  V  V37  1  0.87437571  0.12545203  0.25100505  1
  V  V38  1  0.00050723  0.12525646  0.12470676  1
  V  V39  1  0.50118997  0.87482171  0.37468337  1
  V  V40  1  0.24869986  0.37381590  0.12379135  1
  V  V41  1  0.62511440  0.75015579  0.37415001  1
  V  V42  1  0.87534268  0.37662610  -0.00027178  1
  V  V43  1  0.87581357  0.87542571  0.49998233  1
  V  V44  1  0.62578194  0.50063555  0.62506966  1
  V  V45  1  0.25012170  0.24881566  0.49982600  1
  V  V46  1  0.12516576  0.62376451  0.50023217  1
  V  V47  1  0.37611560  -0.00131221  0.37589174  1
  V  V48  1  0.87531638  0.75026940  0.62574577  1
  V  V49  1  0.12593763  -0.00195508  0.62456696  1
  V  V50  1  0.75154382  0.87701800  0.12617007  1
  V  V51  1  0.74877545  0.25027130  0.49981531  1
  V  V52  1  0.37301422  -0.00071722  0.87311994  1
  V  V53  1  0.00001931  0.24983390  0.74965343  1
  V  V54  1  0.74952680  0.00078938  0.74994033  1
  V  V55  1  -0.00025081  0.37503699  0.37444094  1
  V  V56  1  0.87609972  0.75120980  0.12592627  1
  V  V57  1  0.75159293  0.00139664  0.25110701  1
  V  V58  1  0.50076184  0.62367860  0.62517637  1
  V  V59  1  0.74959871  0.87539636  0.62530709  1
  V  V60  1  0.25012809  0.12349187  0.37473505  1
  V  V61  1  0.37617019  0.74802027  0.62408502  1
  V  V62  1  0.87426141  0.62504518  0.75207023  1
  V  V63  1  0.24988482  0.62466682  0.87486338  1
  V  V64  1  0.12545456  0.24907961  0.87466318  1
  V  V65  1  0.87587523  0.00059020  0.87550997  1
  V  V66  1  0.75084375  0.62525970  0.37499712  1
  V  V67  1  0.50100563  0.87497497  0.87450706  1
  V  V68  1  0.24989163  0.62448443  0.37581825  1
  V  V69  1  0.49925564  0.50099698  0.00078897  1
  V  V70  1  0.24977024  -0.00060490  0.74915740  1
  V  V71  1  0.87478711  0.25018432  0.62429143  1
  V  V72  1  0.12520246  0.49864509  0.62457190  1
  V  V73  1  0.62312671  0.50292674  0.12555610  1
  V  V74  1  0.62372568  0.37496271  0.25023077  1
  V  V75  1  0.74719757  0.75012877  -0.00028505  1
  V  V76  1  0.62493791  0.25067588  0.37550897  1
  V  V77  1  0.74976671  0.12670257  0.87495102  1
  V  V78  1  0.00027200  0.87553316  0.87480321  1
  V  V79  1  0.24925766  0.37367138  0.62501535  1
  V  V80  1  -0.00068084  0.74973038  0.75049383  1
  V  V81  1  0.62449818  0.12527896  0.50001429  1
  V  V82  1  0.37478769  0.87526104  0.00007893  1
  V  V83  1  -0.00055197  -0.00093664  0.49976088  1
  V  V84  1  0.37506122  0.50015793  0.87543091  1
  V  V85  1  0.24949440  0.12414048  0.87413203  1
  V  V86  1  0.50063273  -0.00067018  0.50009158  1
  V  V87  1  0.75098744  0.75028659  0.50013917  1
  V  V88  1  0.12427070  0.24963313  0.37443020  1
  V  V89  1  0.24986378  0.24944145  -0.00149820  1
  V  V90  1  0.37524812  0.24824859  0.62436880  1
  V  V91  1  0.12383605  0.00074159  0.12436772  1
  V  V92  1  0.62610765  0.87593535  0.25096116  1
  V  V93  1  0.37526129  0.49826955  0.37522411  1
  V  V94  1  0.00114531  0.62539557  0.12383999  1
  V  V95  1  0.50043806  0.25006417  0.74968284  1
  Zn  Zn96  1  0.50007045  0.75129319  0.24821481  1
  Zn  Zn97  1  0.37730004  0.75036837  0.12536668  1
  Zn  Zn98  1  0.75006789  0.12582654  0.37547742  1
  Zn  Zn99  1  0.25099208  -0.00055781  0.25129534  1
  Zn  Zn100  1  0.74666529  0.62536195  0.87805137  1
  Zn  Zn101  1  0.49979392  0.37499105  0.37657286  1
  Zn  Zn102  1  0.49839551  0.12477490  0.12095335  1
  Zn  Zn103  1  0.00207221  0.87449712  0.37574081  1
  Zn  Zn104  1  0.50355162  0.74792676  0.75140303  1
  Zn  Zn105  1  0.24992839  0.74808770  0.50036894  1
  Zn  Zn106  1  0.12409331  0.87307218  0.75029977  1
  Zn  Zn107  1  0.87462937  0.50125009  0.87789009  1
  Zn  Zn108  1  0.50199147  0.37483034  0.87393397  1
  Zn  Zn109  1  0.24957497  0.49917219  0.24834544  1
  Zn  Zn110  1  0.62277412  0.62825542  -0.00023720  1
  Zn  Zn111  1  0.50076332  0.00265996  0.00037529  1
  Zn  Zn112  1  -0.00236387  0.50127261  -0.00202350  1
  Zn  Zn113  1  0.74867963  0.50124987  0.25018259  1
  Zn  Zn114  1  0.12391018  0.12504948  -0.00081835  1
  Zn  Zn115  1  0.50156524  0.49726341  0.50049731  1
  Zn  Zn116  1  0.25071833  0.49808569  0.75003285  1
  Zn  Zn117  1  0.62537666  0.74896397  0.87480021  1
  Zn  Zn118  1  0.37391208  0.24890851  0.12297364  1
  Zn  Zn119  1  0.62354711  0.25208820  0.87390116  1
  Zn  Zn120  1  0.00124715  0.62471592  0.62542325  1
  Zn  Zn121  1  0.37650178  0.87254298  0.49822159  1
  Zn  Zn122  1  0.62516913  0.37436247  0.75214924  1
  Zn  Zn123  1  0.49922598  0.63043250  0.12537514  1
  Zn  Zn124  1  0.37578597  0.12349389  0.74780438  1
  Zn  Zn125  1  0.24995361  0.74949288  -0.00095822  1
  Zn  Zn126  1  0.49796518  0.12289014  0.62566225  1
  Zn  Zn127  1  0.00015927  0.00249376  -0.00194113  1
  Zn  Zn128  1  0.18818327  0.18802146  0.18688400  1
  Zn  Zn129  1  0.18833566  0.18605390  0.68790682  1
  Zn  Zn130  1  0.18997051  0.68710429  0.18812400  1
  Zn  Zn131  1  0.18782986  0.68449868  0.68944033  1
  Zn  Zn132  1  0.68774763  0.18746272  0.18707300  1
  Zn  Zn133  1  0.68483078  0.18704795  0.68606338  1
  Zn  Zn134  1  0.68836710  0.68832476  0.18752159  1
  Zn  Zn135  1  0.68704670  0.68837277  0.68828541  1
  Zn  Zn136  1  0.31058587  0.31205530  0.31174500  1
  Zn  Zn137  1  0.31476585  0.31249176  0.81239477  1
  Zn  Zn138  1  0.31213037  0.81124842  0.31256306  1
  Zn  Zn139  1  0.31254129  0.80997078  0.81039567  1
  Zn  Zn140  1  0.80993495  0.31415885  0.31238689  1
  Zn  Zn141  1  0.81308410  0.31345146  0.81373949  1
  Zn  Zn142  1  0.81357863  0.81339671  0.31374065  1
  Zn  Zn143  1  0.81267603  0.81386643  0.81423662  1
  Zn  Zn144  1  0.18889994  0.43738188  0.43707766  1
  Zn  Zn145  1  0.18673037  0.43858273  0.93733399  1
  Zn  Zn146  1  0.18931555  0.93633744  0.43833741  1
  Zn  Zn147  1  0.18634532  0.93703515  0.93768167  1
  Zn  Zn148  1  0.68775252  0.43768503  0.43699204  1
  Zn  Zn149  1  0.68494527  0.43579055  0.93615009  1
  Zn  Zn150  1  0.68856393  0.93840691  0.43699256  1
  Zn  Zn151  1  0.68797552  0.93858126  0.93831779  1
  Zn  Zn152  1  0.31065787  0.06169580  0.06078760  1
  Zn  Zn153  1  0.31415801  0.06124978  0.56192239  1
  Zn  Zn154  1  0.31034622  0.56156686  0.06251413  1
  Zn  Zn155  1  0.31145370  0.56050544  0.56194305  1
  Zn  Zn156  1  0.81247231  0.06387447  0.06240941  1
  Zn  Zn157  1  0.81089096  0.06326865  0.56183009  1
  Zn  Zn158  1  0.81223791  0.56325741  0.06380581  1
  Zn  Zn159  1  0.81311717  0.56327937  0.56426595  1
  Zn  Zn160  1  0.43577797  0.43671643  0.18683280  1
  Zn  Zn161  1  0.43822202  0.43580431  0.68719554  1
  Zn  Zn162  1  0.44083255  0.94008973  0.18760641  1
  Zn  Zn163  1  0.43732219  0.93570291  0.68799896  1
  Zn  Zn164  1  0.93776695  0.43978171  0.18668006  1
  Zn  Zn165  1  0.93820970  0.43800503  0.68780606  1
  Zn  Zn166  1  0.93975850  0.93760724  0.18918653  1
  Zn  Zn167  1  0.93743914  0.93690687  0.68832604  1
  Zn  Zn168  1  0.06145529  0.06117321  0.31103795  1
  Zn  Zn169  1  0.06414215  0.06127050  0.81087811  1
  Zn  Zn170  1  0.06272248  0.56216323  0.31161258  1
  Zn  Zn171  1  0.06194585  0.56067811  0.81260497  1
  Zn  Zn172  1  0.56292077  0.06353179  0.31376117  1
  Zn  Zn173  1  0.56161259  0.06419433  0.81261343  1
  Zn  Zn174  1  0.56003745  0.56316713  0.31282441  1
  Zn  Zn175  1  0.56435235  0.56547478  0.81517825  1
  Zn  Zn176  1  0.43902347  0.18602670  0.43646486  1
  Zn  Zn177  1  0.43656446  0.18668504  0.93410973  1
  Zn  Zn178  1  0.43983740  0.68602454  0.43759363  1
  Zn  Zn179  1  0.43636761  0.68832029  0.93854521  1
  Zn  Zn180  1  0.93687538  0.18689461  0.43732554  1
  Zn  Zn181  1  0.93764254  0.18877685  0.93895975  1
  Zn  Zn182  1  0.93999875  0.68732613  0.43757999  1
  Zn  Zn183  1  0.93661746  0.68906423  0.93751278  1
  Zn  Zn184  1  0.06228532  0.31269696  0.06062858  1
  Zn  Zn185  1  0.06242113  0.31238968  0.56198138  1
  Zn  Zn186  1  0.06287023  0.81217287  0.06042091  1
  Zn  Zn187  1  0.06229917  0.81064857  0.56251737  1
  Zn  Zn188  1  0.56160778  0.31346785  0.06321534  1
  Zn  Zn189  1  0.56115537  0.31383511  0.56448846  1
  Zn  Zn190  1  0.56083558  0.81555755  0.06570817  1
  Zn  Zn191  1  0.56219775  0.81190628  0.56182803  1
  O  O192  1  0.12043563  0.11564077  0.12616349  1
  O  O193  1  0.11977222  0.11915655  0.61862958  1
  O  O194  1  0.12090018  0.62115103  0.12003952  1
  O  O195  1  0.12392110  0.61696102  0.61911631  1
  O  O196  1  0.62572490  0.11994004  0.11690208  1
  O  O197  1  0.62380836  0.11639542  0.61735877  1
  O  O198  1  0.62333428  0.61367878  0.12441503  1
  O  O199  1  0.62100999  0.62092037  0.61975266  1
  O  O200  1  0.37292504  0.38320076  0.37937193  1
  O  O201  1  0.37627174  0.38273954  0.88272338  1
  O  O202  1  0.38137754  0.88068161  0.37545896  1
  O  O203  1  0.37996886  0.87893228  0.88098537  1
  O  O204  1  0.88013941  0.38043236  0.38002308  1
  O  O205  1  0.88159575  0.37537496  0.88187779  1
  O  O206  1  0.87741824  0.88149381  0.38266062  1
  O  O207  1  0.88039982  0.88181650  0.88029245  1
  O  O208  1  0.25635820  0.00616976  0.37359125  1
  O  O209  1  0.25297132  0.00326350  0.86881212  1
  O  O210  1  0.25997550  0.50478177  0.37293934  1
  O  O211  1  0.25688723  0.50675887  0.87392851  1
  O  O212  1  0.75775328  0.00197121  0.36881046  1
  O  O213  1  0.75627416  0.00597934  0.86884613  1
  O  O214  1  0.75701967  0.50734369  0.37387242  1
  O  O215  1  0.75209632  0.50166872  0.86328207  1
  O  O216  1  0.24159793  0.49165112  0.12579697  1
  O  O217  1  0.24317803  0.49083836  0.62573533  1
  O  O218  1  0.24115356  0.99080866  0.12651163  1
  O  O219  1  0.24602070  0.99106730  0.62809585  1
  O  O220  1  0.73878142  0.49508788  0.12610380  1
  O  O221  1  0.74654633  0.49594508  0.63287072  1
  O  O222  1  0.74673630  0.99565714  0.13185223  1
  O  O223  1  0.74500117  0.99437544  0.63028281  1
  O  O224  1  0.00442041  0.36937798  0.25522519  1
  O  O225  1  0.00473544  0.36799847  0.75415920  1
  O  O226  1  0.00805867  0.86761227  0.25160513  1
  O  O227  1  -0.00024676  0.86785089  0.75664400  1
  O  O228  1  0.50370948  0.36456070  0.25126329  1
  O  O229  1  0.50197259  0.36356018  0.74992760  1
  O  O230  1  0.50857190  0.87602736  0.25766855  1
  O  O231  1  0.50544524  0.87338012  0.75940190  1
  O  O232  1  0.49102841  0.13335424  0.25035651  1
  O  O233  1  0.49717456  0.13452450  0.74698226  1
  O  O234  1  0.48747979  0.62654204  0.24897263  1
  O  O235  1  0.49393136  0.62703908  0.74360997  1
  O  O236  1  0.99424509  0.13165934  0.24453760  1
  O  O237  1  0.99428036  0.13004495  0.74372273  1
  O  O238  1  0.99516677  0.63135830  0.24426652  1
  O  O239  1  0.98932889  0.63003524  0.74907225  1
  O  O240  1  0.36824865  0.25567346  0.00038205  1
  O  O241  1  0.36870072  0.25368413  0.50291011  1
  O  O242  1  0.37219387  0.76443487  0.00161058  1
  O  O243  1  0.37338190  0.74867496  0.51280035  1
  O  O244  1  0.86863457  0.25581752  0.00706844  1
  O  O245  1  0.87049387  0.25566931  0.50511366  1
  O  O246  1  0.86788876  0.75694203  0.00686482  1
  O  O247  1  0.87045451  0.75480842  0.50525535  1
  O  O248  1  0.12942034  0.24383840  0.49401098  1
  O  O249  1  0.13156778  0.24910385  0.99171876  1
  O  O250  1  0.12543941  0.74169187  0.49401973  1
  O  O251  1  0.12625281  0.74325067  0.99212404  1
  O  O252  1  0.62948454  0.24595906  0.49590324  1
  O  O253  1  0.63131791  0.24309783  1.00062611  1
  O  O254  1  0.63239389  0.74469830  0.49478869  1
  O  O255  1  0.63750185  0.75303858  1.00315862  1
  O  O256  1  0.49759515  0.24735295  0.13765146  1
  O  O257  1  0.49327099  0.24802394  0.63259207  1
  O  O258  1  0.49537377  0.74856960  0.12985642  1
  O  O259  1  0.49134406  0.74386709  0.62605397  1
  O  O260  1  0.99423465  0.24585525  0.13117114  1
  O  O261  1  0.99479172  0.24407671  0.62927860  1
  O  O262  1  0.99557420  0.74526816  0.13069898  1
  O  O263  1  0.99249647  0.74850257  0.63210171  1
  O  O264  1  0.00466385  0.25540768  0.36992411  1
  O  O265  1  0.00487366  0.25443764  0.86807423  1
  O  O266  1  0.00763537  0.75080995  0.36820651  1
  O  O267  1  0.00414711  0.75579795  0.86927393  1
  O  O268  1  0.50563357  0.25081765  0.36376541  1
  O  O269  1  0.49991673  0.25162852  0.86254548  1
  O  O270  1  0.50830926  0.75648144  0.37439925  1
  O  O271  1  0.49986348  0.76422807  0.87500925  1
  O  O272  1  0.24365002  0.12918637  0.49437762  1
  O  O273  1  0.24757708  0.13096742  0.99236086  1
  O  O274  1  0.24263932  0.62463427  0.49355733  1
  O  O275  1  0.24345604  0.62757356  0.99331431  1
  O  O276  1  0.74353761  0.13284756  0.49892737  1
  O  O277  1  0.74514317  0.13155869  0.99480652  1
  O  O278  1  0.74625039  0.63133787  0.49526400  1
  O  O279  1  0.75025956  0.63898303  1.00166315  1
  O  O280  1  0.25431057  0.36904665  0.00404181  1
  O  O281  1  0.25416443  0.36708200  0.50470268  1
  O  O282  1  0.25816077  0.87507994  0.00764893  1
  O  O283  1  0.25317249  0.87211179  0.51310617  1
  O  O284  1  0.75479711  0.37016529  0.00592470  1
  O  O285  1  0.75654515  0.37015537  0.50553241  1
  O  O286  1  0.75672991  0.86978517  0.00689218  1
  O  O287  1  0.75559478  0.86982397  0.50588330  1
  O  O288  1  0.12568741  0.49276293  0.24326325  1
  O  O289  1  0.12577681  0.49184437  0.74281659  1
  O  O290  1  0.12665848  0.99423502  0.23994865  1
  O  O291  1  0.13127855  0.99657453  0.74127477  1
  O  O292  1  0.62316762  0.49458184  0.24116857  1
  O  O293  1  0.63650457  0.50194797  0.74378375  1
  O  O294  1  0.63226913  0.99616194  0.24622930  1
  O  O295  1  0.63095063  0.99517678  0.74442273  1
  O  O296  1  0.37563104  0.01037066  0.25638739  1
  O  O297  1  0.36728036  -0.00069108  0.75552117  1
  O  O298  1  0.37279461  0.50675227  0.25872096  1
  O  O299  1  0.37472875  0.50528706  0.75701887  1
  O  O300  1  0.87145533  0.00548317  0.25530296  1
  O  O301  1  0.86901794  0.00615446  0.75465783  1
  O  O302  1  0.87403357  0.50746807  0.25678342  1
  O  O303  1  0.86663143  0.50897337  0.74856184  1
  O  O304  1  0.11931290  0.36918572  0.36989075  1
  O  O305  1  0.11973809  0.36875253  0.86876875  1
  O  O306  1  0.12596479  0.86831878  0.36896611  1
  O  O307  1  0.11887656  0.86829128  0.87325884  1
  O  O308  1  0.62284282  0.36949358  0.36847038  1
  O  O309  1  0.62059561  0.37026783  0.87020968  1
  O  O310  1  0.62203014  0.86985712  0.37009341  1
  O  O311  1  0.61572558  0.87656141  0.87061429  1
  O  O312  1  0.37479667  0.12548955  0.13618435  1
  O  O313  1  0.37618005  0.13287993  0.62625006  1
  O  O314  1  0.37278556  0.62543937  0.13663632  1
  O  O315  1  0.37939874  0.62982773  0.62916126  1
  O  O316  1  0.87992024  0.13158173  0.13141552  1
  O  O317  1  0.88022496  0.13009150  0.62993739  1
  O  O318  1  0.88070495  0.63176497  0.13127797  1
  O  O319  1  0.87595610  0.63160840  0.63559306  1
  O  O320  1  0.24990454  0.25602662  0.11698351  1
  O  O321  1  0.25381287  0.25389119  0.61823639  1
  O  O322  1  0.25136620  0.76444371  0.12247988  1
  O  O323  1  0.25815326  0.75593417  0.62550873  1
  O  O324  1  0.75531673  0.25654627  0.11999409  1
  O  O325  1  0.75605939  0.25557296  0.62005925  1
  O  O326  1  0.75672791  0.75738911  0.11943974  1
  O  O327  1  0.75552926  0.75619620  0.61952179  1
  O  O328  1  0.24329271  0.24372568  0.38048194  1
  O  O329  1  0.24459426  0.24445569  0.87853776  1
  O  O330  1  0.24374656  0.74300956  0.37817153  1
  O  O331  1  0.24320967  0.74297820  0.87479734  1
  O  O332  1  0.74340438  0.25002990  0.38247965  1
  O  O333  1  0.75004049  0.24339807  0.88114841  1
  O  O334  1  0.74572399  0.74494498  0.38125349  1
  O  O335  1  0.74971962  0.75290154  0.88910509  1
  O  O336  1  0.00267512  0.12349077  0.00897901  1
  O  O337  1  0.00509779  0.11979465  0.50565457  1
  O  O338  1  0.00536977  0.62567192  0.00673728  1
  O  O339  1  0.00641978  0.61695827  0.50166615  1
  O  O340  1  0.50916926  0.12343353  -0.00005745  1
  O  O341  1  0.50699077  0.11738528  0.50111594  1
  O  O342  1  0.49845611  0.61306341  0.00416777  1
  O  O343  1  0.50847564  0.62217311  0.50681211  1
  O  O344  1  0.49081952  0.37651625  0.49706143  1
  O  O345  1  0.49321428  0.38529642  1.00089608  1
  O  O346  1  0.49992102  0.88124371  0.49270490  1
  O  O347  1  0.49154309  0.87907954  0.99202016  1
  O  O348  1  0.99463794  0.37915322  0.49354221  1
  O  O349  1  0.99271608  0.37492854  0.99351333  1
  O  O350  1  0.99368139  0.88166608  0.49998054  1
  O  O351  1  0.99321551  0.87661362  0.99325443  1
  O  O352  1  0.48673596  0.49783617  0.37715462  1
  O  O353  1  0.49458242  0.50006264  0.88607331  1
  O  O354  1  0.49619849  0.99421485  0.38068759  1
  O  O355  1  0.49319927  0.98909013  0.87490896  1
  O  O356  1  0.99450114  0.49400673  0.38021036  1
  O  O357  1  0.99623788  0.49104080  0.87638527  1
  O  O358  1  0.99444283  0.99842310  0.38219059  1
  O  O359  1  0.99364478  0.99469462  0.87483485  1
  O  O360  1  0.00918047  0.00569337  0.12503729  1
  O  O361  1  0.00501628  0.00504432  0.62010478  1
  O  O362  1  0.00644258  0.50803183  0.12327314  1
  O  O363  1  0.00670814  0.49939767  0.61741695  1
  O  O364  1  0.51015763  0.00398457  0.12207627  1
  O  O365  1  0.50655426  -0.00164978  0.61870079  1
  O  O366  1  0.50778700  0.49975359  0.11738884  1
  O  O367  1  0.50762689  0.50629675  0.62400969  1
  O  O368  1  0.24176511  0.37421490  0.24279928  1
  O  O369  1  0.24298736  0.37416472  0.74274534  1
  O  O370  1  0.24555384  0.87722842  0.24019600  1
  O  O371  1  0.24893562  0.87901887  0.73840010  1
  O  O372  1  0.74226438  0.37761762  0.24289916  1
  O  O373  1  0.75285912  0.38530297  0.74332504  1
  O  O374  1  0.74654643  0.88144275  0.24501553  1
  O  O375  1  0.74588252  0.88167556  0.74498549  1
  O  O376  1  0.25981686  0.12567360  0.25609551  1
  O  O377  1  0.25106668  0.11725394  0.75596616  1
  O  O378  1  0.25874487  0.62220115  0.25710936  1
  O  O379  1  0.25769483  0.62077434  0.75674008  1
  O  O380  1  0.75724813  0.11956406  0.25150049  1
  O  O381  1  0.75556835  0.12036806  0.75401901  1
  O  O382  1  0.75761201  0.62482573  0.25705181  1
  O  O383  1  0.75870139  0.61723761  0.74937654  1
  O  O384  1  0.36996932  0.11975810  0.36734949  1
  O  O385  1  0.36686957  0.11590550  0.87273068  1
  O  O386  1  0.37044356  0.61703248  0.36954629  1
  O  O387  1  0.37023932  0.62044417  0.87013999  1
  O  O388  1  0.87406563  0.11893144  0.36866988  1
  O  O389  1  0.87030168  0.12089151  0.86897595  1
  O  O390  1  0.87063621  0.62076843  0.37047576  1
  O  O391  1  0.87096312  0.62509285  0.86278648  1
  O  O392  1  0.12825161  0.37977356  0.12969436  1
  O  O393  1  0.12975123  0.37810328  0.62928243  1
  O  O394  1  0.13203300  0.88143709  0.12903434  1
  O  O395  1  0.13450688  0.87881430  0.62562272  1
  O  O396  1  0.62917619  0.38372112  0.13020843  1
  O  O397  1  0.63352270  0.38252034  0.62652141  1
  O  O398  1  0.63239002  0.88296215  0.13159825  1
  O  O399  1  0.63101948  0.88004660  0.63008431  1
  O  O400  1  0.11838561  0.25467828  0.25539855  1
  O  O401  1  0.11873492  0.25460883  0.75401826  1
  O  O402  1  0.12101206  0.75395103  0.25550787  1
  O  O403  1  0.11714605  0.74936696  0.75610706  1
  O  O404  1  0.61703147  0.25406937  0.25409092  1
  O  O405  1  0.61446606  0.25086009  0.74953459  1
  O  O406  1  0.62642212  0.75791043  0.25700528  1
  O  O407  1  0.62423690  0.75962666  0.75263525  1
  O  O408  1  0.38232017  0.24130936  0.25095657  1
  O  O409  1  0.38291970  0.24872097  0.74264418  1
  O  O410  1  0.37598278  0.73802056  0.25021202  1
  O  O411  1  0.37720053  0.74255353  0.73844470  1
  O  O412  1  0.87950237  0.24630263  0.24529447  1
  O  O413  1  0.88020574  0.24463379  0.74351436  1
  O  O414  1  0.88095507  0.74575335  0.24539364  1
  O  O415  1  0.87762041  0.74295958  0.74581287  1
  O  O416  1  0.37494092  0.49358103  0.49037563  1
  O  O417  1  0.38203877  0.49506656  0.99629761  1
  O  O418  1  0.38235453  0.99787445  0.49294141  1
  O  O419  1  0.37504802  0.98951483  0.99290543  1
  O  O420  1  0.88001489  0.49487996  0.49504048  1
  O  O421  1  0.87578355  0.49274317  0.99884416  1
  O  O422  1  0.87983988  0.99533682  0.49624223  1
  O  O423  1  0.87568424  0.99469160  0.99363672  1
  O  O424  1  0.12302519  0.00085280  0.01291056  1
  O  O425  1  0.11980606  0.00528688  0.50499232  1
  O  O426  1  0.12173643  0.50728111  0.00626185  1
  O  O427  1  0.11955903  0.50314802  0.50420948  1
  O  O428  1  0.62742950  0.00900209  0.00684968  1
  O  O429  1  0.62086243  0.00456671  0.50452527  1
  O  O430  1  0.61612339  0.49941297  0.00974604  1
  O  O431  1  0.62620663  0.50716836  0.50667488  1
  O  O432  1  0.36661371  0.37307937  0.11834062  1
  O  O433  1  0.36808744  0.36896630  0.61817559  1
  O  O434  1  0.36675858  0.87960613  0.11760634  1
  O  O435  1  0.36778312  0.86472904  0.62447865  1
  O  O436  1  0.86954026  0.37012020  0.12115275  1
  O  O437  1  0.87067016  0.36951116  0.61887752  1
  O  O438  1  0.87120903  0.87060627  0.12142063  1
  O  O439  1  0.86860862  0.87039941  0.61995787  1
  O  O440  1  0.12933733  0.12983050  0.37918878  1
  O  O441  1  0.13073329  0.13112013  0.87519241  1
  O  O442  1  0.13048534  0.62826551  0.37967085  1
  O  O443  1  0.12926579  0.62925377  0.87947632  1
  O  O444  1  0.62735491  0.13260772  0.38173682  1
  O  O445  1  0.63275170  0.12606703  0.88289294  1
  O  O446  1  0.63088250  0.62967294  0.37976922  1
  O  O447  1  0.62897819  0.63168860  0.88197970  1
