# generated using pymatgen
data_V3Zn3O8
_symmetry_space_group_name_H-M   'P 1'
_cell_length_a   17.08602349
_cell_length_b   17.08622940
_cell_length_c   17.08743105
_cell_angle_alpha   90.01213293
_cell_angle_beta   90.00568677
_cell_angle_gamma   89.99145010
_symmetry_Int_Tables_number   1
_chemical_formula_structural   V3Zn3O8
_chemical_formula_sum   'V96 Zn96 O256'
_cell_volume   4988.43124130
_cell_formula_units_Z   32
loop_
 _symmetry_equiv_pos_site_id
 _symmetry_equiv_pos_as_xyz
  1  'x, y, z'
loop_
 _atom_site_type_symbol
 _atom_site_label
 _atom_site_symmetry_multiplicity
 _atom_site_fract_x
 _atom_site_fract_y
 _atom_site_fract_z
 _atom_site_occupancy
  V  V0  1  0.62519502  0.25082254  0.37533164  1
  V  V1  1  0.24929758  0.49993063  0.25011281  1
  V  V2  1  -0.00095952  0.87499971  0.87484271  1
  V  V3  1  -0.00010688  0.87545754  0.37438763  1
  V  V4  1  0.24925986  -0.00020904  0.75017829  1
  V  V5  1  0.24972839  0.87433091  0.12448787  1
  V  V6  1  0.12512522  0.12518646  0.50093294  1
  V  V7  1  0.75054111  0.87408007  0.12517016  1
  V  V8  1  0.62435262  0.87475604  0.25074544  1
  V  V9  1  0.49924704  0.12478196  0.12524097  1
  V  V10  1  0.12479544  0.25026999  0.37463147  1
  V  V11  1  0.00046552  0.49886756  0.49827361  1
  V  V12  1  -0.00112837  -0.00012714  -0.00079424  1
  V  V13  1  0.24978220  0.62568339  0.87513860  1
  V  V14  1  0.00021011  0.50063882  -0.00075228  1
  V  V15  1  0.24944822  -0.00056674  0.25035953  1
  V  V16  1  0.87468455  0.12452202  0.74994275  1
  V  V17  1  0.75008280  0.62554842  0.87474681  1
  V  V18  1  0.87483889  0.62433183  0.24990788  1
  V  V19  1  0.87592306  0.74979836  0.62409315  1
  V  V20  1  0.74922423  -0.00009915  0.24978583  1
  V  V21  1  0.50099821  0.62592551  0.62442530  1
  V  V22  1  0.49916115  0.75000093  0.25012359  1
  V  V23  1  -0.00001382  0.25056611  0.24976749  1
  V  V24  1  0.37593756  0.12590183  0.75046081  1
  V  V25  1  0.37548215  0.62514016  0.75063580  1
  V  V26  1  0.37519885  0.12513055  0.25017428  1
  V  V27  1  0.87421970  0.50040024  0.87455184  1
  V  V28  1  0.87455605  0.74928879  0.12491779  1
  V  V29  1  0.75066432  0.37620232  0.62538561  1
  V  V30  1  0.37499872  0.00017820  0.37637740  1
  V  V31  1  0.25092071  0.25039144  0.50017628  1
  V  V32  1  0.87382664  -0.00077641  0.87418620  1
  V  V33  1  0.24997332  0.12516703  0.87554470  1
  V  V34  1  0.75036560  0.62459359  0.37516884  1
  V  V35  1  0.50036346  0.50063785  0.50031970  1
  V  V36  1  0.75005687  0.50014350  0.24958560  1
  V  V37  1  0.37424904  0.62415173  0.25027229  1
  V  V38  1  0.00110527  0.62491745  0.62556447  1
  V  V39  1  0.62485953  0.37493133  0.25091884  1
  V  V40  1  0.87403187  0.37432813  -0.00077220  1
  V  V41  1  0.62558330  0.12428273  0.50094129  1
  V  V42  1  0.25053878  0.50012328  0.74909702  1
  V  V43  1  0.37498215  0.00028013  0.87516899  1
  V  V44  1  0.74948283  0.74880965  0.49918438  1
  V  V45  1  0.75030629  0.12573537  0.37457320  1
  V  V46  1  0.74932225  0.24932251  -0.00056582  1
  V  V47  1  0.00028231  0.37454017  0.87402046  1
  V  V48  1  0.75086804  0.50053007  0.75016649  1
  V  V49  1  0.50054520  0.37467001  0.37631820  1
  V  V50  1  0.49992095  0.00045107  0.00092996  1
  V  V51  1  -0.00028354  0.12426438  0.12385738  1
  V  V52  1  0.37437398  0.24904655  0.12575483  1
  V  V53  1  0.37573125  0.37459251  0.50024149  1
  V  V54  1  0.75065519  0.25071121  0.50016996  1
  V  V55  1  0.12459055  0.37466575  0.24956853  1
  V  V56  1  0.87603195  0.37565391  0.49993702  1
  V  V57  1  0.62353823  0.37394402  0.75157875  1
  V  V58  1  0.12421015  0.87507817  0.24975910  1
  V  V59  1  0.12687905  0.37594443  0.75023160  1
  V  V60  1  0.12484544  0.87560632  0.74849472  1
  V  V61  1  0.50001321  0.75083479  0.75120649  1
  V  V62  1  0.12438409  0.75026655  0.87471310  1
  V  V63  1  0.12648727  0.62540596  0.49920583  1
  V  V64  1  0.62455437  0.12515188  0.00024257  1
  V  V65  1  0.25011362  0.62497928  0.37438154  1
  V  V66  1  0.87584670  0.00039919  0.37438567  1
  V  V67  1  0.62414542  0.49884482  0.12554606  1
  V  V68  1  0.37480867  0.87508700  0.49987952  1
  V  V69  1  0.37482243  0.37545604  0.00016063  1
  V  V70  1  0.37377732  0.87469885  0.00087512  1
  V  V71  1  0.12399661  0.12459968  -0.00044347  1
  V  V72  1  0.49947435  0.62344419  0.12591423  1
  V  V73  1  0.74943745  0.12397216  0.87513838  1
  V  V74  1  0.62491684  0.75023840  0.87544606  1
  V  V75  1  0.74975772  0.74957254  -0.00026233  1
  V  V76  1  0.74877611  0.87641740  0.62497788  1
  V  V77  1  0.37681657  0.24911872  0.62660446  1
  V  V78  1  0.00068180  0.00061197  0.49907739  1
  V  V79  1  0.87455267  0.12588649  0.24911128  1
  V  V80  1  0.24871198  0.37517059  0.12566632  1
  V  V81  1  -0.00100236  0.74995998  0.25018049  1
  V  V82  1  0.12432627  0.62478229  0.00091923  1
  V  V83  1  0.24980747  0.25006088  0.00023775  1
  V  V84  1  0.87406308  0.25054290  0.12389677  1
  V  V85  1  0.62529844  0.62504884  0.50013914  1
  V  V86  1  0.37465120  0.75081094  0.62447470  1
  V  V87  1  0.00028427  0.12495581  0.62496991  1
  V  V88  1  0.12481247  0.25057119  0.87449336  1
  V  V89  1  0.25097602  0.74982799  0.49899966  1
  V  V90  1  0.37635547  0.49999795  0.87584015  1
  V  V91  1  0.87616754  0.24936727  0.62552343  1
  V  V92  1  0.25004577  0.12478795  0.37518333  1
  V  V93  1  0.49936956  0.49968792  0.00100233  1
  V  V94  1  0.50113079  0.00046030  0.50202971  1
  V  V95  1  0.49968648  0.87420116  0.87568099  1
  Zn  Zn96  1  0.37430241  0.74860962  0.12349661  1
  Zn  Zn97  1  0.74911428  0.37502777  0.12458592  1
  Zn  Zn98  1  0.25007692  0.37727337  0.62415665  1
  Zn  Zn99  1  0.62568810  0.50089633  0.62593989  1
  Zn  Zn100  1  0.62528299  0.74954928  0.37541352  1
  Zn  Zn101  1  0.50465830  0.12483975  0.62945722  1
  Zn  Zn102  1  0.00005426  0.62400558  0.12640381  1
  Zn  Zn103  1  0.74693304  -0.00053986  0.75004513  1
  Zn  Zn104  1  0.50086419  0.24908707  0.75313802  1
  Zn  Zn105  1  0.25087150  0.74972920  0.00032354  1
  Zn  Zn106  1  0.87587766  0.62473371  0.75037793  1
  Zn  Zn107  1  0.12824677  0.49851302  0.62476720  1
  Zn  Zn108  1  0.12300771  0.00002532  0.12445524  1
  Zn  Zn109  1  0.12310868  0.50030539  0.12563563  1
  Zn  Zn110  1  0.87465876  0.87419447  -0.00100423  1
  Zn  Zn111  1  0.87553356  0.87594594  0.49868847  1
  Zn  Zn112  1  0.12561830  0.00050887  0.62439645  1
  Zn  Zn113  1  0.24872907  0.87628822  0.62343248  1
  Zn  Zn114  1  0.12460691  0.75052813  0.37477063  1
  Zn  Zn115  1  0.62209488  0.24903692  0.87521299  1
  Zn  Zn116  1  0.62483634  0.00113110  0.12553357  1
  Zn  Zn117  1  -0.00082736  0.37464573  0.37412084  1
  Zn  Zn118  1  0.49990806  0.24962573  0.25108683  1
  Zn  Zn119  1  0.50051432  0.37386203  0.87546574  1
  Zn  Zn120  1  0.62680739  0.00131922  0.62677257  1
  Zn  Zn121  1  0.50038260  0.87456226  0.37521610  1
  Zn  Zn122  1  0.62444986  0.87756344  0.74978763  1
  Zn  Zn123  1  -0.00026555  0.74955848  0.74988182  1
  Zn  Zn124  1  0.00094604  0.25006336  0.74975880  1
  Zn  Zn125  1  0.62416783  0.62363496  0.00031293  1
  Zn  Zn126  1  0.37470028  0.49863515  0.37556361  1
  Zn  Zn127  1  0.87516859  0.49798778  0.37290192  1
  Zn  Zn128  1  0.18668339  0.18721213  0.18684412  1
  Zn  Zn129  1  0.18860764  0.18854475  0.68736858  1
  Zn  Zn130  1  0.18615954  0.68904094  0.18807438  1
  Zn  Zn131  1  0.18782644  0.68843309  0.68649345  1
  Zn  Zn132  1  0.68618931  0.18882030  0.18637707  1
  Zn  Zn133  1  0.68893868  0.18786753  0.68777153  1
  Zn  Zn134  1  0.68657134  0.68618676  0.18683977  1
  Zn  Zn135  1  0.68681444  0.68852178  0.68877896  1
  Zn  Zn136  1  0.31276438  0.31272245  0.31296711  1
  Zn  Zn137  1  0.31230342  0.31377303  0.81295558  1
  Zn  Zn138  1  0.31327821  0.81227526  0.31350106  1
  Zn  Zn139  1  0.31120151  0.81219130  0.81332563  1
  Zn  Zn140  1  0.81277798  0.31492300  0.31305407  1
  Zn  Zn141  1  0.81111522  0.31073936  0.81232501  1
  Zn  Zn142  1  0.81312087  0.81177171  0.31284276  1
  Zn  Zn143  1  0.81247808  0.81202141  0.81005442  1
  Zn  Zn144  1  0.18761303  0.43719336  0.43632327  1
  Zn  Zn145  1  0.18843625  0.43888598  0.93638577  1
  Zn  Zn146  1  0.18658222  0.93667427  0.43705159  1
  Zn  Zn147  1  0.18602079  0.93822645  0.93736410  1
  Zn  Zn148  1  0.68736250  0.43957963  0.43765001  1
  Zn  Zn149  1  0.68716546  0.43747221  0.93759031  1
  Zn  Zn150  1  0.68828993  0.93640537  0.43793853  1
  Zn  Zn151  1  0.68644430  0.93724906  0.93840765  1
  Zn  Zn152  1  0.31215419  0.06105742  0.06304493  1
  Zn  Zn153  1  0.31238748  0.06262957  0.56495768  1
  Zn  Zn154  1  0.31142980  0.56156392  0.06438018  1
  Zn  Zn155  1  0.31422133  0.56245667  0.56266093  1
  Zn  Zn156  1  0.81195369  0.06100238  0.06182291  1
  Zn  Zn157  1  0.81431213  0.06231512  0.56151979  1
  Zn  Zn158  1  0.81133003  0.56312224  0.06286131  1
  Zn  Zn159  1  0.81337271  0.56176403  0.56248331  1
  Zn  Zn160  1  0.43697145  0.43665733  0.18914410  1
  Zn  Zn161  1  0.43840520  0.43794238  0.68603740  1
  Zn  Zn162  1  0.43637818  0.93839741  0.18675593  1
  Zn  Zn163  1  0.43627559  0.93673871  0.68742775  1
  Zn  Zn164  1  0.93788251  0.43811806  0.18480957  1
  Zn  Zn165  1  0.93829756  0.43735716  0.68779014  1
  Zn  Zn166  1  0.93663765  0.93695358  0.18668973  1
  Zn  Zn167  1  0.93696188  0.93896426  0.68707394  1
  Zn  Zn168  1  0.06317376  0.06254241  0.31180894  1
  Zn  Zn169  1  0.06085963  0.06206531  0.81199752  1
  Zn  Zn170  1  0.06377036  0.56344965  0.31283840  1
  Zn  Zn171  1  0.06309334  0.56120532  0.81245763  1
  Zn  Zn172  1  0.56204293  0.06270861  0.31393256  1
  Zn  Zn173  1  0.56372184  0.06138667  0.81161573  1
  Zn  Zn174  1  0.56324966  0.56168849  0.31433763  1
  Zn  Zn175  1  0.56392790  0.56176942  0.81338021  1
  Zn  Zn176  1  0.43917965  0.18680125  0.43883762  1
  Zn  Zn177  1  0.43938041  0.18957854  0.93675372  1
  Zn  Zn178  1  0.43694554  0.68686130  0.43545800  1
  Zn  Zn179  1  0.43738277  0.68782830  0.93971873  1
  Zn  Zn180  1  0.93816496  0.18798020  0.43734828  1
  Zn  Zn181  1  0.93696576  0.18751871  0.93582513  1
  Zn  Zn182  1  0.93652482  0.68719955  0.43592871  1
  Zn  Zn183  1  0.93713661  0.68838447  0.93727454  1
  Zn  Zn184  1  0.06179840  0.31262640  0.06214556  1
  Zn  Zn185  1  0.06386695  0.31260666  0.56485445  1
  Zn  Zn186  1  0.06170024  0.81182087  0.06273771  1
  Zn  Zn187  1  0.06350735  0.81279736  0.56022512  1
  Zn  Zn188  1  0.56174114  0.31182464  0.06351032  1
  Zn  Zn189  1  0.56319699  0.31323361  0.56436777  1
  Zn  Zn190  1  0.56325730  0.81186753  0.06313188  1
  Zn  Zn191  1  0.56326985  0.81245666  0.56236346  1
  O  O192  1  0.11805096  0.12395443  0.11769381  1
  O  O193  1  0.11881562  0.12521348  0.61857772  1
  O  O194  1  0.12416470  0.62470166  0.11229337  1
  O  O195  1  0.11535046  0.62467411  0.61859402  1
  O  O196  1  0.61746678  0.12348560  0.11921708  1
  O  O197  1  0.62491491  0.12319679  0.61599079  1
  O  O198  1  0.61711531  0.61680056  0.12453939  1
  O  O199  1  0.61836215  0.62519886  0.61850468  1
  O  O200  1  0.38218288  0.37410904  0.38267088  1
  O  O201  1  0.37458118  0.38279819  0.88278224  1
  O  O202  1  0.37689997  0.88279831  0.38135426  1
  O  O203  1  0.37930476  0.88068309  0.88085480  1
  O  O204  1  0.87916815  0.37719875  0.38392851  1
  O  O205  1  0.88019656  0.37995285  0.87990502  1
  O  O206  1  0.88131621  0.88283921  0.37495863  1
  O  O207  1  0.88141914  0.88036583  0.87451758  1
  O  O208  1  0.25533737  0.00600103  0.37018565  1
  O  O209  1  0.25574031  0.00584268  0.87054500  1
  O  O210  1  0.25154058  0.50685559  0.36811540  1
  O  O211  1  0.25676159  0.50684794  0.86910547  1
  O  O212  1  0.75564933  0.00600218  0.36951758  1
  O  O213  1  0.75674261  0.00582209  0.87544248  1
  O  O214  1  0.75160659  0.50698010  0.36794672  1
  O  O215  1  0.75575221  0.50576576  0.87040159  1
  O  O216  1  0.24665131  0.49236924  0.13185081  1
  O  O217  1  0.24945908  0.49964588  0.63407103  1
  O  O218  1  0.24855958  0.99002176  0.13117383  1
  O  O219  1  0.24662143  0.99751397  0.63412803  1
  O  O220  1  0.74241926  0.49865351  0.13171808  1
  O  O221  1  0.75040852  0.49353046  0.63179710  1
  O  O222  1  0.74890310  0.99325192  0.13270468  1
  O  O223  1  0.75221671  0.98716095  0.62297662  1
  O  O224  1  0.00598788  0.36807818  0.25011381  1
  O  O225  1  0.00845268  0.37431551  0.75655022  1
  O  O226  1  0.00460567  0.87072533  0.25472332  1
  O  O227  1  0.01006327  0.87500855  0.75524650  1
  O  O228  1  0.50637682  0.37305925  0.25795430  1
  O  O229  1  0.51216037  0.37558803  0.74992382  1
  O  O230  1  0.50708989  0.86790606  0.24935645  1
  O  O231  1  0.49823861  0.86810505  0.75791726  1
  O  O232  1  0.49283556  0.12555533  0.24441852  1
  O  O233  1  0.49114814  0.12683604  0.74859899  1
  O  O234  1  0.49537068  0.63161021  0.24627751  1
  O  O235  1  0.49444413  0.63058349  0.74530293  1
  O  O236  1  0.99428378  0.13036771  0.24407677  1
  O  O237  1  0.99347422  0.12669850  0.74330570  1
  O  O238  1  0.99380821  0.63130332  0.24964697  1
  O  O239  1  1.00019743  0.62570999  0.73698684  1
  O  O240  1  0.36798044  0.25484232  0.00592797  1
  O  O241  1  0.37056730  0.25336153  0.50769095  1
  O  O242  1  0.37156588  0.75842296  0.00351597  1
  O  O243  1  0.37117257  0.75508498  0.50457566  1
  O  O244  1  0.86991273  0.25453385  0.00452191  1
  O  O245  1  0.86987565  0.25516328  0.50523393  1
  O  O246  1  0.86803539  0.75147414  0.00661936  1
  O  O247  1  0.86956549  0.75011976  0.51016374  1
  O  O248  1  0.13089653  0.24489989  0.49473966  1
  O  O249  1  0.13057856  0.24474517  0.99408913  1
  O  O250  1  0.13249416  0.74348432  0.49806437  1
  O  O251  1  0.12580984  0.74046319  0.99354278  1
  O  O252  1  0.63162286  0.24526536  0.49523185  1
  O  O253  1  0.63166784  0.24325331  1.00013826  1
  O  O254  1  0.63117585  0.74318233  0.49746966  1
  O  O255  1  0.63108872  0.74771890  0.99373840  1
  O  O256  1  0.49138012  0.24253080  0.12687375  1
  O  O257  1  0.48729760  0.24789911  0.62607908  1
  O  O258  1  0.49964280  0.74387192  0.13613671  1
  O  O259  1  0.49408856  0.74536267  0.63080170  1
  O  O260  1  0.99380525  0.24362192  0.12955344  1
  O  O261  1  0.99326529  0.24287339  0.62578716  1
  O  O262  1  0.99255637  0.74874544  0.13198552  1
  O  O263  1  0.99235917  0.74130904  0.62242632  1
  O  O264  1  0.00712907  0.24990534  0.36755631  1
  O  O265  1  0.00702002  0.25677652  0.87393853  1
  O  O266  1  -0.00018430  0.75748366  0.36843779  1
  O  O267  1  0.00601311  0.75625384  0.87161123  1
  O  O268  1  0.50779276  0.25595877  0.37535757  1
  O  O269  1  0.50323850  0.25618011  0.87145432  1
  O  O270  1  0.50212002  0.75165277  0.36150961  1
  O  O271  1  0.50427248  0.75479681  0.87078523  1
  O  O272  1  0.24532574  0.13000446  0.49414910  1
  O  O273  1  0.24465705  0.12996166  0.99512248  1
  O  O274  1  0.24629197  0.62957400  0.49468986  1
  O  O275  1  0.24063499  0.62482106  0.99412941  1
  O  O276  1  0.74613341  0.13086147  0.49366885  1
  O  O277  1  0.74456484  0.12938975  0.99542679  1
  O  O278  1  0.74537873  0.62905814  0.49573875  1
  O  O279  1  0.74780902  0.63145467  0.99255471  1
  O  O280  1  0.25464434  0.36969895  0.00527986  1
  O  O281  1  0.25678855  0.36800298  0.50063832  1
  O  O282  1  0.25384958  0.87589333  0.00881710  1
  O  O283  1  0.25642236  0.86875780  0.50046916  1
  O  O284  1  0.75699267  0.36816105  0.00057140  1
  O  O285  1  0.75531983  0.37033455  0.50531285  1
  O  O286  1  0.75070625  0.86786916  0.00757453  1
  O  O287  1  0.75271981  0.86777356  0.50731731  1
  O  O288  1  0.13077468  0.49305927  0.24868187  1
  O  O289  1  0.13250224  0.49329925  0.74998015  1
  O  O290  1  0.13192718  0.99398122  0.24791615  1
  O  O291  1  0.13052125  0.99060141  0.75120753  1
  O  O292  1  0.62983435  0.49431740  0.24516428  1
  O  O293  1  0.63228638  0.49129698  0.74838605  1
  O  O294  1  0.63009437  0.99123742  0.24971241  1
  O  O295  1  0.62830467  0.99538523  0.74447932  1
  O  O296  1  0.36918086  0.00547747  0.25651564  1
  O  O297  1  0.36946977  0.00524106  0.75634217  1
  O  O298  1  0.36727515  0.50596690  0.25197371  1
  O  O299  1  0.37104114  0.50618828  0.75552396  1
  O  O300  1  0.86931739  0.00683566  0.25498645  1
  O  O301  1  0.87277456  0.00699212  0.75673105  1
  O  O302  1  0.86897264  0.50587555  0.24991640  1
  O  O303  1  0.86892921  0.50039976  0.75692384  1
  O  O304  1  0.12325167  0.36700415  0.36802689  1
  O  O305  1  0.12051224  0.37006185  0.87013888  1
  O  O306  1  0.11796274  0.87379669  0.36732011  1
  O  O307  1  0.11977749  0.87064265  0.86720694  1
  O  O308  1  0.62032826  0.36960685  0.37113484  1
  O  O309  1  0.62529061  0.37367938  0.86310944  1
  O  O310  1  0.62409008  0.87258616  0.36179569  1
  O  O311  1  0.61698715  0.86806500  0.87470530  1
  O  O312  1  0.37856853  0.12947446  0.13038161  1
  O  O313  1  0.37572447  0.13441708  0.63140033  1
  O  O314  1  0.38084669  0.62640969  0.13251119  1
  O  O315  1  0.38154287  0.63169508  0.63100178  1
  O  O316  1  0.88006142  0.13057307  0.13015797  1
  O  O317  1  0.88000362  0.13043667  0.62949446  1
  O  O318  1  0.87577327  0.63193440  0.13198270  1
  O  O319  1  0.88437380  0.63310096  0.62452381  1
  O  O320  1  0.25478583  0.25461577  0.11918387  1
  O  O321  1  0.26130736  0.25050118  0.61852690  1
  O  O322  1  0.25118443  0.76367403  0.12466967  1
  O  O323  1  0.25772663  0.75066447  0.61753560  1
  O  O324  1  0.75729819  0.25062459  0.11785476  1
  O  O325  1  0.75712170  0.25600530  0.61835816  1
  O  O326  1  0.75448360  0.75427714  0.12029647  1
  O  O327  1  0.75808017  0.75527318  0.61959311  1
  O  O328  1  0.24484064  0.24355749  0.38031556  1
  O  O329  1  0.24525246  0.24436788  0.88166270  1
  O  O330  1  0.24934476  0.74290489  0.38128350  1
  O  O331  1  0.24269703  0.74308314  0.87695506  1
  O  O332  1  0.74538470  0.24487381  0.38095806  1
  O  O333  1  0.74908723  0.24150038  0.88266094  1
  O  O334  1  0.74986365  0.74296089  0.38170168  1
  O  O335  1  0.74540796  0.74567078  0.87948530  1
  O  O336  1  0.00472663  0.12047140  0.00439698  1
  O  O337  1  0.00585720  0.12048920  0.50450245  1
  O  O338  1  0.00991214  0.61954586  -0.00145282  1
  O  O339  1  0.00466876  0.61806967  0.50671373  1
  O  O340  1  0.50387719  0.11954996  0.00544546  1
  O  O341  1  0.50642420  0.11529727  0.50117611  1
  O  O342  1  0.49990779  0.61769482  0.00808993  1
  O  O343  1  0.50473649  0.62116514  0.50447864  1
  O  O344  1  0.49612162  0.38041095  0.49584505  1
  O  O345  1  0.49160306  0.38205791  1.00111687  1
  O  O346  1  0.49491927  0.88335531  0.49744951  1
  O  O347  1  0.49390830  0.88017407  0.99618692  1
  O  O348  1  0.99602161  0.38453472  0.50141948  1
  O  O349  1  0.99478021  0.37999054  0.99329576  1
  O  O350  1  0.99928812  0.88211437  0.49272407  1
  O  O351  1  0.99932796  0.88146758  0.99255684  1
  O  O352  1  0.49848295  0.49286612  0.38264885  1
  O  O353  1  0.49311826  0.49911108  0.88252156  1
  O  O354  1  0.49374110  0.99957040  0.38597624  1
  O  O355  1  0.49338128  0.99403359  0.88148630  1
  O  O356  1  0.99903011  0.49946372  0.38830349  1
  O  O357  1  0.99396996  0.49437748  0.87988157  1
  O  O358  1  0.99465194  0.99608135  0.37867641  1
  O  O359  1  0.99356834  0.99509814  0.88033076  1
  O  O360  1  -0.00037406  0.00680118  0.11815629  1
  O  O361  1  0.00121839  0.00726153  0.61711847  1
  O  O362  1  0.00353132  0.50328400  0.11492485  1
  O  O363  1  0.00039088  0.50949445  0.61556368  1
  O  O364  1  0.49970062  0.00698875  0.11828694  1
  O  O365  1  0.49979732  0.00083955  0.61178514  1
  O  O366  1  0.50425256  0.50464037  0.12112383  1
  O  O367  1  0.50118973  0.50892762  0.61827178  1
  O  O368  1  0.24453872  0.37930877  0.24524708  1
  O  O369  1  0.24369824  0.38274677  0.75056355  1
  O  O370  1  0.24569298  0.87991891  0.24342412  1
  O  O371  1  0.24004295  0.88087380  0.75107978  1
  O  O372  1  0.74302680  0.38183838  0.24899385  1
  O  O373  1  0.74352191  0.38024274  0.74508147  1
  O  O374  1  0.74214632  0.87904926  0.24571409  1
  O  O375  1  0.74908070  0.87511851  0.73677474  1
  O  O376  1  0.25477852  0.11942381  0.25523291  1
  O  O377  1  0.25487636  0.11986096  0.75720316  1
  O  O378  1  0.25400765  0.62055632  0.25398677  1
  O  O379  1  0.25560592  0.62061770  0.75553907  1
  O  O380  1  0.75482567  0.12030752  0.25516926  1
  O  O381  1  0.75722296  0.12345926  0.75654203  1
  O  O382  1  0.75463786  0.61988196  0.25526272  1
  O  O383  1  0.75151351  0.61852700  0.75622099  1
  O  O384  1  0.36897849  0.12035407  0.37062718  1
  O  O385  1  0.36863986  0.11992856  0.87096519  1
  O  O386  1  0.36790322  0.62267084  0.36765699  1
  O  O387  1  0.36981340  0.62003634  0.86997177  1
  O  O388  1  0.86950423  0.12110167  0.36831685  1
  O  O389  1  0.86988589  0.11930257  0.86965844  1
  O  O390  1  0.86793918  0.62253075  0.36792433  1
  O  O391  1  0.86923534  0.61859462  0.87263396  1
  O  O392  1  0.13180177  0.37438031  0.13119055  1
  O  O393  1  0.12887147  0.37666936  0.63473218  1
  O  O394  1  0.13351942  0.87727089  0.13023922  1
  O  O395  1  0.12562601  0.87627254  0.63672189  1
  O  O396  1  0.62552432  0.38097787  0.13289899  1
  O  O397  1  0.63270588  0.37669931  0.63364875  1
  O  O398  1  0.63049787  0.87625341  0.13650464  1
  O  O399  1  0.63754928  0.87489929  0.62501107  1
  O  O400  1  0.11986909  0.25415882  0.25500292  1
  O  O401  1  0.12557063  0.25754648  0.75769218  1
  O  O402  1  0.11718532  0.75727548  0.25162683  1
  O  O403  1  0.12443419  0.75978190  0.75533314  1
  O  O404  1  0.62413441  0.25627134  0.25782408  1
  O  O405  1  0.62500089  0.26157838  0.75040936  1
  O  O406  1  0.61662274  0.75792102  0.25038811  1
  O  O407  1  0.61701792  0.75261808  0.75727726  1
  O  O408  1  0.37495166  0.24262318  0.24358324  1
  O  O409  1  0.37335089  0.24528268  0.74139103  1
  O  O410  1  0.38456149  0.74486775  0.24795207  1
  O  O411  1  0.37977549  0.74416256  0.74577209  1
  O  O412  1  0.87960669  0.24496215  0.24463997  1
  O  O413  1  0.87682843  0.24357934  0.74294396  1
  O  O414  1  0.87936305  0.74399869  0.24439887  1
  O  O415  1  0.87808121  0.74702874  0.73579319  1
  O  O416  1  0.38217305  0.49277973  0.49905341  1
  O  O417  1  0.37905147  0.49477880  0.99572958  1
  O  O418  1  0.38185566  0.99622256  0.49584413  1
  O  O419  1  0.37983996  0.99489952  0.99396847  1
  O  O420  1  0.88506129  0.49448932  0.49967843  1
  O  O421  1  0.87968327  0.49450381  0.99403168  1
  O  O422  1  0.88292475  1.00042286  0.49102965  1
  O  O423  1  0.88145288  0.99811728  0.99254338  1
  O  O424  1  0.11730291  0.00779665  0.00004637  1
  O  O425  1  0.11904226  0.00781436  0.50022512  1
  O  O426  1  0.11944802  0.50989715  -0.00202759  1
  O  O427  1  0.11655055  0.50547025  0.50233965  1
  O  O428  1  0.61724418  0.00636833  0.00284287  1
  O  O429  1  0.61630738  0.00508779  0.49929359  1
  O  O430  1  0.61770623  0.49994641  0.00715546  1
  O  O431  1  0.61861448  0.50704357  0.50335479  1
  O  O432  1  0.36820164  0.36893907  0.12036728  1
  O  O433  1  0.37377044  0.36512332  0.61950348  1
  O  O434  1  0.36488053  0.87518237  0.11994285  1
  O  O435  1  0.37274135  0.86787171  0.61807422  1
  O  O436  1  0.87378208  0.36770184  0.11680048  1
  O  O437  1  0.87057269  0.36922637  0.61979941  1
  O  O438  1  0.86750082  0.86719497  0.12480074  1
  O  O439  1  0.86905225  0.86549603  0.62227192  1
  O  O440  1  0.13100760  0.13068265  0.38015782  1
  O  O441  1  0.13032547  0.13041139  0.87977253  1
  O  O442  1  0.13227751  0.62764087  0.38187228  1
  O  O443  1  0.12948995  0.62978079  0.88187480  1
  O  O444  1  0.63156684  0.13067325  0.38041869  1
  O  O445  1  0.63156192  0.12554563  0.88262054  1
  O  O446  1  0.63253615  0.62663107  0.38190190  1
  O  O447  1  0.63164131  0.63214985  0.87702687  1
