# generated using pymatgen
data_V3Zn3O8
_symmetry_space_group_name_H-M   'P 1'
_cell_length_a   17.08979677
_cell_length_b   17.09103515
_cell_length_c   17.09156924
_cell_angle_alpha   90.00022042
_cell_angle_beta   90.01331937
_cell_angle_gamma   90.00696444
_symmetry_Int_Tables_number   1
_chemical_formula_structural   V3Zn3O8
_chemical_formula_sum   'V96 Zn96 O256'
_cell_volume   4992.14497953
_cell_formula_units_Z   32
loop_
 _symmetry_equiv_pos_site_id
 _symmetry_equiv_pos_as_xyz
  1  'x, y, z'
loop_
 _atom_site_type_symbol
 _atom_site_label
 _atom_site_symmetry_multiplicity
 _atom_site_fract_x
 _atom_site_fract_y
 _atom_site_fract_z
 _atom_site_occupancy
  V  V0  1  0.12481105  0.25051811  0.87626854  1
  V  V1  1  0.37354566  -0.00031866  0.87591740  1
  V  V2  1  0.74982853  0.00039391  0.75048082  1
  V  V3  1  -0.00081516  0.62541128  0.12581765  1
  V  V4  1  0.87458041  0.37485878  0.00003321  1
  V  V5  1  0.00024317  0.50027994  0.50048777  1
  V  V6  1  0.62576312  0.00039532  0.62527446  1
  V  V7  1  0.00002661  0.25039141  0.74980032  1
  V  V8  1  0.50050119  0.87491074  0.37548931  1
  V  V9  1  0.62468380  0.37331178  0.24931328  1
  V  V10  1  0.49866882  0.87435859  0.87405616  1
  V  V11  1  0.25009828  0.87416097  0.12587046  1
  V  V12  1  0.24929433  0.12496768  0.87531865  1
  V  V13  1  0.74983748  -0.00055780  0.25087990  1
  V  V14  1  0.62524026  0.25050942  0.87347183  1
  V  V15  1  0.50027537  0.37366265  0.37426222  1
  V  V16  1  0.25000373  0.62439624  0.87519414  1
  V  V17  1  0.12427758  0.12429620  0.00094383  1
  V  V18  1  0.74824194  0.62644669  0.87410008  1
  V  V19  1  0.37394686  0.37365352  0.49944524  1
  V  V20  1  0.62479109  0.74992900  0.87472466  1
  V  V21  1  0.50061075  0.49976814  0.49821372  1
  V  V22  1  0.25025451  0.87490283  0.62496452  1
  V  V23  1  0.87577214  0.25096532  0.62521403  1
  V  V24  1  0.75019248  0.75034724  0.50047704  1
  V  V25  1  0.00009841  0.75038385  0.75121100  1
  V  V26  1  0.87573371  -0.00000519  0.37581903  1
  V  V27  1  0.25107041  0.62437639  0.37397639  1
  V  V28  1  0.62529902  0.25038750  0.37429355  1
  V  V29  1  0.25167935  0.37451026  0.62448121  1
  V  V30  1  0.00095328  0.12617590  0.62555713  1
  V  V31  1  0.37496300  0.62537343  0.74816667  1
  V  V32  1  0.50056600  0.62417691  0.12445077  1
  V  V33  1  0.75097019  0.62496000  0.37502714  1
  V  V34  1  0.37424414  0.87442214  -0.00019237  1
  V  V35  1  0.24974164  0.37433432  0.12430572  1
  V  V36  1  0.75098796  0.25073049  0.50055750  1
  V  V37  1  0.25048473  0.50046816  0.75091710  1
  V  V38  1  0.62346103  0.12386547  -0.00002441  1
  V  V39  1  0.12466339  -0.00021528  0.12470592  1
  V  V40  1  0.12512891  0.49961174  0.12555300  1
  V  V41  1  0.12535381  0.37495667  0.25155273  1
  V  V42  1  0.87476607  0.24977722  0.12535293  1
  V  V43  1  0.87455485  0.62509171  0.74986641  1
  V  V44  1  0.74978892  0.50021384  0.74863184  1
  V  V45  1  0.75032903  0.37469629  0.62379529  1
  V  V46  1  0.24855811  -0.00039868  0.75005545  1
  V  V47  1  0.87384529  0.74965230  0.12464020  1
  V  V48  1  0.49930992  0.37674421  0.87481827  1
  V  V49  1  0.75057551  0.12528275  0.37560165  1
  V  V50  1  0.25166775  -0.00021363  0.25102558  1
  V  V51  1  0.12472657  0.87471402  0.25089807  1
  V  V52  1  0.49895754  -0.00034822  0.49935637  1
  V  V53  1  -0.00118623  0.50040792  0.00065867  1
  V  V54  1  0.24989028  0.75037669  0.50011736  1
  V  V55  1  0.62396414  0.62465813  0.49955720  1
  V  V56  1  -0.00067488  -0.00057477  0.00031522  1
  V  V57  1  0.25041233  0.12560237  0.37553688  1
  V  V58  1  0.00104326  0.87493828  0.37558588  1
  V  V59  1  0.75016135  0.87627000  0.62550736  1
  V  V60  1  0.75006064  0.87426100  0.12424954  1
  V  V61  1  0.00065689  0.24988241  0.25173861  1
  V  V62  1  0.87551560  0.75033924  0.62529325  1
  V  V63  1  0.24971374  0.74912821  0.00075540  1
  V  V64  1  0.62566629  0.87457616  0.25015945  1
  V  V65  1  0.62490931  0.37464807  0.74903125  1
  V  V66  1  0.37713794  0.24830951  0.12555597  1
  V  V67  1  0.00053854  0.75091557  0.25127495  1
  V  V68  1  0.62540469  0.12511328  0.50041499  1
  V  V69  1  0.12341833  0.75007707  0.87570366  1
  V  V70  1  0.87481499  -0.00005616  0.87595213  1
  V  V71  1  0.24994780  0.25041931  0.00074787  1
  V  V72  1  0.75011952  0.24924149  -0.00086434  1
  V  V73  1  0.87556697  0.12526176  0.25026913  1
  V  V74  1  0.37666477  0.12648615  0.74808856  1
  V  V75  1  0.49793873  0.75059771  0.74886999  1
  V  V76  1  0.37628385  0.74806312  0.12536647  1
  V  V77  1  0.62485453  0.50064939  0.62299634  1
  V  V78  1  0.87606138  0.87533266  0.50071790  1
  V  V79  1  0.87615203  0.49902660  0.37502936  1
  V  V80  1  -0.00001307  0.37527673  0.87557631  1
  V  V81  1  0.49984878  0.00093851  0.00063408  1
  V  V82  1  0.00074629  0.62541186  0.62575516  1
  V  V83  1  0.87387503  0.50053002  0.87459268  1
  V  V84  1  0.12454576  0.62493438  0.00105465  1
  V  V85  1  -0.00089364  0.87483474  0.87609772  1
  V  V86  1  0.00098167  0.00146374  0.50182589  1
  V  V87  1  0.12619844  0.37566061  0.75079225  1
  V  V88  1  0.74922339  0.37542921  0.12468536  1
  V  V89  1  0.75042303  0.12413625  0.87473041  1
  V  V90  1  0.62393445  0.50029238  0.12316264  1
  V  V91  1  0.49991574  0.74869198  0.24942320  1
  V  V92  1  0.12471503  0.50067862  0.62577408  1
  V  V93  1  0.87566476  0.62482824  0.25055366  1
  V  V94  1  0.62523642  0.74884214  0.37504524  1
  V  V95  1  0.12439811  0.00195922  0.62538221  1
  Zn  Zn96  1  0.37570187  -0.00062098  0.37322980  1
  Zn  Zn97  1  0.87546164  0.37466549  0.49899396  1
  Zn  Zn98  1  0.62323759  0.00121425  0.12537832  1
  Zn  Zn99  1  0.62319439  0.87606635  0.74905206  1
  Zn  Zn100  1  0.37477535  0.49879647  0.37123291  1
  Zn  Zn101  1  0.50118760  0.12323590  0.12740422  1
  Zn  Zn102  1  0.12399766  0.87542978  0.75141048  1
  Zn  Zn103  1  0.37477383  0.62076987  0.24912259  1
  Zn  Zn104  1  0.37620498  0.24924086  0.62450702  1
  Zn  Zn105  1  0.75117102  0.49976828  0.24926841  1
  Zn  Zn106  1  0.50027485  0.12659257  0.62513221  1
  Zn  Zn107  1  0.62462760  0.62499171  -0.00061564  1
  Zn  Zn108  1  0.50034190  0.24639935  0.24901402  1
  Zn  Zn109  1  0.50051800  0.24982247  0.74697561  1
  Zn  Zn110  1  0.87317717  0.87395120  -0.00023312  1
  Zn  Zn111  1  0.00142796  0.37461009  0.37730072  1
  Zn  Zn112  1  0.37586575  0.49924452  0.87686010  1
  Zn  Zn113  1  -0.00022217  0.12338489  0.12536411  1
  Zn  Zn114  1  0.49721512  0.50188604  -0.00131919  1
  Zn  Zn115  1  0.87581997  0.12554177  0.75090835  1
  Zn  Zn116  1  0.49868724  0.62712226  0.62232993  1
  Zn  Zn117  1  0.12601842  0.12958491  0.50002012  1
  Zn  Zn118  1  0.37869435  0.12266165  0.25045023  1
  Zn  Zn119  1  0.75004842  0.74958787  -0.00079870  1
  Zn  Zn120  1  0.24767389  0.24902520  0.50051938  1
  Zn  Zn121  1  0.25179412  0.50081976  0.25002198  1
  Zn  Zn122  1  0.37551048  0.37672102  -0.00087414  1
  Zn  Zn123  1  0.37474824  0.87535474  0.49789595  1
  Zn  Zn124  1  0.12488468  0.74952872  0.37579243  1
  Zn  Zn125  1  0.37667517  0.75187895  0.62383714  1
  Zn  Zn126  1  0.12616459  0.62601957  0.49986516  1
  Zn  Zn127  1  0.12599438  0.25037189  0.37721565  1
  Zn  Zn128  1  0.18933848  0.18598440  0.18840002  1
  Zn  Zn129  1  0.18905112  0.18919678  0.68619530  1
  Zn  Zn130  1  0.18735280  0.68791637  0.18909745  1
  Zn  Zn131  1  0.18670215  0.68802075  0.68794947  1
  Zn  Zn132  1  0.68686134  0.18646073  0.18659758  1
  Zn  Zn133  1  0.68805131  0.18646382  0.68765437  1
  Zn  Zn134  1  0.68781315  0.68633495  0.18875946  1
  Zn  Zn135  1  0.68553895  0.68801692  0.68742509  1
  Zn  Zn136  1  0.31313771  0.30984818  0.31164759  1
  Zn  Zn137  1  0.31328617  0.31159005  0.81249358  1
  Zn  Zn138  1  0.31522455  0.81194546  0.31350028  1
  Zn  Zn139  1  0.31120580  0.81153623  0.81209875  1
  Zn  Zn140  1  0.81171972  0.31373800  0.31177127  1
  Zn  Zn141  1  0.81243261  0.31244238  0.81130344  1
  Zn  Zn142  1  0.81390597  0.81235735  0.31253438  1
  Zn  Zn143  1  0.81221324  0.81483545  0.81151627  1
  Zn  Zn144  1  0.18794512  0.43925302  0.43757357  1
  Zn  Zn145  1  0.18812887  0.43811768  0.93875706  1
  Zn  Zn146  1  0.18616156  0.94000844  0.43791755  1
  Zn  Zn147  1  0.18607237  0.93675601  0.93806219  1
  Zn  Zn148  1  0.68796002  0.43661141  0.43700402  1
  Zn  Zn149  1  0.68633331  0.43736856  0.93724256  1
  Zn  Zn150  1  0.68670829  0.93725661  0.43777962  1
  Zn  Zn151  1  0.68611817  0.93677000  0.93766861  1
  Zn  Zn152  1  0.31221138  0.06313815  0.06345607  1
  Zn  Zn153  1  0.31224646  0.06187391  0.56135309  1
  Zn  Zn154  1  0.31435855  0.55947306  0.06217166  1
  Zn  Zn155  1  0.31305655  0.56103846  0.56111559  1
  Zn  Zn156  1  0.81217564  0.06202813  0.06288038  1
  Zn  Zn157  1  0.81418728  0.06431440  0.56439062  1
  Zn  Zn158  1  0.80924396  0.56431170  0.06075634  1
  Zn  Zn159  1  0.81251897  0.56325236  0.56189412  1
  Zn  Zn160  1  0.43662527  0.43573878  0.18878294  1
  Zn  Zn161  1  0.43865983  0.43924103  0.68655037  1
  Zn  Zn162  1  0.43782205  0.93718580  0.18716384  1
  Zn  Zn163  1  0.43646755  0.93929124  0.68672346  1
  Zn  Zn164  1  0.93817284  0.43664114  0.18787679  1
  Zn  Zn165  1  0.93714734  0.43637033  0.68710905  1
  Zn  Zn166  1  0.93714883  0.93705374  0.18752635  1
  Zn  Zn167  1  0.93708231  0.93828798  0.68999742  1
  Zn  Zn168  1  0.06514595  0.06276047  0.31351072  1
  Zn  Zn169  1  0.06218168  0.06263717  0.81220079  1
  Zn  Zn170  1  0.06538617  0.56422047  0.31373568  1
  Zn  Zn171  1  0.06256659  0.56280858  0.81307117  1
  Zn  Zn172  1  0.56272099  0.06327711  0.31156146  1
  Zn  Zn173  1  0.56227608  0.06142985  0.81371036  1
  Zn  Zn174  1  0.56197728  0.56039245  0.31040326  1
  Zn  Zn175  1  0.56148784  0.56273179  0.80961774  1
  Zn  Zn176  1  0.43639027  0.18680200  0.43562611  1
  Zn  Zn177  1  0.43819507  0.18954802  0.93729850  1
  Zn  Zn178  1  0.43501229  0.68780526  0.43659531  1
  Zn  Zn179  1  0.43853342  0.68547490  0.93809179  1
  Zn  Zn180  1  0.93801370  0.18721396  0.43869831  1
  Zn  Zn181  1  0.93779256  0.18580520  0.93773429  1
  Zn  Zn182  1  0.93803988  0.68693413  0.43806961  1
  Zn  Zn183  1  0.93540137  0.68840455  0.93894715  1
  Zn  Zn184  1  0.06207022  0.31169900  0.06461077  1
  Zn  Zn185  1  0.06448811  0.31294678  0.56215161  1
  Zn  Zn186  1  0.06117266  0.81326717  0.06302150  1
  Zn  Zn187  1  0.06521904  0.81357513  0.56305136  1
  Zn  Zn188  1  0.56150001  0.31229941  0.06011677  1
  Zn  Zn189  1  0.56007733  0.31067916  0.56324152  1
  Zn  Zn190  1  0.56230479  0.81287635  0.06144581  1
  Zn  Zn191  1  0.56313898  0.81314813  0.56363675  1
  O  O192  1  0.12439093  0.11766322  0.11856898  1
  O  O193  1  0.11897154  0.11937979  0.62457150  1
  O  O194  1  0.11866428  0.62027787  0.12026035  1
  O  O195  1  0.11803608  0.61799702  0.62524226  1
  O  O196  1  0.62448557  0.12233072  0.11501335  1
  O  O197  1  0.62515891  0.11793102  0.61760780  1
  O  O198  1  0.62067774  0.61582923  0.12548447  1
  O  O199  1  0.62474271  0.61869500  0.61704052  1
  O  O200  1  0.38025740  0.37483992  0.38368150  1
  O  O201  1  0.38672069  0.37572521  0.87354251  1
  O  O202  1  0.38525674  0.87778222  0.37777104  1
  O  O203  1  0.37779494  0.87967422  0.88077073  1
  O  O204  1  0.87759360  0.38775696  0.37551516  1
  O  O205  1  0.88001982  0.38095915  0.88021372  1
  O  O206  1  0.88060259  0.88056570  0.38113004  1
  O  O207  1  0.88099060  0.88144722  0.87714750  1
  O  O208  1  0.25103162  0.00688487  0.36900171  1
  O  O209  1  0.25395763  0.00490134  0.87088415  1
  O  O210  1  0.25049690  0.51236923  0.37447211  1
  O  O211  1  0.24893154  0.50714488  0.86817334  1
  O  O212  1  0.75631618  0.00468237  0.37105773  1
  O  O213  1  0.75460329  0.00426087  0.87069342  1
  O  O214  1  0.76088486  0.50599513  0.37541897  1
  O  O215  1  0.75453621  0.50483884  0.86831706  1
  O  O216  1  0.24120065  0.49326778  0.12563079  1
  O  O217  1  0.24383537  0.49518804  0.63124991  1
  O  O218  1  0.24440041  0.99289153  0.12946931  1
  O  O219  1  0.24460224  0.99260182  0.62940170  1
  O  O220  1  0.74189843  0.49415616  0.12584452  1
  O  O221  1  0.74545621  0.49533586  0.62914901  1
  O  O222  1  0.74969071  0.98977365  0.13224369  1
  O  O223  1  0.74602469  0.99553308  0.62937672  1
  O  O224  1  0.00829538  0.36654984  0.24966946  1
  O  O225  1  0.00619133  0.37110455  0.75624142  1
  O  O226  1  0.00432950  0.87045002  0.25608124  1
  O  O227  1  0.00098726  0.86759579  0.75709232  1
  O  O228  1  0.50776402  0.37095423  0.25676976  1
  O  O229  1  0.50735773  0.37496851  0.75744908  1
  O  O230  1  0.50689690  0.86898547  0.25479518  1
  O  O231  1  0.49833044  0.86907126  0.75672281  1
  O  O232  1  0.49736982  0.12817089  0.24609036  1
  O  O233  1  0.48747001  0.12322857  0.75068985  1
  O  O234  1  0.49991161  0.63211854  0.24312750  1
  O  O235  1  0.48991061  0.63116944  0.74839645  1
  O  O236  1  0.99467118  0.13371545  0.24945045  1
  O  O237  1  0.99931882  0.13330626  0.74442378  1
  O  O238  1  0.99558933  0.63057925  0.24485385  1
  O  O239  1  0.99351413  0.62977490  0.74567083  1
  O  O240  1  0.36725285  0.25208855  0.00702616  1
  O  O241  1  0.37403973  0.26359410  0.50112072  1
  O  O242  1  0.36903369  0.75494262  0.00464506  1
  O  O243  1  0.36272566  0.75284852  0.50356269  1
  O  O244  1  0.87050484  0.25563467  0.00482909  1
  O  O245  1  0.86930861  0.25259742  0.50607506  1
  O  O246  1  0.87180185  0.75264994  0.00910821  1
  O  O247  1  0.87011380  0.75522567  0.50590434  1
  O  O248  1  0.12802511  0.24887698  0.49470664  1
  O  O249  1  0.12884704  0.24460637  0.99555589  1
  O  O250  1  0.13706348  0.74843765  0.49896227  1
  O  O251  1  0.12959566  0.74376877  0.99637534  1
  O  O252  1  0.63169199  0.24477867  0.49453051  1
  O  O253  1  0.63193777  0.24500323  0.99325972  1
  O  O254  1  0.63114479  0.74491659  0.49451762  1
  O  O255  1  0.62505753  0.74954724  0.98502333  1
  O  O256  1  0.48882552  0.24896987  0.12336015  1
  O  O257  1  0.49531397  0.24441334  0.62940900  1
  O  O258  1  0.49643298  0.74496878  0.12963971  1
  O  O259  1  0.49715326  0.74857597  0.63249408  1
  O  O260  1  0.99327732  0.24872086  0.13534812  1
  O  O261  1  0.99578056  0.24685819  0.63087830  1
  O  O262  1  0.99445293  0.74459383  0.13117947  1
  O  O263  1  0.99493573  0.74565873  0.63014612  1
  O  O264  1  -0.00066370  0.25246789  0.36236510  1
  O  O265  1  0.00521051  0.25623204  0.87092431  1
  O  O266  1  0.00022132  0.75664672  0.36971581  1
  O  O267  1  0.00379446  0.75388571  0.87077132  1
  O  O268  1  0.50850719  0.25628806  0.37517715  1
  O  O269  1  0.50741419  0.25909187  0.87145536  1
  O  O270  1  0.50675462  0.75453090  0.37023297  1
  O  O271  1  0.50606742  0.75442968  0.86889223  1
  O  O272  1  0.24927199  0.12526184  0.48960868  1
  O  O273  1  0.24359755  0.12985644  0.99378769  1
  O  O274  1  0.24955521  0.63347648  0.49407183  1
  O  O275  1  0.24371311  0.63020704  0.99568060  1
  O  O276  1  0.74588670  0.13033413  0.49449221  1
  O  O277  1  0.74474265  0.13020960  0.99410385  1
  O  O278  1  0.74508346  0.63134040  0.49467164  1
  O  O279  1  0.74554703  0.62905804  0.99018575  1
  O  O280  1  0.24798809  0.36717378  0.00677860  1
  O  O281  1  0.25944093  0.37760309  0.50520191  1
  O  O282  1  0.25448456  0.86884378  0.00569617  1
  O  O283  1  0.24967963  0.86853299  0.50806275  1
  O  O284  1  0.75584191  0.36906622  0.00395099  1
  O  O285  1  0.75148885  0.36844253  0.50637499  1
  O  O286  1  0.75034271  0.87309673  0.01236775  1
  O  O287  1  0.75645141  0.86967973  0.50484025  1
  O  O288  1  0.12316817  0.48984943  0.24343083  1
  O  O289  1  0.12964792  0.49490513  0.74577664  1
  O  O290  1  0.13057755  0.99339928  0.24389402  1
  O  O291  1  0.13151974  0.99871264  0.74422262  1
  O  O292  1  0.62793269  0.49313328  0.23912097  1
  O  O293  1  0.63148982  0.49532432  0.74286110  1
  O  O294  1  0.63296411  0.99236050  0.24986435  1
  O  O295  1  0.63126757  0.99870280  0.74387323  1
  O  O296  1  0.36571384  0.00027085  0.25068599  1
  O  O297  1  0.36829954  0.00704415  0.75653937  1
  O  O298  1  0.36974197  0.50194888  0.25300033  1
  O  O299  1  0.36909237  0.50969412  0.75187876  1
  O  O300  1  0.87042473  0.00512873  0.25675725  1
  O  O301  1  0.86819283  0.00241648  0.75760320  1
  O  O302  1  0.87644607  0.50604041  0.25950266  1
  O  O303  1  0.86991155  0.50521494  0.75513049  1
  O  O304  1  0.12294553  0.37514283  0.36254301  1
  O  O305  1  0.11918103  0.37029227  0.87075823  1
  O  O306  1  0.11782212  0.87445743  0.36859244  1
  O  O307  1  0.11814170  0.86737681  0.87457675  1
  O  O308  1  0.62145800  0.36954613  0.36961422  1
  O  O309  1  0.61991974  0.37039466  0.86845353  1
  O  O310  1  0.62159465  0.86770684  0.36993576  1
  O  O311  1  0.61813353  0.86611179  0.87213956  1
  O  O312  1  0.37501627  0.13668330  0.12500751  1
  O  O313  1  0.37457391  0.12317912  0.63762462  1
  O  O314  1  0.38179095  0.63179789  0.12533817  1
  O  O315  1  0.37407094  0.62664557  0.63778666  1
  O  O316  1  0.87563142  0.13175296  0.13253457  1
  O  O317  1  0.88242487  0.13308360  0.62778473  1
  O  O318  1  0.87987310  0.62877281  0.13063640  1
  O  O319  1  0.88003239  0.63086994  0.63055285  1
  O  O320  1  0.25613660  0.25432586  0.11971072  1
  O  O321  1  0.25403743  0.25972140  0.62297101  1
  O  O322  1  0.25495120  0.75475604  0.11950941  1
  O  O323  1  0.24901542  0.75889691  0.61844798  1
  O  O324  1  0.75560460  0.25554506  0.11851668  1
  O  O325  1  0.75540415  0.25508186  0.61989559  1
  O  O326  1  0.75469287  0.75878660  0.12633487  1
  O  O327  1  0.75573619  0.75516599  0.61998151  1
  O  O328  1  0.24830704  0.23813935  0.37494495  1
  O  O329  1  0.24324359  0.24508269  0.88033083  1
  O  O330  1  0.24926949  0.74420131  0.38409642  1
  O  O331  1  0.24369202  0.74434949  0.88145081  1
  O  O332  1  0.74628342  0.24477333  0.38056550  1
  O  O333  1  0.74583349  0.24548590  0.88037051  1
  O  O334  1  0.74605641  0.74527279  0.38110180  1
  O  O335  1  0.74028058  0.74580161  0.87197395  1
  O  O336  1  0.00697789  0.11837809  0.00191755  1
  O  O337  1  0.00072244  0.11815657  0.50721714  1
  O  O338  1  0.00445992  0.61957270  0.00593224  1
  O  O339  1  0.00094636  0.61636278  0.50692976  1
  O  O340  1  0.50625425  0.11810621  -0.00173501  1
  O  O341  1  0.50676569  0.11489736  0.49901295  1
  O  O342  1  0.50462897  0.62290698  0.00818983  1
  O  O343  1  0.50626038  0.61928887  0.49946130  1
  O  O344  1  0.49351114  0.38003638  0.49447978  1
  O  O345  1  0.50078869  0.37641417  0.98556784  1
  O  O346  1  0.50186195  0.88404543  0.49448791  1
  O  O347  1  0.49291380  0.87950749  0.99364090  1
  O  O348  1  0.99782450  0.38891748  0.49912508  1
  O  O349  1  0.99449328  0.38036517  0.99542662  1
  O  O350  1  0.99467100  0.88043154  0.49633397  1
  O  O351  1  0.99819204  0.88169432  0.99401791  1
  O  O352  1  0.50057139  0.49182016  0.38127452  1
  O  O353  1  0.50185900  0.48911178  0.87497779  1
  O  O354  1  0.50325921  0.99345094  0.38508177  1
  O  O355  1  0.49270605  0.99325392  0.88048558  1
  O  O356  1  0.99213185  0.50276013  0.38370973  1
  O  O357  1  0.99397999  0.49515305  0.88065234  1
  O  O358  1  0.99449624  0.99495289  0.38063771  1
  O  O359  1  0.99542463  0.99485650  0.88017831  1
  O  O360  1  0.00654408  0.00029983  0.11943169  1
  O  O361  1  0.00400315  0.00540449  0.62161798  1
  O  O362  1  0.00402357  0.50575116  0.11940156  1
  O  O363  1  0.00331474  0.50537967  0.61886484  1
  O  O364  1  0.50213347  0.00010324  0.11523686  1
  O  O365  1  0.50668218  0.00040221  0.61528484  1
  O  O366  1  0.51018304  0.50425305  0.12506434  1
  O  O367  1  0.50820205  0.50231155  0.61696621  1
  O  O368  1  0.23802644  0.37363777  0.24389030  1
  O  O369  1  0.24504072  0.38084257  0.74599782  1
  O  O370  1  0.24462230  0.87870435  0.24482881  1
  O  O371  1  0.24812849  0.88027526  0.74182970  1
  O  O372  1  0.74384867  0.37695270  0.24220740  1
  O  O373  1  0.74508158  0.38155524  0.74427790  1
  O  O374  1  0.74592986  0.87902929  0.24387259  1
  O  O375  1  0.74871619  0.88238482  0.74218246  1
  O  O376  1  0.25053965  0.11686690  0.25814234  1
  O  O377  1  0.25654841  0.11951065  0.75615041  1
  O  O378  1  0.25061534  0.62531119  0.26071626  1
  O  O379  1  0.25627886  0.62112684  0.75532788  1
  O  O380  1  0.75573034  0.11980222  0.25639486  1
  O  O381  1  0.75192929  0.11845682  0.75745276  1
  O  O382  1  0.75789799  0.62325967  0.25774419  1
  O  O383  1  0.75565876  0.61948834  0.75369051  1
  O  O384  1  0.36439130  0.12147875  0.37241197  1
  O  O385  1  0.36832797  0.11946025  0.86873770  1
  O  O386  1  0.36359660  0.62377733  0.37302888  1
  O  O387  1  0.36852739  0.62512665  0.86437803  1
  O  O388  1  0.86961804  0.11929903  0.37003098  1
  O  O389  1  0.86804137  0.11872152  0.87427667  1
  O  O390  1  0.87106070  0.61751852  0.37077471  1
  O  O391  1  0.86950642  0.61968708  0.86897086  1
  O  O392  1  0.12847730  0.37948291  0.13273105  1
  O  O393  1  0.13042901  0.38178127  0.63225617  1
  O  O394  1  0.13090339  0.87971669  0.13033474  1
  O  O395  1  0.13518066  0.88170174  0.62782697  1
  O  O396  1  0.62961833  0.38102749  0.12854692  1
  O  O397  1  0.63114171  0.38069015  0.62910194  1
  O  O398  1  0.63463327  0.87450445  0.13144544  1
  O  O399  1  0.63321240  0.88184355  0.62610385  1
  O  O400  1  0.11588197  0.25841403  0.24820107  1
  O  O401  1  0.12037507  0.25662295  0.75675968  1
  O  O402  1  0.11728080  0.75768747  0.25047417  1
  O  O403  1  0.11752068  0.75015332  0.75797038  1
  O  O404  1  0.62617820  0.25597287  0.25685424  1
  O  O405  1  0.62620307  0.25698132  0.75629752  1
  O  O406  1  0.62017205  0.75472000  0.25660505  1
  O  O407  1  0.61738325  0.75132045  0.75883375  1
  O  O408  1  0.37620385  0.24816920  0.23684874  1
  O  O409  1  0.37504949  0.23644898  0.75046752  1
  O  O410  1  0.38307281  0.74925681  0.24197412  1
  O  O411  1  0.37906462  0.74099973  0.74951870  1
  O  O412  1  0.88169462  0.24598584  0.24543083  1
  O  O413  1  0.88246058  0.24999983  0.74401246  1
  O  O414  1  0.88114696  0.74420460  0.24544087  1
  O  O415  1  0.88005398  0.74434396  0.74448851  1
  O  O416  1  0.38166945  0.48955908  0.49807480  1
  O  O417  1  0.37854297  0.49463718  0.99467642  1
  O  O418  1  0.38910680  0.99842066  0.49897601  1
  O  O419  1  0.37807472  0.99398391  0.99444917  1
  O  O420  1  0.88325334  0.50120658  0.49196306  1
  O  O421  1  0.87945569  0.49501924  0.99436808  1
  O  O422  1  0.88045848  0.99458663  0.49546946  1
  O  O423  1  0.88132873  0.99856952  0.99402297  1
  O  O424  1  0.11985711  0.00494228  0.00500105  1
  O  O425  1  0.11700304  0.00173391  0.50831012  1
  O  O426  1  0.11782406  0.50549333  0.00525202  1
  O  O427  1  0.11518214  0.50150589  0.50678274  1
  O  O428  1  0.61761847  0.00605172  -0.00070856  1
  O  O429  1  0.61864727  0.00508286  0.50470838  1
  O  O430  1  0.62431798  0.50010056  0.01316239  1
  O  O431  1  0.62097235  0.50540197  0.50366125  1
  O  O432  1  0.36802373  0.36498048  0.12304493  1
  O  O433  1  0.36983352  0.37669450  0.61603459  1
  O  O434  1  0.36932694  0.86803901  0.11854601  1
  O  O435  1  0.36050329  0.87562909  0.62311423  1
  O  O436  1  0.86977976  0.37034936  0.11923255  1
  O  O437  1  0.86791416  0.36943833  0.62360287  1
  O  O438  1  0.86471821  0.86897880  0.12671469  1
  O  O439  1  0.87052047  0.86968491  0.61958238  1
  O  O440  1  0.13647878  0.12611887  0.37664470  1
  O  O441  1  0.13001891  0.13107292  0.88041793  1
  O  O442  1  0.13563153  0.62917113  0.37858462  1
  O  O443  1  0.12911876  0.63014174  0.88183947  1
  O  O444  1  0.63260921  0.13032294  0.38073533  1
  O  O445  1  0.63104400  0.13054173  0.87999397  1
  O  O446  1  0.63117962  0.62970846  0.37955619  1
  O  O447  1  0.62966062  0.63436380  0.87247098  1
