# generated using pymatgen
data_V3Zn3O8
_symmetry_space_group_name_H-M   'P 1'
_cell_length_a   17.08714672
_cell_length_b   17.08922128
_cell_length_c   17.09038047
_cell_angle_alpha   90.01320275
_cell_angle_beta   89.97978755
_cell_angle_gamma   90.01400163
_symmetry_Int_Tables_number   1
_chemical_formula_structural   V3Zn3O8
_chemical_formula_sum   'V96 Zn96 O256'
_cell_volume   4990.49358426
_cell_formula_units_Z   32
loop_
 _symmetry_equiv_pos_site_id
 _symmetry_equiv_pos_as_xyz
  1  'x, y, z'
loop_
 _atom_site_type_symbol
 _atom_site_label
 _atom_site_symmetry_multiplicity
 _atom_site_fract_x
 _atom_site_fract_y
 _atom_site_fract_z
 _atom_site_occupancy
  V  V0  1  0.50076220  0.00124165  0.50068208  1
  V  V1  1  0.25048168  0.49853897  0.74976293  1
  V  V2  1  0.37562935  0.49947036  0.87436190  1
  V  V3  1  0.37544821  0.12554132  0.24957428  1
  V  V4  1  0.12523689  0.87417233  0.75164433  1
  V  V5  1  0.87440408  0.74990071  0.62669020  1
  V  V6  1  0.37483639  0.62485706  0.74958395  1
  V  V7  1  0.37421123  0.50153929  0.37378643  1
  V  V8  1  0.74829002  0.37612513  0.12574171  1
  V  V9  1  0.37464278  0.00047429  0.87446798  1
  V  V10  1  0.50070092  0.87580759  0.87462838  1
  V  V11  1  0.50024419  0.50014991  -0.00099796  1
  V  V12  1  0.00022686  0.00036430  0.50300861  1
  V  V13  1  0.62422036  0.62574586  0.49938601  1
  V  V14  1  0.24959095  -0.00016315  0.75031234  1
  V  V15  1  0.12444882  0.37246791  0.75124344  1
  V  V16  1  0.12509137  0.37412543  0.24988023  1
  V  V17  1  0.74939373  0.24780681  -0.00295001  1
  V  V18  1  0.12463974  0.49884677  0.12460518  1
  V  V19  1  0.12489866  0.25082716  0.37435845  1
  V  V20  1  0.24946927  -0.00097753  0.25131629  1
  V  V21  1  0.37444027  0.87400209  0.00104195  1
  V  V22  1  0.74922437  0.62568601  0.87474866  1
  V  V23  1  -0.00129969  0.62446016  0.12592787  1
  V  V24  1  0.74980528  0.12519661  0.37435589  1
  V  V25  1  0.00057474  0.12346905  0.12675655  1
  V  V26  1  0.87421434  0.50078374  0.37387516  1
  V  V27  1  0.12600925  0.12285924  -0.00035153  1
  V  V28  1  0.37489489  0.87547905  0.50049394  1
  V  V29  1  0.62441248  0.87607842  0.24978732  1
  V  V30  1  0.87521522  0.74878171  0.12580840  1
  V  V31  1  0.25026690  0.37506277  0.12425148  1
  V  V32  1  0.74899248  0.49989575  0.74799978  1
  V  V33  1  0.12437878  0.74943778  0.87573544  1
  V  V34  1  0.00132139  0.37202948  0.87447710  1
  V  V35  1  0.37448229  0.75060036  0.62487572  1
  V  V36  1  0.50101350  0.12574832  0.62436506  1
  V  V37  1  0.87536603  0.24839576  0.12599629  1
  V  V38  1  0.12569837  0.62379847  0.00016865  1
  V  V39  1  0.49962385  0.00049281  -0.00055155  1
  V  V40  1  -0.00006117  0.49834375  0.00012609  1
  V  V41  1  0.75049182  0.62506162  0.37443313  1
  V  V42  1  0.75020067  0.75091065  0.50073721  1
  V  V43  1  0.24874306  0.74973666  0.50016459  1
  V  V44  1  0.12413024  0.50073230  0.62530271  1
  V  V45  1  0.62492845  0.62555189  -0.00147143  1
  V  V46  1  0.25037029  0.12528646  0.37588100  1
  V  V47  1  0.12507747  0.87436258  0.25142443  1
  V  V48  1  0.37523717  0.37439341  -0.00050665  1
  V  V49  1  0.50037829  0.87545923  0.37524810  1
  V  V50  1  0.87677934  0.24902864  0.62583487  1
  V  V51  1  0.24965232  0.24856880  -0.00099087  1
  V  V52  1  0.25017626  0.62394709  0.87529173  1
  V  V53  1  0.50113488  0.37457964  0.87271283  1
  V  V54  1  0.37413961  0.37646486  0.49842840  1
  V  V55  1  0.50166213  0.25115076  0.74882456  1
  V  V56  1  0.62329066  0.25229521  0.37309064  1
  V  V57  1  0.62575834  0.50003117  0.62441506  1
  V  V58  1  0.24851389  0.62543198  0.37478933  1
  V  V59  1  0.12573775  -0.00156161  0.12715935  1
  V  V60  1  0.87538069  0.12499162  0.25052068  1
  V  V61  1  0.62565347  0.12588425  -0.00093436  1
  V  V62  1  0.49970662  0.62589541  0.62392608  1
  V  V63  1  0.87497090  0.62512056  0.75116789  1
  V  V64  1  0.37508098  0.12463563  0.74982825  1
  V  V65  1  0.00089484  0.62410812  0.62645919  1
  V  V66  1  0.87462430  0.00045885  0.87652455  1
  V  V67  1  0.00016684  0.37528304  0.37411968  1
  V  V68  1  0.87472801  0.49983432  0.87481146  1
  V  V69  1  0.00058638  0.75003409  0.75229838  1
  V  V70  1  0.75063191  0.87435959  0.12369475  1
  V  V71  1  0.25037636  0.25092157  0.50008733  1
  V  V72  1  0.24907475  0.87532142  0.62626723  1
  V  V73  1  0.74979797  0.87792617  0.62624783  1
  V  V74  1  0.49970338  0.62655894  0.12454116  1
  V  V75  1  -0.00072796  0.87366517  0.37587543  1
  V  V76  1  0.49894743  0.50060483  0.49768995  1
  V  V77  1  0.49945546  0.12554919  0.12481173  1
  V  V78  1  0.12480867  0.12453801  0.50047989  1
  V  V79  1  0.37503589  0.00062225  0.37563481  1
  V  V80  1  0.25117207  0.74987380  0.00135442  1
  V  V81  1  0.62539871  0.87689458  0.74966330  1
  V  V82  1  0.62541675  0.75011455  0.87500747  1
  V  V83  1  0.25041327  0.50129532  0.25000230  1
  V  V84  1  0.62514657  0.00003819  0.12504365  1
  V  V85  1  0.62555998  0.49966928  0.12472065  1
  V  V86  1  0.49949915  0.75107430  0.74962457  1
  V  V87  1  0.87409640  0.37462405  0.50052682  1
  V  V88  1  0.37566320  0.24931786  0.12477859  1
  V  V89  1  0.87541604  0.37397662  0.00018580  1
  V  V90  1  0.87471045  0.00027010  0.37476759  1
  V  V91  1  0.12409283  0.74951691  0.37620166  1
  V  V92  1  0.62538897  0.75080682  0.37522722  1
  V  V93  1  0.62448093  0.12569572  0.49877793  1
  V  V94  1  0.49910767  0.74968061  0.24880257  1
  V  V95  1  0.24968628  0.37492708  0.62439935  1
  Zn  Zn96  1  0.00049336  0.24949770  0.25026535  1
  Zn  Zn97  1  0.37477654  0.25078583  0.62364057  1
  Zn  Zn98  1  0.12346139  0.00124632  0.62805637  1
  Zn  Zn99  1  0.62706391  0.25010439  0.87233136  1
  Zn  Zn100  1  0.62267425  0.37650127  0.25001627  1
  Zn  Zn101  1  0.74753393  0.50038501  0.24962706  1
  Zn  Zn102  1  0.37412453  0.62709896  0.24784130  1
  Zn  Zn103  1  0.75071257  0.74998666  -0.00123120  1
  Zn  Zn104  1  0.87916348  0.87440671  0.00148295  1
  Zn  Zn105  1  0.49965054  0.37663692  0.37129711  1
  Zn  Zn106  1  -0.00106854  0.87367075  0.87868764  1
  Zn  Zn107  1  0.74994594  0.00038922  0.25009794  1
  Zn  Zn108  1  0.25109313  0.87243439  0.12677395  1
  Zn  Zn109  1  0.24885172  0.12532162  0.87339514  1
  Zn  Zn110  1  0.00190729  0.50231394  0.50027509  1
  Zn  Zn111  1  0.62647784  0.37515465  0.74813511  1
  Zn  Zn112  1  0.49947324  0.25307643  0.24884283  1
  Zn  Zn113  1  0.87575818  0.12488914  0.74894135  1
  Zn  Zn114  1  0.00087746  -0.00426560  0.00162475  1
  Zn  Zn115  1  0.74921669  0.25046065  0.50032346  1
  Zn  Zn116  1  0.12338549  0.62403407  0.50059396  1
  Zn  Zn117  1  -0.00027659  0.74725095  0.25247457  1
  Zn  Zn118  1  0.74863820  0.37454615  0.62525161  1
  Zn  Zn119  1  0.62697242  0.00322379  0.62661346  1
  Zn  Zn120  1  0.37389561  0.75014539  0.12647396  1
  Zn  Zn121  1  0.12436649  0.24652438  0.87311585  1
  Zn  Zn122  1  0.87424660  0.62390182  0.25005867  1
  Zn  Zn123  1  0.00148265  0.24532302  0.75116667  1
  Zn  Zn124  1  0.00129719  0.12565592  0.62819716  1
  Zn  Zn125  1  0.87495260  0.87517550  0.50019755  1
  Zn  Zn126  1  0.74908852  0.00495078  0.75060546  1
  Zn  Zn127  1  0.74923354  0.12526300  0.87011064  1
  Zn  Zn128  1  0.18836769  0.18711824  0.18746508  1
  Zn  Zn129  1  0.18656010  0.18706083  0.68587488  1
  Zn  Zn130  1  0.18651844  0.68827406  0.18797165  1
  Zn  Zn131  1  0.18690776  0.68716345  0.68797245  1
  Zn  Zn132  1  0.68799717  0.18750520  0.18852320  1
  Zn  Zn133  1  0.69176068  0.18787174  0.68533530  1
  Zn  Zn134  1  0.68784359  0.68657962  0.18874433  1
  Zn  Zn135  1  0.68727524  0.68817736  0.68795191  1
  Zn  Zn136  1  0.31243875  0.31342111  0.31222111  1
  Zn  Zn137  1  0.31220624  0.30979396  0.81318597  1
  Zn  Zn138  1  0.31249068  0.81179635  0.31282000  1
  Zn  Zn139  1  0.31201729  0.81280857  0.81453376  1
  Zn  Zn140  1  0.80995230  0.31174509  0.31094778  1
  Zn  Zn141  1  0.81431321  0.31490229  0.80948043  1
  Zn  Zn142  1  0.81319553  0.81345955  0.31059640  1
  Zn  Zn143  1  0.81262741  0.81533411  0.81301048  1
  Zn  Zn144  1  0.18688001  0.43882650  0.43808019  1
  Zn  Zn145  1  0.18733433  0.43563069  0.93657129  1
  Zn  Zn146  1  0.18601151  0.93688319  0.43835311  1
  Zn  Zn147  1  0.18882301  0.93662672  0.93730672  1
  Zn  Zn148  1  0.68820234  0.43718397  0.43818695  1
  Zn  Zn149  1  0.68664669  0.43649673  0.93582553  1
  Zn  Zn150  1  0.68814411  0.93940226  0.43892628  1
  Zn  Zn151  1  0.68893523  0.93807825  0.93848797  1
  Zn  Zn152  1  0.31122411  0.06055374  0.06381250  1
  Zn  Zn153  1  0.31269880  0.06296370  0.56488518  1
  Zn  Zn154  1  0.31440336  0.56300801  0.06334195  1
  Zn  Zn155  1  0.31083387  0.56276626  0.56137795  1
  Zn  Zn156  1  0.81314648  0.06145284  0.06171483  1
  Zn  Zn157  1  0.81317926  0.06477596  0.55957319  1
  Zn  Zn158  1  0.81153269  0.56270045  0.06086030  1
  Zn  Zn159  1  0.81289585  0.56298364  0.56158725  1
  Zn  Zn160  1  0.43890947  0.43788755  0.18855758  1
  Zn  Zn161  1  0.43758163  0.43720918  0.68447829  1
  Zn  Zn162  1  0.43665223  0.93730008  0.18668427  1
  Zn  Zn163  1  0.43789075  0.93929097  0.68656691  1
  Zn  Zn164  1  0.93706417  0.43588105  0.18881684  1
  Zn  Zn165  1  0.93863865  0.43596072  0.68819284  1
  Zn  Zn166  1  0.93877615  0.93723334  0.18992549  1
  Zn  Zn167  1  0.93647096  0.93592623  0.69148550  1
  Zn  Zn168  1  0.06111827  0.06213016  0.31396252  1
  Zn  Zn169  1  0.05805761  0.06098704  0.81216757  1
  Zn  Zn170  1  0.06135643  0.56303228  0.31193206  1
  Zn  Zn171  1  0.06234156  0.56059705  0.81228603  1
  Zn  Zn172  1  0.56238017  0.06394232  0.31129085  1
  Zn  Zn173  1  0.56449726  0.06418176  0.81248355  1
  Zn  Zn174  1  0.56258760  0.56298283  0.30985836  1
  Zn  Zn175  1  0.56303870  0.56266899  0.81073150  1
  Zn  Zn176  1  0.43816325  0.18945558  0.43717921  1
  Zn  Zn177  1  0.43785412  0.18742257  0.93548260  1
  Zn  Zn178  1  0.43570188  0.68742293  0.43548888  1
  Zn  Zn179  1  0.43754615  0.68840720  0.93756417  1
  Zn  Zn180  1  0.93834881  0.18802696  0.43791271  1
  Zn  Zn181  1  0.93931905  0.18440617  0.93859178  1
  Zn  Zn182  1  0.93764232  0.68691747  0.44119417  1
  Zn  Zn183  1  0.93743104  0.68742793  0.94024604  1
  Zn  Zn184  1  0.06195388  0.30912328  0.06255640  1
  Zn  Zn185  1  0.06115856  0.31368740  0.56207118  1
  Zn  Zn186  1  0.06226420  0.81287384  0.06366151  1
  Zn  Zn187  1  0.06233467  0.81270266  0.56392139  1
  Zn  Zn188  1  0.56273678  0.31261596  0.06158584  1
  Zn  Zn189  1  0.56192051  0.31430655  0.56061691  1
  Zn  Zn190  1  0.56233242  0.81214540  0.06201874  1
  Zn  Zn191  1  0.56360785  0.81391132  0.56247085  1
  O  O192  1  0.12119354  0.11903639  0.11968040  1
  O  O193  1  0.12273207  0.12134126  0.61512859  1
  O  O194  1  0.11949370  0.61787767  0.11916700  1
  O  O195  1  0.11888219  0.61848352  0.62689667  1
  O  O196  1  0.61974438  0.11972724  0.11944789  1
  O  O197  1  0.61889532  0.12512512  0.61680166  1
  O  O198  1  0.62017352  0.61999583  0.11782342  1
  O  O199  1  0.61848001  0.62190060  0.61873416  1
  O  O200  1  0.37371770  0.38371026  0.38126815  1
  O  O201  1  0.38036958  0.38072769  0.88003870  1
  O  O202  1  0.38077228  0.88093072  0.38156277  1
  O  O203  1  0.38187023  0.88048536  0.87996229  1
  O  O204  1  0.87850367  0.38105179  0.38100686  1
  O  O205  1  0.88104741  0.38117422  0.88129534  1
  O  O206  1  0.88055868  0.88125651  0.37656602  1
  O  O207  1  0.87450045  0.88551663  0.87930937  1
  O  O208  1  0.25585418  0.00561252  0.37169299  1
  O  O209  1  0.25773243  0.00101403  0.86779978  1
  O  O210  1  0.25385560  0.50579162  0.36931814  1
  O  O211  1  0.25618109  0.50437962  0.86982486  1
  O  O212  1  0.75647833  0.00618816  0.37371438  1
  O  O213  1  0.76185950  0.00094553  0.87585134  1
  O  O214  1  0.75886754  0.50626876  0.37577553  1
  O  O215  1  0.75551794  0.50575820  0.86952315  1
  O  O216  1  0.24425032  0.49449977  0.12865779  1
  O  O217  1  0.24506160  0.49528070  0.63151230  1
  O  O218  1  0.24372302  0.99785634  0.13455540  1
  O  O219  1  0.24959730  0.99197887  0.63191295  1
  O  O220  1  0.74427414  0.49221989  0.12280109  1
  O  O221  1  0.74348060  0.50207223  0.63059543  1
  O  O222  1  0.74416096  0.99065343  0.12624618  1
  O  O223  1  0.75062046  0.98776453  0.62403201  1
  O  O224  1  0.00777946  0.37278163  0.25568878  1
  O  O225  1  0.00719011  0.37464366  0.75849258  1
  O  O226  1  0.00759867  0.87318664  0.25894285  1
  O  O227  1  0.00738432  0.86648121  0.75304459  1
  O  O228  1  0.50371072  0.37096908  0.25311321  1
  O  O229  1  0.49888455  0.36658017  0.75366908  1
  O  O230  1  0.50527827  0.87088042  0.25635480  1
  O  O231  1  0.50441399  0.86986602  0.75471676  1
  O  O232  1  0.49218464  0.12616895  0.24224243  1
  O  O233  1  0.49573691  0.13267852  0.74499456  1
  O  O234  1  0.49969483  0.63270770  0.24248551  1
  O  O235  1  0.49400787  0.63122132  0.74388199  1
  O  O236  1  0.99398056  0.12714237  0.24480255  1
  O  O237  1  0.99450486  0.12755926  0.74555258  1
  O  O238  1  0.99581279  0.62625259  0.24100956  1
  O  O239  1  0.99393229  0.62994232  0.74658661  1
  O  O240  1  0.36989398  0.25490229  0.00499578  1
  O  O241  1  0.36775509  0.25746687  0.49942516  1
  O  O242  1  0.36908891  0.75649077  -0.00095015  1
  O  O243  1  0.36971476  0.75637820  0.50536239  1
  O  O244  1  0.86777381  0.25376453  0.00618549  1
  O  O245  1  0.87498095  0.25995199  0.50529292  1
  O  O246  1  0.87184227  0.75090441  0.01307869  1
  O  O247  1  0.86743224  0.75197333  0.50884456  1
  O  O248  1  0.13080314  0.24565257  0.49362879  1
  O  O249  1  0.13168782  0.23868425  1.00215785  1
  O  O250  1  0.13214955  0.74952001  0.49451469  1
  O  O251  1  0.13081508  0.74207796  0.99537559  1
  O  O252  1  0.62510921  0.24420495  0.49013932  1
  O  O253  1  0.63483066  0.24477084  0.99938848  1
  O  O254  1  0.62962220  0.74523151  0.49455358  1
  O  O255  1  0.62507758  0.74345334  0.99175736  1
  O  O256  1  0.49278196  0.24288534  0.12339257  1
  O  O257  1  0.49768527  0.24533087  0.63289121  1
  O  O258  1  0.50048721  0.74423566  0.13114431  1
  O  O259  1  0.49418927  0.74591542  0.62955560  1
  O  O260  1  0.99268335  0.24251096  0.12682376  1
  O  O261  1  0.98939247  0.24964741  0.62470520  1
  O  O262  1  0.99118309  0.74282541  0.12603747  1
  O  O263  1  0.99431668  0.74492269  0.63271111  1
  O  O264  1  0.00761883  0.25719185  0.37340865  1
  O  O265  1  0.00174748  0.25869397  0.87552362  1
  O  O266  1  0.00535541  0.75555408  0.37610714  1
  O  O267  1  0.00686584  0.74777665  0.86941447  1
  O  O268  1  0.51102461  0.25107921  0.37278219  1
  O  O269  1  0.50015415  0.25621419  0.86485931  1
  O  O270  1  0.50599838  0.75614402  0.37078333  1
  O  O271  1  0.50493519  0.75580514  0.86834445  1
  O  O272  1  0.24575042  0.12990132  0.49442423  1
  O  O273  1  0.24118423  0.12988362  1.00145433  1
  O  O274  1  0.24807149  0.63273400  0.49384121  1
  O  O275  1  0.24511507  0.62785345  0.99383723  1
  O  O276  1  0.74201562  0.12649328  0.49149624  1
  O  O277  1  0.74446639  0.13538070  1.00171188  1
  O  O278  1  0.74363528  0.63171912  0.49481222  1
  O  O279  1  0.74229104  0.62573947  0.99172259  1
  O  O280  1  0.25550824  0.36994654  0.00526309  1
  O  O281  1  0.25422053  0.37023545  0.50499425  1
  O  O282  1  0.25686954  0.86746234  0.00065708  1
  O  O283  1  0.25592855  0.87010976  0.50560647  1
  O  O284  1  0.75564044  0.36749717  0.00533114  1
  O  O285  1  0.76401122  0.37466218  0.50089825  1
  O  O286  1  0.74988470  0.87193492  0.01452820  1
  O  O287  1  0.74959614  0.86893815  0.50989007  1
  O  O288  1  0.13054917  0.49371880  0.24367803  1
  O  O289  1  0.13214814  0.49357593  0.74586130  1
  O  O290  1  0.13084554  0.99497567  0.24774510  1
  O  O291  1  0.13129922  0.99242907  0.75015920  1
  O  O292  1  0.62733848  0.49824425  0.24010893  1
  O  O293  1  0.63076663  0.50157922  0.74183357  1
  O  O294  1  0.62546534  0.99369732  0.24294075  1
  O  O295  1  0.62762279  0.99200861  0.74724208  1
  O  O296  1  0.37011919  0.00516235  0.25667351  1
  O  O297  1  0.37044299  0.00436172  0.75529151  1
  O  O298  1  0.36716346  0.50187000  0.25551788  1
  O  O299  1  0.37044152  0.50564303  0.75447695  1
  O  O300  1  0.87400484  0.00712822  0.25757106  1
  O  O301  1  0.87247019  -0.00128873  0.76471247  1
  O  O302  1  0.87192260  0.49890976  0.26337691  1
  O  O303  1  0.86981110  0.50594709  0.75573714  1
  O  O304  1  0.12068648  0.37082784  0.36944231  1
  O  O305  1  0.11854693  0.37393462  0.86961439  1
  O  O306  1  0.11936184  0.86919318  0.37101925  1
  O  O307  1  0.12556346  0.86610876  0.86879096  1
  O  O308  1  0.62492007  0.36437090  0.37509335  1
  O  O309  1  0.61622050  0.37215468  0.87093046  1
  O  O310  1  0.61992250  0.87051582  0.37056459  1
  O  O311  1  0.61980800  0.87013406  0.87006229  1
  O  O312  1  0.37973181  0.12937024  0.12973510  1
  O  O313  1  0.38284314  0.12735691  0.63188774  1
  O  O314  1  0.38443532  0.62764120  0.12620063  1
  O  O315  1  0.37975909  0.63084387  0.63010738  1
  O  O316  1  0.88029168  0.12869247  0.13018715  1
  O  O317  1  0.87739733  0.13787019  0.62115989  1
  O  O318  1  0.87931130  0.63207287  0.12488272  1
  O  O319  1  0.87969827  0.63024658  0.63230638  1
  O  O320  1  0.25613839  0.25584376  0.11931751  1
  O  O321  1  0.25187865  0.25732019  0.61750437  1
  O  O322  1  0.25193288  0.75077850  0.11655776  1
  O  O323  1  0.25606046  0.75502751  0.62089071  1
  O  O324  1  0.75472029  0.25573108  0.11577272  1
  O  O325  1  0.76167468  0.25504987  0.61985430  1
  O  O326  1  0.75686221  0.75745010  0.12451315  1
  O  O327  1  0.75423581  0.75739092  0.62088736  1
  O  O328  1  0.24461199  0.24459319  0.38038945  1
  O  O329  1  0.24718406  0.24610028  0.88390238  1
  O  O330  1  0.24445076  0.74548817  0.38115287  1
  O  O331  1  0.24470966  0.74231909  0.88012214  1
  O  O332  1  0.74049582  0.24374948  0.37645260  1
  O  O333  1  0.75221929  0.25114512  0.88794240  1
  O  O334  1  0.74468073  0.74633903  0.38056504  1
  O  O335  1  0.74337444  0.74385389  0.87529981  1
  O  O336  1  0.01148419  0.12256114  0.00841894  1
  O  O337  1  0.00644227  0.11442058  0.49824365  1
  O  O338  1  0.00632169  0.61722156  0.00537143  1
  O  O339  1  0.00245433  0.62302817  0.51147249  1
  O  O340  1  0.50477564  0.11950380  0.00511062  1
  O  O341  1  0.50396450  0.12011297  0.50464787  1
  O  O342  1  0.50552013  0.61927922  0.00297353  1
  O  O343  1  0.50435299  0.62167473  0.50514230  1
  O  O344  1  0.49204999  0.38389416  0.49702697  1
  O  O345  1  0.49394283  0.38045733  0.99358883  1
  O  O346  1  0.49467013  0.87993842  0.49483006  1
  O  O347  1  0.49575526  0.88124506  0.99349549  1
  O  O348  1  0.98989240  0.37853589  0.49253104  1
  O  O349  1  0.99492933  0.37956389  0.99578823  1
  O  O350  1  0.99913987  0.88390412  0.49475502  1
  O  O351  1  0.99811991  0.87796943  0.99691874  1
  O  O352  1  0.49304210  0.50215940  0.38133225  1
  O  O353  1  0.49420730  0.49571633  0.87888617  1
  O  O354  1  0.49436261  0.99497689  0.38024181  1
  O  O355  1  0.49503111  0.99463005  0.88018658  1
  O  O356  1  0.99041264  0.49456807  0.37619290  1
  O  O357  1  0.99410848  0.49396557  0.88107511  1
  O  O358  1  0.99519598  0.99422911  0.38420643  1
  O  O359  1  0.98623489  0.99664801  0.87812317  1
  O  O360  1  0.00800608  0.00639373  0.12537505  1
  O  O361  1  -0.00101347  -0.00143678  0.61295403  1
  O  O362  1  0.00476376  0.50318835  0.11916555  1
  O  O363  1  0.00657783  0.50683752  0.62668520  1
  O  O364  1  0.50513170  0.00540301  0.11861545  1
  O  O365  1  0.50193483  0.00674188  0.61775187  1
  O  O366  1  0.50505155  0.50564288  0.11713767  1
  O  O367  1  0.50439163  0.50782137  0.61827692  1
  O  O368  1  0.24458768  0.38115375  0.24324633  1
  O  O369  1  0.24608196  0.38016260  0.74505829  1
  O  O370  1  0.24347220  0.88206121  0.25183717  1
  O  O371  1  0.24588889  0.87915319  0.74537440  1
  O  O372  1  0.74687365  0.37649137  0.23776310  1
  O  O373  1  0.74762407  0.38525046  0.74733304  1
  O  O374  1  0.74293169  0.87602327  0.23946342  1
  O  O375  1  0.74321355  0.87445257  0.73936032  1
  O  O376  1  0.25565899  0.11909737  0.25665423  1
  O  O377  1  0.25654149  0.11813361  0.75009872  1
  O  O378  1  0.24991382  0.61822426  0.25619118  1
  O  O379  1  0.25607426  0.61902438  0.75568709  1
  O  O380  1  0.75740496  0.12255209  0.25594708  1
  O  O381  1  0.75657724  0.12285657  0.75262925  1
  O  O382  1  0.75288369  0.62215604  0.25931939  1
  O  O383  1  0.75558667  0.62061802  0.75570743  1
  O  O384  1  0.36977318  0.11969054  0.37034599  1
  O  O385  1  0.37453801  0.11732935  0.86793862  1
  O  O386  1  0.36661146  0.61922566  0.37292464  1
  O  O387  1  0.37037169  0.61916491  0.86908813  1
  O  O388  1  0.87010714  0.12080197  0.37041595  1
  O  O389  1  0.87329833  0.11132786  0.87722623  1
  O  O390  1  0.86989918  0.61568738  0.37698071  1
  O  O391  1  0.86963884  0.61936209  0.87084987  1
  O  O392  1  0.13044623  0.37952281  0.12884227  1
  O  O393  1  0.13053035  0.38064770  0.63092098  1
  O  O394  1  0.12707203  0.88074000  0.13380885  1
  O  O395  1  0.13227480  0.87540455  0.63342838  1
  O  O396  1  0.63247027  0.38166386  0.12192249  1
  O  O397  1  0.62696136  0.38510430  0.62494737  1
  O  O398  1  0.63159834  0.87958934  0.12967684  1
  O  O399  1  0.63431296  0.87548499  0.63063999  1
  O  O400  1  0.12616560  0.25670767  0.25656382  1
  O  O401  1  0.12367676  0.25773820  0.75227130  1
  O  O402  1  0.12352717  0.75647658  0.25827507  1
  O  O403  1  0.12063281  0.75365955  0.75675643  1
  O  O404  1  0.62303309  0.25031463  0.26063347  1
  O  O405  1  0.61253355  0.25131048  0.74964831  1
  O  O406  1  0.61940984  0.75650107  0.25638181  1
  O  O407  1  0.61809873  0.75565911  0.75517009  1
  O  O408  1  0.37385380  0.24296653  0.24269868  1
  O  O409  1  0.38539374  0.24407534  0.74846735  1
  O  O410  1  0.38377871  0.74889505  0.24880094  1
  O  O411  1  0.37997445  0.74486656  0.74503201  1
  O  O412  1  0.87600623  0.24329543  0.24304090  1
  O  O413  1  0.87806415  0.25260305  0.73710392  1
  O  O414  1  0.87678439  0.74759203  0.23757779  1
  O  O415  1  0.88011046  0.74405520  0.74647920  1
  O  O416  1  0.37895522  0.49652006  0.49396134  1
  O  O417  1  0.38032926  0.49407555  0.99366424  1
  O  O418  1  0.38013779  0.99486184  0.49466777  1
  O  O419  1  0.38031752  0.99492037  0.99456132  1
  O  O420  1  0.87651550  0.49252427  0.49058180  1
  O  O421  1  0.88049570  0.49382699  0.99433135  1
  O  O422  1  0.88462222  0.99865215  0.49332124  1
  O  O423  1  0.87665843  0.99754326  0.98978036  1
  O  O424  1  0.12779094  0.00876943  0.00766869  1
  O  O425  1  0.11567287  0.00525369  0.50014053  1
  O  O426  1  0.12013017  0.50396690  0.00523983  1
  O  O427  1  0.12300304  0.50201954  0.50974728  1
  O  O428  1  0.61875942  0.00530033  0.00541069  1
  O  O429  1  0.61724918  0.00735323  0.50053122  1
  O  O430  1  0.61874346  0.50596980  0.00336792  1
  O  O431  1  0.61934561  0.50744088  0.50382491  1
  O  O432  1  0.36946268  0.37026555  0.11823123  1
  O  O433  1  0.36705291  0.37566024  0.61659091  1
  O  O434  1  0.37308565  0.87276600  0.11625978  1
  O  O435  1  0.37009060  0.86926815  0.61986666  1
  O  O436  1  0.86897026  0.36951957  0.11892439  1
  O  O437  1  0.87609838  0.36978100  0.61468667  1
  O  O438  1  0.86652965  0.86735724  0.12698997  1
  O  O439  1  0.86504750  0.86799973  0.62585339  1
  O  O440  1  0.13144728  0.13049741  0.38006073  1
  O  O441  1  0.12537049  0.12366427  0.88863392  1
  O  O442  1  0.13043669  0.63101469  0.37674661  1
  O  O443  1  0.13105247  0.62808865  0.88055598  1
  O  O444  1  0.62921603  0.13218366  0.37890831  1
  O  O445  1  0.62836990  0.12899319  0.88404942  1
  O  O446  1  0.62983085  0.63150376  0.38080399  1
  O  O447  1  0.62932533  0.63046990  0.87849506  1
