# generated using pymatgen
data_V3Zn3O8
_symmetry_space_group_name_H-M   'P 1'
_cell_length_a   17.08494404
_cell_length_b   17.08524013
_cell_length_c   17.08409487
_cell_angle_alpha   90.00733551
_cell_angle_beta   89.99238948
_cell_angle_gamma   90.01557032
_symmetry_Int_Tables_number   1
_chemical_formula_structural   V3Zn3O8
_chemical_formula_sum   'V96 Zn96 O256'
_cell_volume   4986.85337049
_cell_formula_units_Z   32
loop_
 _symmetry_equiv_pos_site_id
 _symmetry_equiv_pos_as_xyz
  1  'x, y, z'
loop_
 _atom_site_type_symbol
 _atom_site_label
 _atom_site_symmetry_multiplicity
 _atom_site_fract_x
 _atom_site_fract_y
 _atom_site_fract_z
 _atom_site_occupancy
  V  V0  1  0.62385101  0.37476377  0.75062847  1
  V  V1  1  0.62541359  0.24961913  0.87659889  1
  V  V2  1  0.50019912  -0.00154984  0.50099332  1
  V  V3  1  0.62365743  0.49894406  0.12507789  1
  V  V4  1  0.49849908  0.37484793  0.87667743  1
  V  V5  1  -0.00063643  0.37773318  0.87318810  1
  V  V6  1  0.75057153  0.37450195  0.12401526  1
  V  V7  1  0.00025205  0.50121559  0.49905990  1
  V  V8  1  0.87609695  0.87659995  -0.00091134  1
  V  V9  1  0.62567861  0.37331656  0.25055873  1
  V  V10  1  0.12641103  0.12513920  0.49909683  1
  V  V11  1  0.37548816  0.74940270  0.12598878  1
  V  V12  1  0.74913569  0.62440014  0.37485770  1
  V  V13  1  0.87424691  0.62598554  0.24800312  1
  V  V14  1  0.12398885  0.62612262  0.00015631  1
  V  V15  1  0.00144437  0.00048217  0.50067076  1
  V  V16  1  0.87352826  0.37572137  -0.00141397  1
  V  V17  1  0.00093760  0.87453872  0.37478640  1
  V  V18  1  0.87447380  0.37547111  0.49874761  1
  V  V19  1  0.12507066  0.75147286  0.87519949  1
  V  V20  1  0.74982256  0.50146403  0.75035118  1
  V  V21  1  0.49982169  0.87476300  0.87587601  1
  V  V22  1  0.87511936  -0.00041722  0.37690665  1
  V  V23  1  0.37565410  0.24948921  0.62521809  1
  V  V24  1  0.62409773  0.49960921  0.62518376  1
  V  V25  1  0.12606012  0.37789566  0.74732271  1
  V  V26  1  0.37352022  0.49984631  0.37403855  1
  V  V27  1  0.75019145  0.24964157  0.50034514  1
  V  V28  1  -0.00022206  0.50149114  -0.00189703  1
  V  V29  1  0.50085456  0.87335918  0.37649896  1
  V  V30  1  0.24952425  0.75071773  0.00074673  1
  V  V31  1  0.87459953  0.12662821  0.74906437  1
  V  V32  1  0.37433050  0.49951475  0.87605048  1
  V  V33  1  0.25041754  0.62346830  0.37397026  1
  V  V34  1  0.62766772  0.12518525  0.00044550  1
  V  V35  1  0.37509410  0.87533714  0.00037551  1
  V  V36  1  0.12687580  0.24923081  0.87631835  1
  V  V37  1  0.62576259  -0.00065552  0.12559851  1
  V  V38  1  0.24967849  0.87506701  0.12565160  1
  V  V39  1  0.37485094  0.37431814  0.49926284  1
  V  V40  1  0.62526320  0.74971788  0.87598263  1
  V  V41  1  0.00001650  0.37477179  0.37296477  1
  V  V42  1  0.37511977  0.24968375  0.12371394  1
  V  V43  1  0.75124065  0.00159278  0.75245637  1
  V  V44  1  -0.00013088  0.74987940  0.74942507  1
  V  V45  1  0.37475641  0.62524653  0.75104358  1
  V  V46  1  0.50001426  0.74945085  0.75040621  1
  V  V47  1  0.74908399  0.49965493  0.24955364  1
  V  V48  1  0.24988854  0.75022916  0.50005422  1
  V  V49  1  0.50003973  0.74916960  0.25068394  1
  V  V50  1  0.62446604  0.62447863  0.50051462  1
  V  V51  1  0.75125575  0.12321831  0.37628914  1
  V  V52  1  0.62551515  0.87562897  0.75153865  1
  V  V53  1  0.12518359  0.87605524  0.74992026  1
  V  V54  1  0.87556613  0.12348939  0.25152426  1
  V  V55  1  0.87493345  0.25057713  0.62453609  1
  V  V56  1  0.62557124  0.24915649  0.37503179  1
  V  V57  1  0.49917995  0.62458959  0.12585267  1
  V  V58  1  0.74953858  0.62500066  0.87389683  1
  V  V59  1  0.25013071  0.24926067  0.49872349  1
  V  V60  1  0.37425018  0.00178222  0.87551158  1
  V  V61  1  0.37790035  0.12400312  0.24907884  1
  V  V62  1  0.25099644  0.12465949  0.37495231  1
  V  V63  1  0.12686514  0.49773469  0.12621224  1
  V  V64  1  0.25036631  0.00082071  0.75079041  1
  V  V65  1  0.24986019  0.37603230  0.62370384  1
  V  V66  1  0.49935483  0.49955981  0.50004943  1
  V  V67  1  0.25041001  0.62488457  0.87486337  1
  V  V68  1  -0.00129301  0.25132830  0.74726485  1
  V  V69  1  0.74886419  0.37562138  0.62464331  1
  V  V70  1  0.00048312  0.12422288  0.12317780  1
  V  V71  1  0.37535717  0.87436244  0.50049622  1
  V  V72  1  0.49932244  0.12521684  0.62647061  1
  V  V73  1  0.49886916  0.62494679  0.62628063  1
  V  V74  1  0.12317228  0.62450613  0.49936296  1
  V  V75  1  0.62403919  0.74945283  0.37563604  1
  V  V76  1  0.25110659  -0.00041878  0.25008518  1
  V  V77  1  0.12429619  0.00061540  0.12420308  1
  V  V78  1  0.12477778  0.75035111  0.37400287  1
  V  V79  1  0.62490628  0.12422188  0.50105414  1
  V  V80  1  -0.00040284  0.87742048  0.87505044  1
  V  V81  1  0.87639205  0.74866771  0.62606314  1
  V  V82  1  0.12579767  0.00087272  0.62406751  1
  V  V83  1  0.25048525  0.87444897  0.62437033  1
  V  V84  1  -0.00206117  0.62697741  0.12498545  1
  V  V85  1  0.87504539  0.87430889  0.50017582  1
  V  V86  1  0.00137493  0.25130883  0.25007251  1
  V  V87  1  0.50076053  0.37357946  0.37492872  1
  V  V88  1  0.62434436  -0.00047403  0.62739138  1
  V  V89  1  0.87411069  0.49979779  0.37399768  1
  V  V90  1  0.12495492  0.87447173  0.25054995  1
  V  V91  1  0.49850939  0.49842014  0.00064178  1
  V  V92  1  0.75035691  0.74981213  0.50109329  1
  V  V93  1  0.75082561  0.87359809  0.12542387  1
  V  V94  1  0.62511937  0.62492356  -0.00021114  1
  V  V95  1  0.49904006  0.24959719  0.75053676  1
  Zn  Zn96  1  0.12590762  0.12477094  -0.00196381  1
  Zn  Zn97  1  0.75030688  -0.00188987  0.25291516  1
  Zn  Zn98  1  0.00164153  0.62249970  0.62688268  1
  Zn  Zn99  1  0.87483186  0.75055542  0.12557308  1
  Zn  Zn100  1  0.50259477  0.12354479  0.12617703  1
  Zn  Zn101  1  0.62626238  0.87498677  0.25119356  1
  Zn  Zn102  1  0.12515992  0.50247714  0.62333141  1
  Zn  Zn103  1  0.25033120  0.24956155  0.00050614  1
  Zn  Zn104  1  0.24947386  0.12651398  0.87623266  1
  Zn  Zn105  1  0.12761086  0.37536928  0.25034826  1
  Zn  Zn106  1  0.12688001  0.25180095  0.37411053  1
  Zn  Zn107  1  0.75356598  0.12867375  0.87679145  1
  Zn  Zn108  1  0.87571830  0.50374704  0.87179075  1
  Zn  Zn109  1  0.37321679  0.62273367  0.24979060  1
  Zn  Zn110  1  0.75104693  0.74898137  -0.00033043  1
  Zn  Zn111  1  0.87759404  0.00402765  0.87466039  1
  Zn  Zn112  1  0.37238739  0.37272266  0.00145111  1
  Zn  Zn113  1  0.25015079  0.50191456  0.74792826  1
  Zn  Zn114  1  0.87713827  0.62397232  0.75123898  1
  Zn  Zn115  1  0.37440887  0.74923251  0.62606007  1
  Zn  Zn116  1  0.37329220  0.12592499  0.75163060  1
  Zn  Zn117  1  0.50257998  0.24742599  0.24966805  1
  Zn  Zn118  1  0.37724605  -0.00102833  0.37472813  1
  Zn  Zn119  1  0.00080907  0.00308283  -0.00392196  1
  Zn  Zn120  1  0.87422600  0.24870214  0.12318533  1
  Zn  Zn121  1  0.00084543  0.12640895  0.62323729  1
  Zn  Zn122  1  0.25061190  0.37341554  0.12514667  1
  Zn  Zn123  1  0.50049442  -0.00073155  0.00118532  1
  Zn  Zn124  1  0.74979511  0.87433182  0.62646131  1
  Zn  Zn125  1  0.75089926  0.25056725  -0.00008646  1
  Zn  Zn126  1  -0.00246495  0.75107056  0.24876816  1
  Zn  Zn127  1  0.25091401  0.49754329  0.24926767  1
  Zn  Zn128  1  0.18885078  0.18675615  0.18766898  1
  Zn  Zn129  1  0.18916868  0.18678459  0.68814733  1
  Zn  Zn130  1  0.18712055  0.68578368  0.18924622  1
  Zn  Zn131  1  0.18676994  0.68733352  0.68639069  1
  Zn  Zn132  1  0.69165862  0.18764080  0.18758339  1
  Zn  Zn133  1  0.68725779  0.18751508  0.68883307  1
  Zn  Zn134  1  0.68655250  0.68868969  0.18733011  1
  Zn  Zn135  1  0.68770360  0.68744335  0.68819636  1
  Zn  Zn136  1  0.31081636  0.31306298  0.30850536  1
  Zn  Zn137  1  0.31198431  0.31401120  0.81166071  1
  Zn  Zn138  1  0.31388917  0.81133010  0.31306754  1
  Zn  Zn139  1  0.31253787  0.81298746  0.81216784  1
  Zn  Zn140  1  0.81338530  0.31057782  0.31133286  1
  Zn  Zn141  1  0.81101102  0.31349523  0.81320983  1
  Zn  Zn142  1  0.81226745  0.81166383  0.31185079  1
  Zn  Zn143  1  0.81242616  0.81290258  0.81347734  1
  Zn  Zn144  1  0.18580513  0.43731080  0.43598868  1
  Zn  Zn145  1  0.19101661  0.43534429  0.94038773  1
  Zn  Zn146  1  0.18931538  0.93847001  0.43640045  1
  Zn  Zn147  1  0.18682658  0.93947453  0.93933362  1
  Zn  Zn148  1  0.68707319  0.43715559  0.43717861  1
  Zn  Zn149  1  0.68708894  0.43870874  0.93677438  1
  Zn  Zn150  1  0.68755092  0.93584203  0.43992548  1
  Zn  Zn151  1  0.68975122  0.93832431  0.93801476  1
  Zn  Zn152  1  0.30856476  0.06623302  0.05998558  1
  Zn  Zn153  1  0.31379878  0.06169794  0.56266753  1
  Zn  Zn154  1  0.31215413  0.56305187  0.06144403  1
  Zn  Zn155  1  0.31120537  0.56262126  0.56229057  1
  Zn  Zn156  1  0.81276404  0.06069512  0.06315161  1
  Zn  Zn157  1  0.81273013  0.06216775  0.56526968  1
  Zn  Zn158  1  0.81194358  0.56152328  0.06104872  1
  Zn  Zn159  1  0.81325997  0.56317187  0.56320294  1
  Zn  Zn160  1  0.43721892  0.43515597  0.19011546  1
  Zn  Zn161  1  0.43591997  0.43790691  0.68914759  1
  Zn  Zn162  1  0.43974899  0.93593999  0.18838926  1
  Zn  Zn163  1  0.43658529  0.93617724  0.68847759  1
  Zn  Zn164  1  0.93804654  0.43911057  0.18509982  1
  Zn  Zn165  1  0.93677137  0.43935211  0.68542333  1
  Zn  Zn166  1  0.93739753  0.93867931  0.18843659  1
  Zn  Zn167  1  0.93788136  0.93754690  0.68659747  1
  Zn  Zn168  1  0.06377048  0.06270760  0.31269003  1
  Zn  Zn169  1  0.06026793  0.06423704  0.80939246  1
  Zn  Zn170  1  0.06157588  0.56389530  0.31082666  1
  Zn  Zn171  1  0.06294502  0.56419501  0.81183877  1
  Zn  Zn172  1  0.56399477  0.05939251  0.31302360  1
  Zn  Zn173  1  0.56164566  0.06378149  0.81463237  1
  Zn  Zn174  1  0.56048831  0.56177478  0.31188713  1
  Zn  Zn175  1  0.56162060  0.56195331  0.81345335  1
  Zn  Zn176  1  0.43786999  0.18670281  0.43687141  1
  Zn  Zn177  1  0.44167393  0.18487333  0.94096281  1
  Zn  Zn178  1  0.43542513  0.68728073  0.43817039  1
  Zn  Zn179  1  0.43783735  0.68683550  0.93831809  1
  Zn  Zn180  1  0.93919759  0.18738504  0.43725287  1
  Zn  Zn181  1  0.93893529  0.19037538  0.93476175  1
  Zn  Zn182  1  0.93782618  0.68726492  0.43602389  1
  Zn  Zn183  1  0.93566464  0.69015531  0.93723812  1
  Zn  Zn184  1  0.05934164  0.31345379  0.06114115  1
  Zn  Zn185  1  0.06261254  0.31291543  0.56036168  1
  Zn  Zn186  1  0.06027669  0.81314968  0.06317532  1
  Zn  Zn187  1  0.06293155  0.81225658  0.56188220  1
  Zn  Zn188  1  0.55972858  0.31009869  0.06384253  1
  Zn  Zn189  1  0.56201071  0.31177083  0.56232656  1
  Zn  Zn190  1  0.56232904  0.81203496  0.06187069  1
  Zn  Zn191  1  0.56266798  0.81214455  0.56498058  1
  O  O192  1  0.11456912  0.11986242  0.12643887  1
  O  O193  1  0.12531764  0.11829257  0.61753814  1
  O  O194  1  0.11890475  0.61889041  0.11875326  1
  O  O195  1  0.12231181  0.62391251  0.61550880  1
  O  O196  1  0.62876984  0.11576343  0.11881803  1
  O  O197  1  0.61896182  0.12027033  0.62007625  1
  O  O198  1  0.61937323  0.61858467  0.12007913  1
  O  O199  1  0.61913064  0.61883183  0.61995371  1
  O  O200  1  0.38087639  0.37873771  0.38080738  1
  O  O201  1  0.38188545  0.38111578  0.87549677  1
  O  O202  1  0.38273535  0.87571819  0.38229438  1
  O  O203  1  0.37944243  0.88240732  0.88047743  1
  O  O204  1  0.87849561  0.38067656  0.37981821  1
  O  O205  1  0.88039715  0.37800547  0.88234518  1
  O  O206  1  0.88016260  0.87944333  0.38098548  1
  O  O207  1  0.88060229  0.87662521  0.88304378  1
  O  O208  1  0.25374039  0.00597555  0.36773843  1
  O  O209  1  0.25949670  -0.00173503  0.86931714  1
  O  O210  1  0.25659194  0.50609495  0.37585568  1
  O  O211  1  0.25583220  0.50773340  0.87431256  1
  O  O212  1  0.75662714  0.00567700  0.37723931  1
  O  O213  1  0.75173425  0.00305677  0.86183151  1
  O  O214  1  0.75402835  0.50488921  0.36960553  1
  O  O215  1  0.74893294  0.50751458  0.86739133  1
  O  O216  1  0.23721644  0.50179153  0.12421702  1
  O  O217  1  0.24740588  0.49127040  0.62652786  1
  O  O218  1  0.24446994  0.99413264  0.13051588  1
  O  O219  1  0.24535230  0.99388159  0.63022289  1
  O  O220  1  0.74276106  0.49460654  0.13063865  1
  O  O221  1  0.74321479  0.49493862  0.62870130  1
  O  O222  1  0.74242164  0.99024286  0.12678753  1
  O  O223  1  0.74328752  0.99898092  0.63581038  1
  O  O224  1  -0.00215354  0.36571579  0.25375092  1
  O  O225  1  0.00753544  0.37159127  0.75268936  1
  O  O226  1  0.00693814  0.87504475  0.25724492  1
  O  O227  1  0.00635060  0.87015927  0.75479714  1
  O  O228  1  0.50894995  0.37279411  0.25841361  1
  O  O229  1  0.50541127  0.36967906  0.75565641  1
  O  O230  1  0.50276325  0.86705543  0.25762650  1
  O  O231  1  0.50571341  0.86947686  0.75619950  1
  O  O232  1  0.48957192  0.12371499  0.25019524  1
  O  O233  1  0.49894645  0.13196692  0.74389464  1
  O  O234  1  0.49867235  0.63110957  0.24321524  1
  O  O235  1  0.49512226  0.62974287  0.74572294  1
  O  O236  1  0.99567026  0.13206986  0.24379099  1
  O  O237  1  0.99275392  0.13357097  0.74485461  1
  O  O238  1  0.99116971  0.62597626  0.24321621  1
  O  O239  1  0.99825747  0.63421385  0.74787470  1
  O  O240  1  0.37699283  0.24754621  0.01220868  1
  O  O241  1  0.37053585  0.25527857  0.50536129  1
  O  O242  1  0.36931551  0.75537994  0.00548482  1
  O  O243  1  0.36789378  0.75624195  0.50261413  1
  O  O244  1  0.87471400  0.26426410  0.00002946  1
  O  O245  1  0.86922516  0.25569898  0.50397021  1
  O  O246  1  0.87269540  0.76410650  0.00246917  1
  O  O247  1  0.87058221  0.75447560  0.50679813  1
  O  O248  1  0.13237425  0.24344635  0.49837981  1
  O  O249  1  0.12088932  0.25137236  0.98555804  1
  O  O250  1  0.13022230  0.74564189  0.49303562  1
  O  O251  1  0.13026324  0.74642071  0.99478929  1
  O  O252  1  0.63097567  0.24427359  0.49565388  1
  O  O253  1  0.62573792  0.24097158  0.99584093  1
  O  O254  1  0.62992534  0.74335250  0.49628934  1
  O  O255  1  0.62532600  0.74266423  0.99299763  1
  O  O256  1  0.49118944  0.24433580  0.13026115  1
  O  O257  1  0.49522454  0.24541243  0.63010021  1
  O  O258  1  0.49526052  0.74476077  0.13002163  1
  O  O259  1  0.49958740  0.74219927  0.63279090  1
  O  O260  1  0.99822083  0.24155137  0.13294355  1
  O  O261  1  0.99209147  0.25100115  0.62940860  1
  O  O262  1  0.99742368  0.74193908  0.12765390  1
  O  O263  1  0.99088412  0.75051016  0.62966101  1
  O  O264  1  0.00002979  0.25549265  0.36538322  1
  O  O265  1  0.00723006  0.25874406  0.86629584  1
  O  O266  1  0.00674244  0.75728796  0.37380083  1
  O  O267  1  0.00626928  0.75707499  0.86965527  1
  O  O268  1  0.50820941  0.25578546  0.37524539  1
  O  O269  1  0.50533275  0.25490801  0.87003667  1
  O  O270  1  0.50543009  0.75326065  0.37148312  1
  O  O271  1  0.50527904  0.75497930  0.86987573  1
  O  O272  1  0.24671419  0.12963358  0.49483538  1
  O  O273  1  0.24304085  0.13143544  0.99382417  1
  O  O274  1  0.24383062  0.63075067  0.49395586  1
  O  O275  1  0.24392966  0.63241794  0.99442540  1
  O  O276  1  0.74462291  0.13006861  0.49644356  1
  O  O277  1  0.74049025  0.12682416  0.99889639  1
  O  O278  1  0.74395826  0.62924501  0.49435902  1
  O  O279  1  0.74242063  0.62521523  0.99301231  1
  O  O280  1  0.25484881  0.36810018  0.00609779  1
  O  O281  1  0.25575886  0.36894787  0.50370801  1
  O  O282  1  0.25485084  0.86945399  0.00640249  1
  O  O283  1  0.25489588  0.87006104  0.50471558  1
  O  O284  1  0.75817130  0.37707893  0.00496359  1
  O  O285  1  0.75446315  0.36975182  0.50472885  1
  O  O286  1  0.75870595  0.87464978  0.00763130  1
  O  O287  1  0.75696436  0.86745988  0.50290741  1
  O  O288  1  0.12326814  0.49988274  0.23695624  1
  O  O289  1  0.12599294  0.48804420  0.74820578  1
  O  O290  1  0.13155974  0.99413030  0.24478224  1
  O  O291  1  0.13032383  0.99478857  0.74418621  1
  O  O292  1  0.62999877  0.49371542  0.24510815  1
  O  O293  1  0.62854418  0.49399178  0.74398492  1
  O  O294  1  0.62895529  0.99726076  0.23926356  1
  O  O295  1  0.63174178  0.99614459  0.74694589  1
  O  O296  1  0.37005528  0.00802701  0.24967033  1
  O  O297  1  0.36951470  -0.00084444  0.76033566  1
  O  O298  1  0.37403744  0.50204105  0.25919567  1
  O  O299  1  0.37393870  0.50722583  0.75791220  1
  O  O300  1  0.87457766  0.00611016  0.25978249  1
  O  O301  1  0.86604767  0.00612510  0.74748508  1
  O  O302  1  0.86816390  0.50490870  0.25472136  1
  O  O303  1  0.86591824  0.50261076  0.75039407  1
  O  O304  1  0.11483441  0.37236585  0.37183363  1
  O  O305  1  0.12034964  0.36935618  0.86546844  1
  O  O306  1  0.12066423  0.87043780  0.37024060  1
  O  O307  1  0.12057538  0.87022892  0.86957970  1
  O  O308  1  0.62125073  0.36904453  0.37085239  1
  O  O309  1  0.61831899  0.37032913  0.86973381  1
  O  O310  1  0.61928097  0.86683111  0.37626732  1
  O  O311  1  0.61976085  0.87042779  0.87110346  1
  O  O312  1  0.37654937  0.12933292  0.13445902  1
  O  O313  1  0.38216785  0.13160775  0.62604415  1
  O  O314  1  0.38164204  0.63193747  0.12509587  1
  O  O315  1  0.38144470  0.62572203  0.63184745  1
  O  O316  1  0.88448300  0.12448182  0.13155883  1
  O  O317  1  0.87600103  0.13396045  0.63029298  1
  O  O318  1  0.87962080  0.62483798  0.12977222  1
  O  O319  1  0.87677175  0.63821971  0.62546611  1
  O  O320  1  0.26256072  0.24851791  0.12528867  1
  O  O321  1  0.25649175  0.25559201  0.61890260  1
  O  O322  1  0.25456756  0.75524249  0.11998219  1
  O  O323  1  0.25032718  0.75726813  0.61806761  1
  O  O324  1  0.75482987  0.25919145  0.12220924  1
  O  O325  1  0.75388194  0.25649277  0.61950345  1
  O  O326  1  0.75004864  0.76147451  0.12176244  1
  O  O327  1  0.75903083  0.75053251  0.61977094  1
  O  O328  1  0.24997931  0.24300698  0.38121122  1
  O  O329  1  0.23762761  0.25018496  0.87260238  1
  O  O330  1  0.24436195  0.74486377  0.38087245  1
  O  O331  1  0.24452446  0.74608498  0.88137708  1
  O  O332  1  0.74562543  0.24387639  0.38172390  1
  O  O333  1  0.74014891  0.24937676  0.87739177  1
  O  O334  1  0.74444729  0.74351207  0.38125243  1
  O  O335  1  0.74204886  0.74358718  0.87546212  1
  O  O336  1  -0.00002710  0.12580480  0.01228900  1
  O  O337  1  0.00740210  0.11828762  0.50053043  1
  O  O338  1  0.00493467  0.62138706  0.00385949  1
  O  O339  1  0.00585347  0.61840103  0.49820742  1
  O  O340  1  0.51536527  0.12000063  0.00408987  1
  O  O341  1  0.50598054  0.11929419  0.50600067  1
  O  O342  1  0.50572952  0.61892912  0.00601496  1
  O  O343  1  0.50520513  0.61906816  0.50572111  1
  O  O344  1  0.49505911  0.38009920  0.49523972  1
  O  O345  1  0.49874658  0.38146261  0.99367783  1
  O  O346  1  0.49563310  0.87872536  0.49665842  1
  O  O347  1  0.49284214  0.87549973  0.99344644  1
  O  O348  1  0.99290175  0.37994213  0.49290810  1
  O  O349  1  0.99147378  0.38161120  0.99366610  1
  O  O350  1  0.99533827  0.88083527  0.49405931  1
  O  O351  1  0.99161788  0.87733307  0.99446554  1
  O  O352  1  0.49537640  0.49375177  0.38180297  1
  O  O353  1  0.49478399  0.49465426  0.88099584  1
  O  O354  1  0.50100171  0.99195169  0.38362943  1
  O  O355  1  0.49069922  0.99282768  0.87613219  1
  O  O356  1  0.99224902  0.49475840  0.37847792  1
  O  O357  1  0.99982293  0.49498420  0.88079782  1
  O  O358  1  0.99535291  0.99425674  0.38143004  1
  O  O359  1  0.99836654  0.99250490  0.87493723  1
  O  O360  1  0.00578989  0.01079362  0.12678304  1
  O  O361  1  0.00785007  0.00087697  0.61814510  1
  O  O362  1  0.00699336  0.50735056  0.11764958  1
  O  O363  1  0.00133303  0.50216103  0.61441635  1
  O  O364  1  0.51362379  -0.00125605  0.12277398  1
  O  O365  1  0.50540711  0.00500862  0.62151425  1
  O  O366  1  0.50501522  0.50420539  0.12094239  1
  O  O367  1  0.50501208  0.50437639  0.61970992  1
  O  O368  1  0.24454359  0.37907008  0.24384109  1
  O  O369  1  0.24033431  0.37613113  0.74284609  1
  O  O370  1  0.24548690  0.87950505  0.24475263  1
  O  O371  1  0.24414102  0.88000375  0.74464812  1
  O  O372  1  0.74557400  0.38073386  0.24534993  1
  O  O373  1  0.74281695  0.38066770  0.74353133  1
  O  O374  1  0.74861597  0.87663652  0.23917642  1
  O  O375  1  0.74404311  0.88473603  0.74962767  1
  O  O376  1  0.25870421  0.11908497  0.25478006  1
  O  O377  1  0.25303014  0.11636879  0.75402374  1
  O  O378  1  0.25207882  0.62169150  0.25930181  1
  O  O379  1  0.25541933  0.62531808  0.75728669  1
  O  O380  1  0.75807469  0.12328831  0.25880188  1
  O  O381  1  0.75513404  0.11711645  0.75054701  1
  O  O382  1  0.75304694  0.61857390  0.25521828  1
  O  O383  1  0.74915785  0.61841543  0.75673824  1
  O  O384  1  0.37052318  0.12308736  0.36542551  1
  O  O385  1  0.37641611  0.11188546  0.87458662  1
  O  O386  1  0.36843113  0.61760543  0.37581759  1
  O  O387  1  0.37001628  0.62012532  0.87073184  1
  O  O388  1  0.87042623  0.11877808  0.37243636  1
  O  O389  1  0.87369492  0.12465365  0.86585840  1
  O  O390  1  0.86786039  0.61900127  0.36963165  1
  O  O391  1  0.86522788  0.62480162  0.87280629  1
  O  O392  1  0.12147052  0.38802325  0.12399549  1
  O  O393  1  0.13056232  0.37480744  0.63314059  1
  O  O394  1  0.13038343  0.88000180  0.13058690  1
  O  O395  1  0.13071754  0.88079314  0.63008447  1
  O  O396  1  0.62980970  0.37976718  0.13055740  1
  O  O397  1  0.62923085  0.38009337  0.62983640  1
  O  O398  1  0.63441298  0.88254067  0.12257884  1
  O  O399  1  0.62612656  0.88151686  0.63343448  1
  O  O400  1  0.11170620  0.25019264  0.25067200  1
  O  O401  1  0.11974164  0.26002792  0.75449419  1
  O  O402  1  0.12403405  0.75727058  0.25682629  1
  O  O403  1  0.12048690  0.75699851  0.75563350  1
  O  O404  1  0.62636134  0.25515859  0.25774897  1
  O  O405  1  0.61874986  0.25589394  0.75487759  1
  O  O406  1  0.61835022  0.75066262  0.25804427  1
  O  O407  1  0.61955900  0.75549460  0.75604309  1
  O  O408  1  0.37671182  0.23819945  0.24339140  1
  O  O409  1  0.38166501  0.24940671  0.74347449  1
  O  O410  1  0.38180723  0.74794771  0.24311858  1
  O  O411  1  0.38227787  0.74359602  0.75030513  1
  O  O412  1  0.88590045  0.24287695  0.24894514  1
  O  O413  1  0.87868986  0.24774544  0.74368887  1
  O  O414  1  0.87598416  0.74107826  0.24773354  1
  O  O415  1  0.88028568  0.75143487  0.74034269  1
  O  O416  1  0.38091202  0.49355850  0.49488031  1
  O  O417  1  0.38207031  0.49952218  0.99377235  1
  O  O418  1  0.38296981  0.99279375  0.49912324  1
  O  O419  1  0.37494995  0.99374774  0.99191274  1
  O  O420  1  0.87830228  0.49467402  0.49332151  1
  O  O421  1  0.88083073  0.49080490  0.99725697  1
  O  O422  1  0.88062332  0.99458352  0.49690279  1
  O  O423  1  0.87702686  0.98886721  0.99697646  1
  O  O424  1  0.12087566  0.00252672  0.00886183  1
  O  O425  1  0.12121730  0.00480533  0.50479123  1
  O  O426  1  0.11935746  0.50666278  0.00610012  1
  O  O427  1  0.11723964  0.50653530  0.49903099  1
  O  O428  1  0.62681605  0.00749653  0.00824634  1
  O  O429  1  0.62018319  0.00490265  0.50756866  1
  O  O430  1  0.61838442  0.50492726  0.00603499  1
  O  O431  1  0.61951701  0.50458012  0.50536837  1
  O  O432  1  0.37670680  0.36154729  0.12571836  1
  O  O433  1  0.37084159  0.36947373  0.61895698  1
  O  O434  1  0.36947220  0.86953480  0.12010118  1
  O  O435  1  0.36830245  0.87278635  0.61917356  1
  O  O436  1  0.86987601  0.37648211  0.11416181  1
  O  O437  1  0.86763877  0.37022556  0.61807112  1
  O  O438  1  0.86726124  0.87692549  0.11778354  1
  O  O439  1  0.87432094  0.86418852  0.61882924  1
  O  O440  1  0.13319297  0.12602057  0.38116190  1
  O  O441  1  0.12191793  0.13855017  0.87297508  1
  O  O442  1  0.12982888  0.63065377  0.37974060  1
  O  O443  1  0.13023797  0.63212869  0.88060767  1
  O  O444  1  0.63097234  0.12876531  0.38192637  1
  O  O445  1  0.62613100  0.13038716  0.88475096  1
  O  O446  1  0.62970034  0.62877878  0.38132935  1
  O  O447  1  0.62929388  0.62988203  0.88035035  1
