# generated using pymatgen
data_V3Zn3O8
_symmetry_space_group_name_H-M   'P 1'
_cell_length_a   17.08709160
_cell_length_b   17.08879332
_cell_length_c   17.08900679
_cell_angle_alpha   90.00131398
_cell_angle_beta   89.98182199
_cell_angle_gamma   90.00524702
_symmetry_Int_Tables_number   1
_chemical_formula_structural   V3Zn3O8
_chemical_formula_sum   'V96 Zn96 O256'
_cell_volume   4989.95171759
_cell_formula_units_Z   32
loop_
 _symmetry_equiv_pos_site_id
 _symmetry_equiv_pos_as_xyz
  1  'x, y, z'
loop_
 _atom_site_type_symbol
 _atom_site_label
 _atom_site_symmetry_multiplicity
 _atom_site_fract_x
 _atom_site_fract_y
 _atom_site_fract_z
 _atom_site_occupancy
  V  V0  1  0.12302821  0.49958950  0.12501068  1
  V  V1  1  0.74851311  0.24915847  -0.00062385  1
  V  V2  1  0.12736933  0.75016751  0.37671292  1
  V  V3  1  0.37632746  0.62699629  0.74960896  1
  V  V4  1  -0.00131459  0.37572579  0.37525074  1
  V  V5  1  0.74676461  0.37565947  0.62619052  1
  V  V6  1  0.62515822  0.75212296  0.87331397  1
  V  V7  1  0.62505236  0.75040194  0.37465814  1
  V  V8  1  0.12378297  0.50031532  0.62491343  1
  V  V9  1  0.25011573  0.74833955  0.00016947  1
  V  V10  1  0.37401819  0.12530155  0.25003647  1
  V  V11  1  0.74968987  0.87633778  0.62588558  1
  V  V12  1  0.12327260  0.37443891  0.25095193  1
  V  V13  1  0.25023656  0.12539408  0.87451216  1
  V  V14  1  0.62431489  0.49967446  0.12530773  1
  V  V15  1  0.12417890  0.24921575  0.37531873  1
  V  V16  1  0.37346162  0.24950263  0.12456431  1
  V  V17  1  -0.00013410  0.49951545  0.00053414  1
  V  V18  1  0.87446236  0.24866855  0.12425864  1
  V  V19  1  0.75022213  0.12495186  0.37427588  1
  V  V20  1  0.12502993  0.00083161  0.62468526  1
  V  V21  1  0.24986288  0.37566569  0.62434024  1
  V  V22  1  0.62424348  0.12562094  0.49968763  1
  V  V23  1  0.24957764  0.00051947  0.74914155  1
  V  V24  1  -0.00122902  0.24909482  0.74996043  1
  V  V25  1  0.87451032  0.00090073  0.87287299  1
  V  V26  1  0.24970276  0.50031112  0.25184443  1
  V  V27  1  0.00086476  0.62390425  0.62455136  1
  V  V28  1  0.37439915  0.37436323  -0.00083199  1
  V  V29  1  0.12427505  0.12549661  0.49957235  1
  V  V30  1  0.75163859  0.74958668  0.00090289  1
  V  V31  1  0.37514120  0.00083055  0.37417992  1
  V  V32  1  0.37549601  0.74946715  0.12471558  1
  V  V33  1  0.25016707  0.75007644  0.50007612  1
  V  V34  1  -0.00068155  0.12502661  0.12502397  1
  V  V35  1  0.37630752  0.87516437  -0.00101091  1
  V  V36  1  0.25117579  0.87461413  0.12512865  1
  V  V37  1  0.87563191  0.87501755  0.50010762  1
  V  V38  1  0.50086048  0.87469864  0.37458758  1
  V  V39  1  0.37544587  0.50022910  0.87551292  1
  V  V40  1  0.87446772  0.49901345  0.87601858  1
  V  V41  1  -0.00117932  0.74901242  0.24895074  1
  V  V42  1  0.24991218  0.50038002  0.75033284  1
  V  V43  1  0.12479591  0.37442831  0.74929738  1
  V  V44  1  0.49883195  0.50001047  0.00066954  1
  V  V45  1  0.37497438  0.37673696  0.49827549  1
  V  V46  1  0.87612096  0.74948995  0.62452371  1
  V  V47  1  0.25022925  0.24967451  -0.00088502  1
  V  V48  1  0.75080356  0.74957468  0.49929942  1
  V  V49  1  0.25147588  0.00019738  0.25028823  1
  V  V50  1  0.00207021  -0.00163993  0.00017180  1
  V  V51  1  0.50001054  0.74967349  0.25035788  1
  V  V52  1  0.62542128  -0.00013558  0.12370041  1
  V  V53  1  0.75120777  0.62446715  0.37414634  1
  V  V54  1  0.12563894  0.24965254  0.87424097  1
  V  V55  1  0.62534236  0.62453169  0.50097755  1
  V  V56  1  0.12518591  0.74861899  0.87578080  1
  V  V57  1  0.37461904  0.12555228  0.74840147  1
  V  V58  1  0.62439809  0.25073729  0.37379552  1
  V  V59  1  0.50041732  0.25161685  0.74975440  1
  V  V60  1  0.87567680  0.62386895  0.75014971  1
  V  V61  1  0.25040640  0.87630138  0.62558101  1
  V  V62  1  0.00161107  0.87312495  0.87527014  1
  V  V63  1  0.49927396  0.25134759  0.25011741  1
  V  V64  1  0.49962108  0.00077584  0.49949358  1
  V  V65  1  -0.00014186  0.50018610  0.49985786  1
  V  V66  1  0.74953536  0.49982621  0.25011388  1
  V  V67  1  0.37567461  -0.00037236  0.87493321  1
  V  V68  1  0.37613908  0.75005666  0.62658526  1
  V  V69  1  0.87402045  0.00080983  0.37483275  1
  V  V70  1  0.37463716  0.25120013  0.62394730  1
  V  V71  1  0.87498890  0.49992929  0.37451375  1
  V  V72  1  0.49961586  0.12546824  0.62378892  1
  V  V73  1  0.62364853  0.25073484  0.87405411  1
  V  V74  1  0.74808634  0.37515222  0.12558817  1
  V  V75  1  0.12634787  0.87524431  0.25055034  1
  V  V76  1  0.49993306  0.62400100  0.12528868  1
  V  V77  1  0.74930345  0.25043119  0.49997666  1
  V  V78  1  0.50047196  -0.00042398  -0.00080838  1
  V  V79  1  0.37555201  0.87544223  0.50079814  1
  V  V80  1  0.62607108  -0.00037115  0.62573981  1
  V  V81  1  0.74934509  -0.00002422  0.24956439  1
  V  V82  1  0.62461499  0.12466538  -0.00033188  1
  V  V83  1  0.37347336  0.62409484  0.25074471  1
  V  V84  1  0.12561627  0.00002540  0.12486377  1
  V  V85  1  0.74940475  0.49958194  0.75031888  1
  V  V86  1  0.00137141  0.74891519  0.75080886  1
  V  V87  1  0.87417976  0.24802852  0.62570069  1
  V  V88  1  0.00046974  0.00048112  0.50080821  1
  V  V89  1  0.75067320  0.62536994  0.87630378  1
  V  V90  1  0.24960224  0.62474836  0.87619956  1
  V  V91  1  0.87609710  0.87337358  0.00138618  1
  V  V92  1  0.50076013  0.50221847  0.50100183  1
  V  V93  1  0.00078185  0.87583109  0.37548933  1
  V  V94  1  0.75033783  0.87457307  0.12505123  1
  V  V95  1  0.87343706  0.37475509  -0.00021733  1
  Zn  Zn96  1  0.25077102  0.62534582  0.37803121  1
  Zn  Zn97  1  0.12707349  0.62530489  0.49982033  1
  Zn  Zn98  1  -0.00231529  0.62635192  0.12560612  1
  Zn  Zn99  1  0.87422907  0.12623670  0.25037776  1
  Zn  Zn100  1  0.49971763  0.37714495  0.87319591  1
  Zn  Zn101  1  0.12561225  0.87520070  0.75032164  1
  Zn  Zn102  1  0.24961201  0.24940763  0.49923422  1
  Zn  Zn103  1  0.62358557  0.37534522  0.25145338  1
  Zn  Zn104  1  0.12477790  0.62406195  0.00100193  1
  Zn  Zn105  1  0.87406076  0.37486143  0.49893099  1
  Zn  Zn106  1  0.75102119  0.12443348  0.87304066  1
  Zn  Zn107  1  0.62536885  0.62513042  0.00042760  1
  Zn  Zn108  1  0.50304131  0.62794032  0.62763502  1
  Zn  Zn109  1  0.87504128  0.62525930  0.24844653  1
  Zn  Zn110  1  0.49988590  0.12456770  0.12426171  1
  Zn  Zn111  1  0.12689050  0.12482792  -0.00042573  1
  Zn  Zn112  1  -0.00224461  0.24973836  0.24940213  1
  Zn  Zn113  1  0.50133440  0.75232477  0.74915147  1
  Zn  Zn114  1  0.62463659  0.50323672  0.62811426  1
  Zn  Zn115  1  0.24828993  0.37283745  0.12463283  1
  Zn  Zn116  1  0.37531176  0.50140272  0.37487532  1
  Zn  Zn117  1  0.74916870  0.00139545  0.75009628  1
  Zn  Zn118  1  0.62475601  0.87506681  0.24893982  1
  Zn  Zn119  1  0.87338963  0.12395008  0.75116474  1
  Zn  Zn120  1  -0.00089836  0.12358954  0.62561470  1
  Zn  Zn121  1  0.24926582  0.12545815  0.37538006  1
  Zn  Zn122  1  -0.00077481  0.37375447  0.87500304  1
  Zn  Zn123  1  0.87450884  0.74821771  0.12625036  1
  Zn  Zn124  1  0.62432307  0.87733750  0.74985710  1
  Zn  Zn125  1  0.62206023  0.37864644  0.75144217  1
  Zn  Zn126  1  0.50056819  0.37659022  0.37503690  1
  Zn  Zn127  1  0.50100189  0.87470740  0.87228182  1
  Zn  Zn128  1  0.18712384  0.18672832  0.18807087  1
  Zn  Zn129  1  0.18740139  0.18762395  0.68526615  1
  Zn  Zn130  1  0.18575523  0.68568249  0.18768257  1
  Zn  Zn131  1  0.18826489  0.68771076  0.68768668  1
  Zn  Zn132  1  0.68647827  0.18604661  0.18701973  1
  Zn  Zn133  1  0.68840602  0.18415297  0.69114553  1
  Zn  Zn134  1  0.68665001  0.68660882  0.18766733  1
  Zn  Zn135  1  0.68861566  0.68776554  0.68809590  1
  Zn  Zn136  1  0.31060000  0.31389884  0.31270049  1
  Zn  Zn137  1  0.31301959  0.31351753  0.81243672  1
  Zn  Zn138  1  0.31376029  0.81258607  0.31326725  1
  Zn  Zn139  1  0.31189263  0.81294790  0.81257394  1
  Zn  Zn140  1  0.81300104  0.31301410  0.31023895  1
  Zn  Zn141  1  0.81062415  0.31361183  0.81289963  1
  Zn  Zn142  1  0.81238599  0.81457321  0.31204111  1
  Zn  Zn143  1  0.81218115  0.81403026  0.81145219  1
  Zn  Zn144  1  0.18595825  0.43737869  0.43769912  1
  Zn  Zn145  1  0.18767193  0.43465768  0.93647765  1
  Zn  Zn146  1  0.18843268  0.93779268  0.43795342  1
  Zn  Zn147  1  0.18843473  0.93632801  0.93732909  1
  Zn  Zn148  1  0.68634480  0.43651334  0.43731040  1
  Zn  Zn149  1  0.68570600  0.43742181  0.93871050  1
  Zn  Zn150  1  0.68703061  0.93716053  0.43814861  1
  Zn  Zn151  1  0.68922853  0.93585311  0.93862638  1
  Zn  Zn152  1  0.31371986  0.06385053  0.06222432  1
  Zn  Zn153  1  0.31022159  0.06407334  0.56042447  1
  Zn  Zn154  1  0.31192768  0.56175659  0.06367558  1
  Zn  Zn155  1  0.31269687  0.56460613  0.56415849  1
  Zn  Zn156  1  0.81221331  0.06193674  0.05972093  1
  Zn  Zn157  1  0.81149065  0.06302653  0.56166016  1
  Zn  Zn158  1  0.81367983  0.56519075  0.06560650  1
  Zn  Zn159  1  0.81351886  0.56146005  0.56146019  1
  Zn  Zn160  1  0.43525140  0.43536318  0.18513351  1
  Zn  Zn161  1  0.43809371  0.43902779  0.68671013  1
  Zn  Zn162  1  0.43947387  0.93725001  0.18658747  1
  Zn  Zn163  1  0.44004091  0.93621828  0.68925627  1
  Zn  Zn164  1  0.93561632  0.43571751  0.18863705  1
  Zn  Zn165  1  0.93594514  0.43541004  0.68716697  1
  Zn  Zn166  1  0.93616643  0.93708337  0.18823633  1
  Zn  Zn167  1  0.93917478  0.93524037  0.68827117  1
  Zn  Zn168  1  0.06165874  0.06302913  0.31139551  1
  Zn  Zn169  1  0.06276262  0.06335455  0.81203161  1
  Zn  Zn170  1  0.06375208  0.56529056  0.31514137  1
  Zn  Zn171  1  0.06268417  0.56212335  0.81373031  1
  Zn  Zn172  1  0.56286324  0.06367955  0.31073268  1
  Zn  Zn173  1  0.56215587  0.06322264  0.81146512  1
  Zn  Zn174  1  0.56281486  0.56230559  0.31364702  1
  Zn  Zn175  1  0.56276911  0.56557674  0.81309274  1
  Zn  Zn176  1  0.43691952  0.18836811  0.43566349  1
  Zn  Zn177  1  0.43865490  0.18652013  0.93724015  1
  Zn  Zn178  1  0.43617368  0.68640283  0.43717370  1
  Zn  Zn179  1  0.43937770  0.68673707  0.93701210  1
  Zn  Zn180  1  0.93758785  0.18711895  0.43895179  1
  Zn  Zn181  1  0.93891016  0.18618873  0.93889927  1
  Zn  Zn182  1  0.93898068  0.68598429  0.43622206  1
  Zn  Zn183  1  0.93743759  0.68582950  0.93857078  1
  Zn  Zn184  1  0.06273686  0.31223098  0.06137664  1
  Zn  Zn185  1  0.06099272  0.31366799  0.56112419  1
  Zn  Zn186  1  0.06440661  0.81257045  0.06286052  1
  Zn  Zn187  1  0.06433404  0.81320998  0.56328195  1
  Zn  Zn188  1  0.56058776  0.31379024  0.06261186  1
  Zn  Zn189  1  0.56208552  0.31331405  0.56215612  1
  Zn  Zn190  1  0.56405388  0.81283241  0.06037417  1
  Zn  Zn191  1  0.56274236  0.81240169  0.56299054  1
  O  O192  1  0.11604469  0.11836961  0.12392780  1
  O  O193  1  0.12326526  0.11895109  0.61751659  1
  O  O194  1  0.12113510  0.61142033  0.12327768  1
  O  O195  1  0.11815979  0.61784828  0.62520060  1
  O  O196  1  0.62350452  0.11785950  0.11700079  1
  O  O197  1  0.61907450  0.12108652  0.61819248  1
  O  O198  1  0.61734024  0.61795341  0.12361892  1
  O  O199  1  0.62480659  0.62412543  0.61602860  1
  O  O200  1  0.37546841  0.37744247  0.38755835  1
  O  O201  1  0.37583951  0.38274153  0.88081495  1
  O  O202  1  0.38162954  0.88089123  0.38094487  1
  O  O203  1  0.37419284  0.88212108  0.88226512  1
  O  O204  1  0.88089279  0.38109811  0.37642843  1
  O  O205  1  0.87535045  0.38145254  0.88233673  1
  O  O206  1  0.88057132  0.88116351  0.38166612  1
  O  O207  1  0.88217718  0.88140827  0.88081856  1
  O  O208  1  0.25745693  -0.00073527  0.36752575  1
  O  O209  1  0.25558884  0.00555772  0.86945413  1
  O  O210  1  0.24862647  0.50109445  0.36188394  1
  O  O211  1  0.25490994  0.50482006  0.86954906  1
  O  O212  1  0.75427525  0.00518645  0.37102043  1
  O  O213  1  0.76401188  -0.00118076  0.87568610  1
  O  O214  1  0.75455742  0.50471257  0.37065397  1
  O  O215  1  0.75535035  0.50483903  0.87111313  1
  O  O216  1  0.23977070  0.49822519  0.13377449  1
  O  O217  1  0.24408788  0.49522143  0.63130461  1
  O  O218  1  0.24615499  0.99424277  0.13025772  1
  O  O219  1  0.24541751  0.99565181  0.62961060  1
  O  O220  1  0.74438444  0.49491864  0.12973536  1
  O  O221  1  0.75195536  0.49031173  0.63040968  1
  O  O222  1  0.74537591  0.99467187  0.12884991  1
  O  O223  1  0.74398143  0.99354398  0.62292060  1
  O  O224  1  0.00625244  0.37334084  0.25708877  1
  O  O225  1  0.00526999  0.36441684  0.75030417  1
  O  O226  1  0.00671613  0.86930187  0.25602755  1
  O  O227  1  0.00221779  0.86584842  0.75715133  1
  O  O228  1  0.49851599  0.36284245  0.25227091  1
  O  O229  1  0.50193022  0.36772520  0.75111044  1
  O  O230  1  0.50084593  0.86765542  0.25678237  1
  O  O231  1  0.50499541  0.87087784  0.75476627  1
  O  O232  1  0.49319838  0.13563364  0.24885332  1
  O  O233  1  0.49321108  0.13101669  0.74258761  1
  O  O234  1  0.49350188  0.62979083  0.24503026  1
  O  O235  1  0.49072840  0.62864581  0.74821814  1
  O  O236  1  0.99719375  0.12516173  0.23651165  1
  O  O237  1  0.99827444  0.13836348  0.74683722  1
  O  O238  1  1.00031765  0.63853421  0.25115032  1
  O  O239  1  0.99430749  0.62882368  0.74475498  1
  O  O240  1  0.37005906  0.25395687  0.00397732  1
  O  O241  1  0.37493047  0.26029751  0.50515136  1
  O  O242  1  0.36979716  0.75464032  0.00557350  1
  O  O243  1  0.37030871  0.75687177  0.50545183  1
  O  O244  1  0.86904155  0.25497388  0.00409322  1
  O  O245  1  0.86851653  0.25128415  0.50973816  1
  O  O246  1  0.87015532  0.75667061  0.00054545  1
  O  O247  1  0.87104180  0.75512257  0.50462109  1
  O  O248  1  0.12433104  0.24541876  0.49139091  1
  O  O249  1  0.13156999  0.24944271  0.99215457  1
  O  O250  1  0.13234349  0.75134160  0.49433374  1
  O  O251  1  0.13194682  0.74723258  0.99476439  1
  O  O252  1  0.62905469  0.24420641  0.49476757  1
  O  O253  1  0.62798252  0.24535382  0.99291579  1
  O  O254  1  0.63143118  0.74481100  0.49395453  1
  O  O255  1  0.63311981  0.74817344  0.99095275  1
  O  O256  1  0.49315033  0.24855344  0.13425669  1
  O  O257  1  0.49467119  0.24459518  0.62917805  1
  O  O258  1  0.49474439  0.74485328  0.12973712  1
  O  O259  1  0.49100524  0.74875678  0.62604270  1
  O  O260  1  0.99467012  0.24036848  0.12317648  1
  O  O261  1  0.99039680  0.25123983  0.63241951  1
  O  O262  1  1.00163493  0.75111002  0.13761810  1
  O  O263  1  0.99526516  0.74464150  0.63004374  1
  O  O264  1  0.00868811  0.25543080  0.37430647  1
  O  O265  1  0.00505193  0.25105324  0.86618427  1
  O  O266  1  0.00628984  0.75709619  0.36879568  1
  O  O267  1  0.00519701  0.75290943  0.87069790  1
  O  O268  1  0.50524477  0.25076775  0.36588311  1
  O  O269  1  0.50793964  0.25090019  0.86871329  1
  O  O270  1  0.50481698  0.75498170  0.37046904  1
  O  O271  1  0.51305476  0.75046757  0.87555419  1
  O  O272  1  0.24082393  0.12841234  0.49539698  1
  O  O273  1  0.24962322  0.13130556  0.99220908  1
  O  O274  1  0.24826694  0.63399955  0.49912477  1
  O  O275  1  0.24922053  0.63066607  0.99417094  1
  O  O276  1  0.74336555  0.13095502  0.49426454  1
  O  O277  1  0.74283591  0.13194528  0.99682000  1
  O  O278  1  0.74597708  0.63046588  0.49415380  1
  O  O279  1  0.75036985  0.63131720  0.99318502  1
  O  O280  1  0.25660241  0.36744432  0.00076395  1
  O  O281  1  0.25943949  0.37631848  0.50594630  1
  O  O282  1  0.25629942  0.86866293  0.00620957  1
  O  O283  1  0.25711734  0.87123666  0.50609085  1
  O  O284  1  0.75448812  0.36934761  0.00618448  1
  O  O285  1  0.75098487  0.36870112  0.50974269  1
  O  O286  1  0.75728574  0.86915710  0.00614401  1
  O  O287  1  0.75669984  0.86891909  0.50453173  1
  O  O288  1  0.12990829  0.49570615  0.24338987  1
  O  O289  1  0.12976194  0.49413510  0.74508467  1
  O  O290  1  0.13086681  0.99404305  0.24508061  1
  O  O291  1  0.13177484  0.99966946  0.74324249  1
  O  O292  1  0.63051490  0.49794091  0.24384269  1
  O  O293  1  0.63337982  0.49921243  0.74856711  1
  O  O294  1  0.63110493  0.99900221  0.24278004  1
  O  O295  1  0.62673628  0.99971471  0.74057062  1
  O  O296  1  0.37129656  0.00478991  0.25442743  1
  O  O297  1  0.36961271  0.00697562  0.75412638  1
  O  O298  1  0.36462047  0.50381763  0.24867362  1
  O  O299  1  0.36875863  0.50578088  0.75494333  1
  O  O300  1  0.86793126  0.00100768  0.25773393  1
  O  O301  1  0.87831904  0.00028419  0.76203284  1
  O  O302  1  0.86774989  0.50073679  0.25701578  1
  O  O303  1  0.87049588  0.50440209  0.75600363  1
  O  O304  1  0.11864423  0.36785382  0.37100905  1
  O  O305  1  0.12325016  0.36776656  0.86623717  1
  O  O306  1  0.11991189  0.87090252  0.36962851  1
  O  O307  1  0.11940800  0.86721938  0.87398884  1
  O  O308  1  0.62193299  0.36572510  0.37251987  1
  O  O309  1  0.62241944  0.36252159  0.87452432  1
  O  O310  1  0.61829472  0.86825658  0.37468313  1
  O  O311  1  0.62658232  0.86370104  0.87421925  1
  O  O312  1  0.37681421  0.13165102  0.13229264  1
  O  O313  1  0.37981149  0.13095806  0.62839961  1
  O  O314  1  0.37979291  0.63043031  0.13096147  1
  O  O315  1  0.37516486  0.63264947  0.63304951  1
  O  O316  1  0.88420024  0.12911628  0.12336173  1
  O  O317  1  0.87551151  0.13784775  0.62634560  1
  O  O318  1  0.88033438  0.63024433  0.13099218  1
  O  O319  1  0.88067373  0.62997996  0.63051470  1
  O  O320  1  0.25497194  0.25038049  0.11804532  1
  O  O321  1  0.25662452  0.25799484  0.62301763  1
  O  O322  1  0.25517093  0.75472689  0.12070352  1
  O  O323  1  0.25552581  0.75699447  0.62040325  1
  O  O324  1  0.75393802  0.25447226  0.11863408  1
  O  O325  1  0.75587593  0.25625075  0.62177046  1
  O  O326  1  0.74992917  0.75651674  0.11930776  1
  O  O327  1  0.75748285  0.75492602  0.61843316  1
  O  O328  1  0.23568502  0.25019250  0.37660760  1
  O  O329  1  0.24554856  0.24429600  0.87822430  1
  O  O330  1  0.24453811  0.75215550  0.38193013  1
  O  O331  1  0.24515025  0.74447396  0.88096701  1
  O  O332  1  0.74522246  0.24495971  0.38000360  1
  O  O333  1  0.74022062  0.24990810  0.88118085  1
  O  O334  1  0.74564130  0.74559112  0.38025215  1
  O  O335  1  0.74548671  0.74524685  0.88027434  1
  O  O336  1  0.00322103  0.11788851  0.01028869  1
  O  O337  1  0.00621999  0.11774532  0.50230121  1
  O  O338  1  0.00171460  0.61060993  0.00165630  1
  O  O339  1  0.00193239  0.61853164  0.50746594  1
  O  O340  1  0.50626921  0.11779694  0.00179412  1
  O  O341  1  0.50443113  0.12052278  0.50448794  1
  O  O342  1  0.49949738  0.61761635  0.00853253  1
  O  O343  1  0.50546569  0.61679698  0.50046939  1
  O  O344  1  0.49074459  0.38353592  0.50110592  1
  O  O345  1  0.49156340  0.38222354  0.99837516  1
  O  O346  1  0.49453042  0.88146028  0.49438081  1
  O  O347  1  0.49298473  0.88136039  0.99749213  1
  O  O348  1  0.99725902  0.38248107  0.49340567  1
  O  O349  1  0.99311573  0.38453995  0.99912979  1
  O  O350  1  0.99491931  0.88037754  0.49488326  1
  O  O351  1  0.99614819  0.87904035  0.99496245  1
  O  O352  1  0.49772670  0.49775986  0.38741738  1
  O  O353  1  0.49297294  0.50050956  0.88202952  1
  O  O354  1  0.49526648  0.99540417  0.38000393  1
  O  O355  1  0.49279395  0.99992951  0.88134411  1
  O  O356  1  0.99572089  0.49550973  0.37980710  1
  O  O357  1  0.99422390  0.49748047  0.88403600  1
  O  O358  1  0.99494426  0.99459113  0.38013668  1
  O  O359  1  0.99535763  0.99382145  0.88028904  1
  O  O360  1  0.00505941  0.00550620  0.12035564  1
  O  O361  1  0.00573182  0.00049299  0.61860850  1
  O  O362  1  0.00742226  0.49828186  0.11766013  1
  O  O363  1  0.00386030  0.50398181  0.62096154  1
  O  O364  1  0.50685842  0.00099932  0.11769889  1
  O  O365  1  0.50449264  0.00655951  0.61797274  1
  O  O366  1  0.50381205  0.50467449  0.12091592  1
  O  O367  1  0.50235447  0.50289900  0.61304852  1
  O  O368  1  0.24259172  0.38461520  0.24804008  1
  O  O369  1  0.24514160  0.38095420  0.74385555  1
  O  O370  1  0.24640005  0.88006351  0.24389577  1
  O  O371  1  0.24912615  0.88310776  0.74347554  1
  O  O372  1  0.74771837  0.38159280  0.24239595  1
  O  O373  1  0.74843607  0.38068611  0.74133521  1
  O  O374  1  0.74761379  0.88192021  0.24383344  1
  O  O375  1  0.74906486  0.87863191  0.73965163  1
  O  O376  1  0.25580077  0.11750570  0.25215755  1
  O  O377  1  0.25604430  0.12055995  0.75397674  1
  O  O378  1  0.25487434  0.61531085  0.24937119  1
  O  O379  1  0.25554877  0.61893405  0.75619400  1
  O  O380  1  0.75116379  0.11826927  0.25681686  1
  O  O381  1  0.75597890  0.11989697  0.75571291  1
  O  O382  1  0.75047002  0.61826289  0.25755668  1
  O  O383  1  0.75789366  0.61946909  0.75537820  1
  O  O384  1  0.37279861  0.11850206  0.36874119  1
  O  O385  1  0.36960910  0.11994147  0.86788564  1
  O  O386  1  0.37117270  0.62211053  0.36605707  1
  O  O387  1  0.36851494  0.61986671  0.87001436  1
  O  O388  1  0.86819956  0.11857009  0.37508442  1
  O  O389  1  0.87644487  0.11199076  0.87637537  1
  O  O390  1  0.86840985  0.61836499  0.37309209  1
  O  O391  1  0.87039821  0.61867100  0.86916061  1
  O  O392  1  0.12498023  0.38445837  0.13113692  1
  O  O393  1  0.12984164  0.38037177  0.62993581  1
  O  O394  1  0.13221065  0.88052601  0.13100903  1
  O  O395  1  0.13245235  0.88276656  0.62663547  1
  O  O396  1  0.63091091  0.38132843  0.12641409  1
  O  O397  1  0.63749041  0.37529732  0.62684688  1
  O  O398  1  0.63228737  0.88205467  0.12508699  1
  O  O399  1  0.63280157  0.88188468  0.62267415  1
  O  O400  1  0.12257918  0.25530396  0.25870057  1
  O  O401  1  0.11751614  0.25473383  0.75286961  1
  O  O402  1  0.11909547  0.75665208  0.25541173  1
  O  O403  1  0.11887923  0.75047333  0.75733552  1
  O  O404  1  0.61493009  0.24954551  0.25453996  1
  O  O405  1  0.61903220  0.24982250  0.75910701  1
  O  O406  1  0.61739990  0.75079231  0.25727342  1
  O  O407  1  0.62685947  0.75121274  0.76187894  1
  O  O408  1  0.37988425  0.24585646  0.24612623  1
  O  O409  1  0.37981849  0.24504966  0.74375776  1
  O  O410  1  0.38006886  0.74502615  0.24372872  1
  O  O411  1  0.37370157  0.74360305  0.74457549  1
  O  O412  1  0.87738847  0.24668594  0.24024413  1
  O  O413  1  0.88267306  0.25094476  0.74312382  1
  O  O414  1  0.88825835  0.75205915  0.25104419  1
  O  O415  1  0.88112720  0.74342101  0.74455785  1
  O  O416  1  0.38220107  0.49266269  0.50065752  1
  O  O417  1  0.37854072  0.49472909  0.99558400  1
  O  O418  1  0.38058979  0.99554728  0.49475657  1
  O  O419  1  0.37964643  0.99495172  0.99476357  1
  O  O420  1  0.88182121  0.49788831  0.49281624  1
  O  O421  1  0.88179915  0.49456844  0.99639519  1
  O  O422  1  0.88034689  0.99463733  0.49485317  1
  O  O423  1  0.88228061  0.99312938  0.99226528  1
  O  O424  1  0.12006625  -0.00000955  0.00719029  1
  O  O425  1  0.11957429  0.00499266  0.50426765  1
  O  O426  1  0.11720687  0.49702364  0.00802755  1
  O  O427  1  0.11824658  0.50081099  0.50755007  1
  O  O428  1  0.62072359  0.00501614  0.00338809  1
  O  O429  1  0.61873796  0.00660654  0.50446001  1
  O  O430  1  0.61738259  0.50180405  0.00681696  1
  O  O431  1  0.61667907  0.50569496  0.50111891  1
  O  O432  1  0.37085793  0.36711804  0.11719933  1
  O  O433  1  0.36977679  0.37125694  0.61667058  1
  O  O434  1  0.36999102  0.86896462  0.11954370  1
  O  O435  1  0.36968843  0.87134939  0.61922691  1
  O  O436  1  0.86840015  0.36903898  0.11873382  1
  O  O437  1  0.86451751  0.36456703  0.62456903  1
  O  O438  1  0.86879830  0.87373653  0.11829671  1
  O  O439  1  0.87113438  0.86875612  0.61864175  1
  O  O440  1  0.12363412  0.13370209  0.37970997  1
  O  O441  1  0.13244077  0.13160628  0.87580487  1
  O  O442  1  0.12933750  0.63501026  0.37881312  1
  O  O443  1  0.13209665  0.62997094  0.87724160  1
  O  O444  1  0.63035169  0.13038760  0.38090543  1
  O  O445  1  0.62496494  0.13577568  0.88090788  1
  O  O446  1  0.63129095  0.63110956  0.38123988  1
  O  O447  1  0.63334636  0.63439792  0.87746519  1
