# generated using pymatgen
data_V3Zn3O8
_symmetry_space_group_name_H-M   'P 1'
_cell_length_a   17.08758275
_cell_length_b   17.08762715
_cell_length_c   17.08831797
_cell_angle_alpha   89.98551215
_cell_angle_beta   89.99884956
_cell_angle_gamma   89.99644077
_symmetry_Int_Tables_number   1
_chemical_formula_structural   V3Zn3O8
_chemical_formula_sum   'V96 Zn96 O256'
_cell_volume   4989.55359546
_cell_formula_units_Z   32
loop_
 _symmetry_equiv_pos_site_id
 _symmetry_equiv_pos_as_xyz
  1  'x, y, z'
loop_
 _atom_site_type_symbol
 _atom_site_label
 _atom_site_symmetry_multiplicity
 _atom_site_fract_x
 _atom_site_fract_y
 _atom_site_fract_z
 _atom_site_occupancy
  V  V0  1  0.12451358  0.62392962  0.00013252  1
  V  V1  1  0.12396177  0.24936323  0.37502839  1
  V  V2  1  0.87506568  -0.00068554  0.37494926  1
  V  V3  1  0.87520774  0.24934154  0.62494950  1
  V  V4  1  0.87592333  0.74993200  0.62458466  1
  V  V5  1  0.12437264  0.87531940  0.74966226  1
  V  V6  1  0.24940952  0.62392491  0.87454768  1
  V  V7  1  0.62506280  0.37516460  0.25041572  1
  V  V8  1  0.49871931  0.37715200  0.87572543  1
  V  V9  1  0.12482152  0.74939362  0.37466684  1
  V  V10  1  0.37485392  -0.00057369  0.37409269  1
  V  V11  1  0.75124498  0.25056207  0.49960048  1
  V  V12  1  0.25076419  0.24849102  0.49966751  1
  V  V13  1  0.00014333  0.50011610  -0.00040318  1
  V  V14  1  0.25159382  0.37484695  0.12466917  1
  V  V15  1  0.12493483  -0.00092037  0.12583432  1
  V  V16  1  0.25040778  0.25153789  -0.00002647  1
  V  V17  1  0.24992433  0.00035893  0.24979732  1
  V  V18  1  0.25100076  0.62317860  0.37452790  1
  V  V19  1  0.62511945  0.62605461  0.00076688  1
  V  V20  1  -0.00094267  0.24894079  0.74973293  1
  V  V21  1  0.37447779  -0.00123722  0.87598512  1
  V  V22  1  0.74911932  0.25032067  -0.00030038  1
  V  V23  1  0.74959205  0.37503149  0.12526726  1
  V  V24  1  0.74983364  0.12589067  0.37572130  1
  V  V25  1  0.87515172  0.12472749  0.24995364  1
  V  V26  1  0.24971654  0.12474641  0.87481950  1
  V  V27  1  0.74981010  0.50073912  0.75061405  1
  V  V28  1  0.49920477  0.87527910  0.87697832  1
  V  V29  1  0.62552365  0.74999486  0.37438322  1
  V  V30  1  0.87476653  0.37478846  -0.00048229  1
  V  V31  1  -0.00026231  0.62417122  0.12438573  1
  V  V32  1  0.12560480  0.62379708  0.50061271  1
  V  V33  1  0.75101537  0.75080208  0.00042719  1
  V  V34  1  0.12483058  0.87342498  0.25061275  1
  V  V35  1  0.12443342  0.12396122  0.50037377  1
  V  V36  1  -0.00052189  0.87520337  0.87429637  1
  V  V37  1  0.12523661  0.37419087  0.25035813  1
  V  V38  1  0.25141322  0.37291530  0.62481488  1
  V  V39  1  0.50007555  0.49931500  0.50013449  1
  V  V40  1  0.49968237  0.24942181  0.74884943  1
  V  V41  1  0.37651588  0.12556684  0.74867381  1
  V  V42  1  0.49997432  0.62528390  0.62565790  1
  V  V43  1  0.25111189  0.75043975  0.00250835  1
  V  V44  1  0.50266572  0.00165557  0.50232836  1
  V  V45  1  0.87392378  0.12536081  0.75024244  1
  V  V46  1  0.37546371  0.74900100  0.62459508  1
  V  V47  1  0.87546993  0.62497269  0.24940655  1
  V  V48  1  0.62424441  0.25055438  0.87462877  1
  V  V49  1  0.00096059  0.25012616  0.25011742  1
  V  V50  1  0.12476066  0.25005253  0.87484231  1
  V  V51  1  0.37545286  0.62510161  0.25060343  1
  V  V52  1  -0.00021092  0.74892178  0.74902961  1
  V  V53  1  0.24975698  -0.00039885  0.75008499  1
  V  V54  1  0.62291152  0.12564293  -0.00021147  1
  V  V55  1  0.37463879  0.62449220  0.75078976  1
  V  V56  1  0.62318849  0.00156789  0.12491630  1
  V  V57  1  0.62486567  0.37611256  0.75021281  1
  V  V58  1  0.37537309  0.12670457  0.24891710  1
  V  V59  1  0.50003327  0.62654357  0.12622392  1
  V  V60  1  0.87429145  0.50021623  0.87385869  1
  V  V61  1  0.24991486  0.49968349  0.25095493  1
  V  V62  1  0.50055167  0.87402699  0.37356183  1
  V  V63  1  0.12587002  0.49899775  0.62484025  1
  V  V64  1  0.74682408  0.87677280  0.62640720  1
  V  V65  1  0.25040827  0.87468309  0.62480407  1
  V  V66  1  -0.00013448  0.37473993  0.87501251  1
  V  V67  1  0.50057390  0.37583883  0.37631359  1
  V  V68  1  0.12511734  0.37434543  0.74975972  1
  V  V69  1  0.75109527  0.62559577  0.37503018  1
  V  V70  1  0.62474216  0.75206500  0.87550254  1
  V  V71  1  -0.00057712  0.12456930  0.12498431  1
  V  V72  1  0.87569079  0.37550586  0.49932459  1
  V  V73  1  0.12435041  0.00022236  0.62409524  1
  V  V74  1  0.12445779  0.12472186  -0.00014845  1
  V  V75  1  0.62543986  0.50138076  0.62722794  1
  V  V76  1  0.37539264  0.87459230  0.49979613  1
  V  V77  1  0.74903863  0.00025023  0.24956335  1
  V  V78  1  0.49895686  0.50029053  -0.00025960  1
  V  V79  1  0.87529835  0.87531228  0.49853726  1
  V  V80  1  -0.00093206  -0.00046010  -0.00001754  1
  V  V81  1  0.50029831  0.75022992  0.25008020  1
  V  V82  1  0.87473386  0.87482965  0.00057338  1
  V  V83  1  0.00023473  -0.00058377  0.49943777  1
  V  V84  1  0.75050885  0.74906461  0.49916150  1
  V  V85  1  0.87480196  0.24959010  0.12513388  1
  V  V86  1  0.75058754  0.62542510  0.87478280  1
  V  V87  1  -0.00013019  0.49964457  0.49960153  1
  V  V88  1  0.74941758  0.12507876  0.87392965  1
  V  V89  1  0.75093818  0.50049906  0.25107829  1
  V  V90  1  0.87323487  0.00107243  0.87438039  1
  V  V91  1  0.62477708  0.50044991  0.12564631  1
  V  V92  1  0.62652456  0.25017966  0.37603370  1
  V  V93  1  0.49934233  0.25042970  0.25023018  1
  V  V94  1  0.87544730  0.74960618  0.12410601  1
  V  V95  1  0.25026550  0.74887810  0.49970734  1
  Zn  Zn96  1  0.50284087  0.12606035  0.62517377  1
  Zn  Zn97  1  -0.00135514  0.87225816  0.37473054  1
  Zn  Zn98  1  0.62485913  0.87695469  0.75120038  1
  Zn  Zn99  1  0.49862180  0.12790878  0.12234455  1
  Zn  Zn100  1  0.37466857  0.49955138  0.87657095  1
  Zn  Zn101  1  0.87597144  0.62358950  0.74838652  1
  Zn  Zn102  1  0.74710100  0.00087245  0.74924014  1
  Zn  Zn103  1  0.74978367  0.87521955  0.12589546  1
  Zn  Zn104  1  0.37617779  0.37278391  0.49939371  1
  Zn  Zn105  1  0.62526403  0.87567164  0.24798110  1
  Zn  Zn106  1  0.25009774  0.49833761  0.75051402  1
  Zn  Zn107  1  0.62683431  0.62524648  0.50157497  1
  Zn  Zn108  1  -0.00040771  0.37575562  0.37238666  1
  Zn  Zn109  1  0.49587937  0.00249801  0.00165269  1
  Zn  Zn110  1  0.37281745  0.87730252  0.00249534  1
  Zn  Zn111  1  0.87513495  0.50080368  0.37503806  1
  Zn  Zn112  1  0.37630984  0.75363817  0.12525793  1
  Zn  Zn113  1  0.62550151  0.12590646  0.50219304  1
  Zn  Zn114  1  0.62542114  0.00343448  0.62785505  1
  Zn  Zn115  1  0.50278859  0.75129973  0.74992232  1
  Zn  Zn116  1  0.37471040  0.49777864  0.37610966  1
  Zn  Zn117  1  0.75015802  0.37640864  0.62565583  1
  Zn  Zn118  1  0.37727843  0.25055388  0.12198735  1
  Zn  Zn119  1  0.37446870  0.37640914  -0.00181213  1
  Zn  Zn120  1  0.12410849  0.75045757  0.87511834  1
  Zn  Zn121  1  0.25190201  0.87455818  0.12387050  1
  Zn  Zn122  1  0.37889311  0.24792091  0.62302942  1
  Zn  Zn123  1  0.00033028  0.62501282  0.62586811  1
  Zn  Zn124  1  0.12439977  0.49981785  0.12568740  1
  Zn  Zn125  1  0.24908089  0.12397953  0.37492757  1
  Zn  Zn126  1  -0.00025486  0.74846310  0.25048400  1
  Zn  Zn127  1  -0.00094576  0.12391428  0.62565107  1
  Zn  Zn128  1  0.18874876  0.18754748  0.18690618  1
  Zn  Zn129  1  0.18703048  0.18614517  0.68693098  1
  Zn  Zn130  1  0.18699516  0.68582270  0.18641735  1
  Zn  Zn131  1  0.18675148  0.68751080  0.68674903  1
  Zn  Zn132  1  0.68669304  0.18661653  0.18782555  1
  Zn  Zn133  1  0.68695286  0.18751697  0.68463354  1
  Zn  Zn134  1  0.68814969  0.68853300  0.18818651  1
  Zn  Zn135  1  0.68696342  0.68909055  0.68930761  1
  Zn  Zn136  1  0.31362184  0.31321169  0.31439557  1
  Zn  Zn137  1  0.31481451  0.31155352  0.81268911  1
  Zn  Zn138  1  0.31269745  0.81157385  0.31217326  1
  Zn  Zn139  1  0.31318526  0.81099069  0.81383807  1
  Zn  Zn140  1  0.81354342  0.31316986  0.31356982  1
  Zn  Zn141  1  0.81146109  0.31300443  0.81166964  1
  Zn  Zn142  1  0.81127882  0.81312923  0.31003007  1
  Zn  Zn143  1  0.81294681  0.81290346  0.81182665  1
  Zn  Zn144  1  0.18616711  0.43598285  0.43636194  1
  Zn  Zn145  1  0.18682494  0.43900641  0.93818199  1
  Zn  Zn146  1  0.18800055  0.93709354  0.43604767  1
  Zn  Zn147  1  0.18619121  0.93628608  0.93671520  1
  Zn  Zn148  1  0.68750964  0.43859197  0.43811788  1
  Zn  Zn149  1  0.68590021  0.43855794  0.93718562  1
  Zn  Zn150  1  0.68681288  0.93618791  0.43683929  1
  Zn  Zn151  1  0.68705169  0.93850915  0.93943942  1
  Zn  Zn152  1  0.31120468  0.06235539  0.06335358  1
  Zn  Zn153  1  0.31450810  0.06259772  0.56388229  1
  Zn  Zn154  1  0.31444046  0.56268087  0.06432758  1
  Zn  Zn155  1  0.31366954  0.56029695  0.56249138  1
  Zn  Zn156  1  0.80994322  0.06260148  0.06191281  1
  Zn  Zn157  1  0.81333907  0.06283721  0.56209181  1
  Zn  Zn158  1  0.81271757  0.56261428  0.06246761  1
  Zn  Zn159  1  0.81329859  0.56446007  0.56513506  1
  Zn  Zn160  1  0.43635623  0.43898278  0.18863590  1
  Zn  Zn161  1  0.43665868  0.43722082  0.68761188  1
  Zn  Zn162  1  0.43713299  0.93677587  0.18559392  1
  Zn  Zn163  1  0.43784125  0.93674634  0.68927480  1
  Zn  Zn164  1  0.93739832  0.43814911  0.18629646  1
  Zn  Zn165  1  0.93768398  0.43661420  0.68650019  1
  Zn  Zn166  1  0.93798922  0.93568416  0.18813005  1
  Zn  Zn167  1  0.93528578  0.93771682  0.68659224  1
  Zn  Zn168  1  0.06221763  0.06198931  0.31473362  1
  Zn  Zn169  1  0.06112318  0.06243930  0.81226610  1
  Zn  Zn170  1  0.06282001  0.56186720  0.31245627  1
  Zn  Zn171  1  0.06405964  0.56195213  0.81240955  1
  Zn  Zn172  1  0.56200031  0.06399609  0.31321422  1
  Zn  Zn173  1  0.56279264  0.05979651  0.81105070  1
  Zn  Zn174  1  0.56399201  0.56410899  0.31408335  1
  Zn  Zn175  1  0.56227469  0.56390834  0.81364409  1
  Zn  Zn176  1  0.43730723  0.18647883  0.43536536  1
  Zn  Zn177  1  0.43657344  0.18868274  0.93646000  1
  Zn  Zn178  1  0.43823485  0.68561782  0.43648916  1
  Zn  Zn179  1  0.43702439  0.68863873  0.93836252  1
  Zn  Zn180  1  0.93899823  0.18644195  0.43717426  1
  Zn  Zn181  1  0.93660322  0.18723981  0.93701084  1
  Zn  Zn182  1  0.93823111  0.68733347  0.43643319  1
  Zn  Zn183  1  0.93718515  0.68708664  0.93638263  1
  Zn  Zn184  1  0.06376420  0.31273144  0.06337061  1
  Zn  Zn185  1  0.06220335  0.31148932  0.56288286  1
  Zn  Zn186  1  0.06347585  0.81053704  0.06262890  1
  Zn  Zn187  1  0.06248289  0.81359572  0.56163716  1
  Zn  Zn188  1  0.56073692  0.31318389  0.06286271  1
  Zn  Zn189  1  0.56490036  0.31302555  0.56428898  1
  Zn  Zn190  1  0.56222723  0.81492407  0.06207752  1
  Zn  Zn191  1  0.56300788  0.81123306  0.56070263  1
  O  O192  1  0.11877443  0.11987622  0.11965084  1
  O  O193  1  0.12340844  0.11720521  0.61903738  1
  O  O194  1  0.11764422  0.62191834  0.11821190  1
  O  O195  1  0.12507665  0.61764140  0.61772390  1
  O  O196  1  0.62428746  0.11789447  0.11899792  1
  O  O197  1  0.62139307  0.12148155  0.61890220  1
  O  O198  1  0.62045505  0.61932665  0.12026138  1
  O  O199  1  0.61769643  0.61943116  0.62539705  1
  O  O200  1  0.38437331  0.37768562  0.37853346  1
  O  O201  1  0.38242170  0.37960135  0.87575605  1
  O  O202  1  0.38028431  0.87942930  0.38068769  1
  O  O203  1  0.38196228  0.88017280  0.87603993  1
  O  O204  1  0.87797169  0.37726713  0.38704233  1
  O  O205  1  0.88023998  0.37949017  0.88086670  1
  O  O206  1  0.87507872  0.88149680  0.38062800  1
  O  O207  1  0.88040791  0.88095040  0.88095807  1
  O  O208  1  0.25745182  0.00128671  0.36860118  1
  O  O209  1  0.25310288  0.00524235  0.86896947  1
  O  O210  1  0.25089412  0.50547527  0.36993251  1
  O  O211  1  0.25150663  0.51254035  0.87354951  1
  O  O212  1  0.75529633  0.00601965  0.37008899  1
  O  O213  1  0.75661258  0.00749626  0.87548114  1
  O  O214  1  0.75106180  0.50668164  0.36857953  1
  O  O215  1  0.75467039  0.50557176  0.87106611  1
  O  O216  1  0.24794782  0.49079340  0.13104251  1
  O  O217  1  0.24414596  0.48815498  0.62359189  1
  O  O218  1  0.24098473  0.99938681  0.13163982  1
  O  O219  1  0.24493670  0.99359596  0.63046592  1
  O  O220  1  0.74446917  0.49444321  0.13007158  1
  O  O221  1  0.74369816  0.49998639  0.63237822  1
  O  O222  1  0.74036944  1.00156810  0.13088419  1
  O  O223  1  0.75062068  0.98750257  0.62345509  1
  O  O224  1  0.00586522  0.36820769  0.24899728  1
  O  O225  1  0.00516614  0.36900604  0.75600016  1
  O  O226  1  0.01303289  0.87319529  0.25195078  1
  O  O227  1  0.00416538  0.86806283  0.75409588  1
  O  O228  1  0.50618695  0.37142173  0.25574663  1
  O  O229  1  0.50555597  0.37083424  0.75547448  1
  O  O230  1  0.50088390  0.86863372  0.25697636  1
  O  O231  1  0.50004774  0.87202030  0.76330631  1
  O  O232  1  0.49007725  0.13163134  0.25041218  1
  O  O233  1  0.49316054  0.13137214  0.75107940  1
  O  O234  1  0.49597110  0.62998588  0.24581778  1
  O  O235  1  0.49000504  0.62704768  0.74538076  1
  O  O236  1  0.99476418  0.12954854  0.24384754  1
  O  O237  1  0.99272663  0.13191096  0.75013534  1
  O  O238  1  0.99390602  0.62460136  0.24300487  1
  O  O239  1  1.00039649  0.63668931  0.74907148  1
  O  O240  1  0.36556108  0.25351529  0.00129209  1
  O  O241  1  0.36320775  0.25029974  0.50107170  1
  O  O242  1  0.36194543  0.74965060  0.00133777  1
  O  O243  1  0.36965329  0.75452214  0.50462721  1
  O  O244  1  0.86944894  0.25520116  0.00533367  1
  O  O245  1  0.87252071  0.25775367  0.50394582  1
  O  O246  1  0.87044183  0.75501757  0.00410949  1
  O  O247  1  0.87054701  0.75562391  0.50448404  1
  O  O248  1  0.13155938  0.24452031  0.49583263  1
  O  O249  1  0.12912215  0.24404950  0.99406868  1
  O  O250  1  0.13129738  0.74441971  0.49573743  1
  O  O251  1  0.13317827  0.74261661  0.99708563  1
  O  O252  1  0.63333603  0.25186812  0.49256707  1
  O  O253  1  0.63060018  0.24634731  0.99478875  1
  O  O254  1  0.63230816  0.74746127  0.49251400  1
  O  O255  1  0.63134620  0.74459364  0.99583130  1
  O  O256  1  0.49724984  0.24943193  0.13440711  1
  O  O257  1  0.49845164  0.24919425  0.63302963  1
  O  O258  1  0.50112914  0.74347008  0.13132782  1
  O  O259  1  0.49268467  0.74396796  0.62555932  1
  O  O260  1  0.99447110  0.24396109  0.12939664  1
  O  O261  1  0.99380420  0.24844974  0.63226959  1
  O  O262  1  0.99315085  0.74161766  0.12484920  1
  O  O263  1  0.99547036  0.75135415  0.63403876  1
  O  O264  1  0.00599886  0.25109528  0.36745520  1
  O  O265  1  0.00502738  0.25560707  0.87064927  1
  O  O266  1  0.00948672  0.75125138  0.37230083  1
  O  O267  1  0.00025792  0.75628176  0.86528361  1
  O  O268  1  0.50652029  0.25618916  0.37042556  1
  O  O269  1  0.50617594  0.25692815  0.86935151  1
  O  O270  1  0.50545488  0.75433448  0.37044390  1
  O  O271  1  0.50576208  0.75834765  0.87581919  1
  O  O272  1  0.24447474  0.13385968  0.50012318  1
  O  O273  1  0.24284042  0.13069415  0.99445477  1
  O  O274  1  0.24552784  0.62898983  0.49529617  1
  O  O275  1  0.24560216  0.63015922  0.99288824  1
  O  O276  1  0.75181906  0.13283858  0.49216622  1
  O  O277  1  0.74458372  0.13247137  0.99389488  1
  O  O278  1  0.75034293  0.63157600  0.49365435  1
  O  O279  1  0.74460641  0.63003763  0.99466246  1
  O  O280  1  0.24888223  0.37076188  0.00878225  1
  O  O281  1  0.24810839  0.36516164  0.50832209  1
  O  O282  1  0.24764621  0.86253384  -0.00050938  1
  O  O283  1  0.25565691  0.86901551  0.50512637  1
  O  O284  1  0.75465386  0.37021505  0.00526063  1
  O  O285  1  0.76074197  0.37069412  0.50066040  1
  O  O286  1  0.75777233  0.86850280  0.00137139  1
  O  O287  1  0.75587123  0.86892071  0.50623007  1
  O  O288  1  0.13187535  0.49252443  0.24879496  1
  O  O289  1  0.12667251  0.49205243  0.74335751  1
  O  O290  1  0.12897091  0.99276928  0.24633124  1
  O  O291  1  0.12998737  0.99508930  0.74479716  1
  O  O292  1  0.63075779  0.49467005  0.24475980  1
  O  O293  1  0.62981220  0.49581117  0.74660497  1
  O  O294  1  0.63028008  1.00236692  0.24117543  1
  O  O295  1  0.62964733  0.99438397  0.74586281  1
  O  O296  1  0.37065963  0.00756428  0.25455388  1
  O  O297  1  0.36796517  0.00499439  0.75558685  1
  O  O298  1  0.36825140  0.50719321  0.25300290  1
  O  O299  1  0.37154060  0.51358558  0.75030425  1
  O  O300  1  0.87038513  0.00592390  0.25418694  1
  O  O301  1  0.87352590  0.00699768  0.75714425  1
  O  O302  1  0.86837558  0.50558038  0.25092845  1
  O  O303  1  0.86959804  0.49954308  0.75652643  1
  O  O304  1  0.12279396  0.36711382  0.36788052  1
  O  O305  1  0.11964505  0.36956943  0.87001181  1
  O  O306  1  0.12518290  0.86904093  0.36557659  1
  O  O307  1  0.11706354  0.87405232  0.86706665  1
  O  O308  1  0.62095166  0.37006782  0.36878406  1
  O  O309  1  0.61943272  0.36996880  0.86998413  1
  O  O310  1  0.61826383  0.86793250  0.37252012  1
  O  O311  1  0.61621715  0.86993022  0.87740022  1
  O  O312  1  0.37547029  0.12669896  0.13770934  1
  O  O313  1  0.37785187  0.12666640  0.63474682  1
  O  O314  1  0.38317862  0.62711954  0.13305216  1
  O  O315  1  0.37835310  0.62937051  0.63230700  1
  O  O316  1  0.87982141  0.13026291  0.12970247  1
  O  O317  1  0.87624889  0.13167170  0.63196264  1
  O  O318  1  0.87998740  0.62974298  0.12915499  1
  O  O319  1  0.87949162  0.63426207  0.62852304  1
  O  O320  1  0.25000074  0.25948289  0.11895576  1
  O  O321  1  0.24809729  0.25779701  0.61601881  1
  O  O322  1  0.25067884  0.74898415  0.11325067  1
  O  O323  1  0.25516935  0.75518678  0.61876819  1
  O  O324  1  0.75517190  0.25547627  0.11994217  1
  O  O325  1  0.75773335  0.25379837  0.61768974  1
  O  O326  1  0.75691577  0.75037656  0.11757842  1
  O  O327  1  0.75573102  0.75681606  0.61955436  1
  O  O328  1  0.24353579  0.24979325  0.38580726  1
  O  O329  1  0.24321245  0.24472268  0.87957531  1
  O  O330  1  0.24498247  0.74331192  0.38138624  1
  O  O331  1  0.24788537  0.73924884  0.88210025  1
  O  O332  1  0.74615505  0.24534580  0.37933980  1
  O  O333  1  0.74415016  0.24578096  0.88079526  1
  O  O334  1  0.74553629  0.74525798  0.37952015  1
  O  O335  1  0.74605050  0.74544842  0.88131680  1
  O  O336  1  0.00463677  0.11978353  0.00506375  1
  O  O337  1  0.00654196  0.11775432  0.50227975  1
  O  O338  1  0.00453347  0.61933993  0.00325509  1
  O  O339  1  0.00618678  0.61509538  0.50172356  1
  O  O340  1  0.50766592  0.12456384  0.00122381  1
  O  O341  1  0.49934422  0.11277926  0.49951094  1
  O  O342  1  0.50649692  0.62100138  0.00576506  1
  O  O343  1  0.50126672  0.61525465  0.50650984  1
  O  O344  1  0.50077146  0.38389359  0.49574785  1
  O  O345  1  0.49965978  0.38228165  0.99413333  1
  O  O346  1  0.49380989  0.88116240  0.49380071  1
  O  O347  1  0.49661059  0.87749191  0.98801549  1
  O  O348  1  0.99315925  0.38269960  0.49931579  1
  O  O349  1  0.99450993  0.37883682  0.99472441  1
  O  O350  1  0.99348586  0.88128858  0.49788356  1
  O  O351  1  0.99549621  0.88031100  0.99445758  1
  O  O352  1  0.50237165  0.49497177  0.38501937  1
  O  O353  1  0.50046216  0.49496276  0.88238832  1
  O  O354  1  0.49442511  0.99429852  0.38201659  1
  O  O355  1  0.49304201  0.99120035  0.87654931  1
  O  O356  1  0.99880099  0.49808454  0.38809399  1
  O  O357  1  0.99479545  0.49361506  0.87956582  1
  O  O358  1  0.99241065  0.99802852  0.38137112  1
  O  O359  1  0.99382929  0.99520743  0.88092195  1
  O  O360  1  0.00454535  0.00570882  0.11951267  1
  O  O361  1  0.00647484  0.00014580  0.61817136  1
  O  O362  1  0.00028168  0.50580918  0.11639483  1
  O  O363  1  0.00676074  0.49950686  0.61516170  1
  O  O364  1  0.51100423  0.00411207  0.12365579  1
  O  O365  1  0.49963112  -0.00252665  0.61218341  1
  O  O366  1  0.50678076  0.50566340  0.12118810  1
  O  O367  1  0.50490282  0.50456808  0.61874421  1
  O  O368  1  0.24526818  0.37842267  0.24333323  1
  O  O369  1  0.24374729  0.37367849  0.74081239  1
  O  O370  1  0.23933930  0.88010260  0.24945513  1
  O  O371  1  0.24492324  0.87932214  0.74484648  1
  O  O372  1  0.74536742  0.37968011  0.24450692  1
  O  O373  1  0.74294088  0.38273625  0.75028411  1
  O  O374  1  0.74685107  0.88478739  0.24635232  1
  O  O375  1  0.75118099  0.87603952  0.73770105  1
  O  O376  1  0.25832360  0.11981778  0.25159617  1
  O  O377  1  0.25421776  0.11939358  0.75590431  1
  O  O378  1  0.25435672  0.61943785  0.25517308  1
  O  O379  1  0.25627945  0.62506764  0.75783453  1
  O  O380  1  0.75672860  0.12109468  0.25582284  1
  O  O381  1  0.75669150  0.12607757  0.75726408  1
  O  O382  1  0.75575553  0.61924998  0.25452564  1
  O  O383  1  0.75174453  0.61876737  0.75789883  1
  O  O384  1  0.37263031  0.11883494  0.36390588  1
  O  O385  1  0.36793957  0.11942039  0.86849080  1
  O  O386  1  0.36811944  0.62256341  0.36892192  1
  O  O387  1  0.36681782  0.62551216  0.86640745  1
  O  O388  1  0.86999998  0.11974667  0.36869161  1
  O  O389  1  0.86909213  0.12092282  0.87067575  1
  O  O390  1  0.86869841  0.62388869  0.36786603  1
  O  O391  1  0.86858713  0.61754701  0.87353884  1
  O  O392  1  0.13549889  0.37546287  0.13110456  1
  O  O393  1  0.13304176  0.37803051  0.62991507  1
  O  O394  1  0.12557590  0.88044878  0.13472202  1
  O  O395  1  0.13173192  0.88069197  0.62964197  1
  O  O396  1  0.63092638  0.38056778  0.13075200  1
  O  O397  1  0.62760405  0.38330740  0.63329011  1
  O  O398  1  0.62720562  0.88832936  0.12537642  1
  O  O399  1  0.63741280  0.87385497  0.62419894  1
  O  O400  1  0.12007008  0.25355524  0.25479872  1
  O  O401  1  0.11944339  0.25422534  0.75586428  1
  O  O402  1  0.12593296  0.75840998  0.25504710  1
  O  O403  1  0.11569333  0.75679731  0.74952310  1
  O  O404  1  0.62068741  0.25621822  0.25570069  1
  O  O405  1  0.62030488  0.25622665  0.75620240  1
  O  O406  1  0.61856626  0.75148006  0.25629340  1
  O  O407  1  0.62321322  0.75415839  0.76042569  1
  O  O408  1  0.37971702  0.24078011  0.25120934  1
  O  O409  1  0.38174358  0.24239046  0.74951621  1
  O  O410  1  0.38207353  0.74266490  0.24985811  1
  O  O411  1  0.37428993  0.73882040  0.74340869  1
  O  O412  1  0.88007582  0.24483577  0.24414316  1
  O  O413  1  0.87998175  0.24610073  0.74564206  1
  O  O414  1  0.87612584  0.74330245  0.24232559  1
  O  O415  1  0.88626140  0.75076390  0.74460191  1
  O  O416  1  0.38832621  0.49697526  0.49961274  1
  O  O417  1  0.38431483  0.49896102  0.99841329  1
  O  O418  1  0.38131035  0.99382922  0.49456786  1
  O  O419  1  0.37420186  0.99965813  0.99100193  1
  O  O420  1  0.88339041  0.49228603  0.50169313  1
  O  O421  1  0.87956105  0.49350253  0.99404239  1
  O  O422  1  0.88037575  0.99500835  0.49386637  1
  O  O423  1  0.88051491  0.99593707  0.99513428  1
  O  O424  1  0.11874276  0.00536520  0.00463010  1
  O  O425  1  0.12114135  0.00390530  0.50448937  1
  O  O426  1  0.11699475  0.50615933  0.00084981  1
  O  O427  1  0.11767022  0.50295909  0.50459467  1
  O  O428  1  0.62514808  0.00830044  0.00945246  1
  O  O429  1  0.61271917  0.00012218  0.49948843  1
  O  O430  1  0.62021917  0.50632280  0.00664397  1
  O  O431  1  0.61578055  0.50137613  0.50727791  1
  O  O432  1  0.36171621  0.37358614  0.12512796  1
  O  O433  1  0.36220909  0.37209595  0.62368395  1
  O  O434  1  0.36986190  0.87181555  0.12070385  1
  O  O435  1  0.36919393  0.86897619  0.62013674  1
  O  O436  1  0.86906418  0.36905039  0.11899063  1
  O  O437  1  0.87454118  0.36906415  0.61415766  1
  O  O438  1  0.87500046  0.86865039  0.11772001  1
  O  O439  1  0.86689536  0.86952889  0.61823571  1
  O  O440  1  0.12750621  0.13107693  0.38177875  1
  O  O441  1  0.12975142  0.12988043  0.88027357  1
  O  O442  1  0.13164759  0.62939756  0.38087160  1
  O  O443  1  0.13428196  0.62644216  0.87982417  1
  O  O444  1  0.63229488  0.13279518  0.37667321  1
  O  O445  1  0.63003588  0.13155194  0.88003539  1
  O  O446  1  0.63327462  0.63224819  0.37696169  1
  O  O447  1  0.63042232  0.63134160  0.88200549  1
