# generated using pymatgen
data_V3Zn3O8
_symmetry_space_group_name_H-M   'P 1'
_cell_length_a   17.08744753
_cell_length_b   17.08660818
_cell_length_c   17.08857053
_cell_angle_alpha   90.00023718
_cell_angle_beta   89.99302563
_cell_angle_gamma   89.99247696
_symmetry_Int_Tables_number   1
_chemical_formula_structural   V3Zn3O8
_chemical_formula_sum   'V96 Zn96 O256'
_cell_volume   4989.29040374
_cell_formula_units_Z   32
loop_
 _symmetry_equiv_pos_site_id
 _symmetry_equiv_pos_as_xyz
  1  'x, y, z'
loop_
 _atom_site_type_symbol
 _atom_site_label
 _atom_site_symmetry_multiplicity
 _atom_site_fract_x
 _atom_site_fract_y
 _atom_site_fract_z
 _atom_site_occupancy
  V  V0  1  0.24901458  0.37331163  0.12599624  1
  V  V1  1  0.74994634  0.50027465  0.75072937  1
  V  V2  1  0.62563503  0.87497016  0.74980797  1
  V  V3  1  0.12417188  0.87446009  0.24944727  1
  V  V4  1  0.62582807  0.12589741  0.49990497  1
  V  V5  1  0.87583469  0.87531998  0.50056388  1
  V  V6  1  0.87552723  0.75081988  0.62527890  1
  V  V7  1  0.12523980  0.12628018  0.49956454  1
  V  V8  1  -0.00181511  0.49919586  0.00155452  1
  V  V9  1  0.37529022  0.87362292  -0.00177669  1
  V  V10  1  -0.00026186  0.74970038  0.25089661  1
  V  V11  1  0.75142655  0.87582165  0.62440991  1
  V  V12  1  0.75015872  0.62528595  0.87555570  1
  V  V13  1  0.49849305  0.49827241  0.49864511  1
  V  V14  1  0.62474290  0.24958423  0.87490341  1
  V  V15  1  0.75068035  0.24993692  0.00044982  1
  V  V16  1  0.62609234  0.50116152  0.62702516  1
  V  V17  1  0.00107082  0.00164335  0.49980067  1
  V  V18  1  0.25115334  0.62468924  0.37472721  1
  V  V19  1  0.62388214  0.62434068  0.00045897  1
  V  V20  1  0.49827042  0.37474252  0.87543166  1
  V  V21  1  0.50003419  0.87626611  0.37408888  1
  V  V22  1  0.37448593  0.62547071  0.75087758  1
  V  V23  1  0.00026455  0.87416358  0.87434764  1
  V  V24  1  0.74988937  0.62497155  0.37566800  1
  V  V25  1  0.37552190  0.75216710  0.62418045  1
  V  V26  1  0.25045857  0.12166227  0.87328285  1
  V  V27  1  0.87536008  0.25084142  0.62560253  1
  V  V28  1  0.37472491  0.87539934  0.49960739  1
  V  V29  1  0.12424110  0.12358371  -0.00021908  1
  V  V30  1  0.12680644  0.87664710  0.74773045  1
  V  V31  1  -0.00017586  0.37655745  0.37742473  1
  V  V32  1  0.50047864  0.25005373  0.75007456  1
  V  V33  1  0.50142434  0.25005662  0.24987113  1
  V  V34  1  0.37467822  0.12455614  0.75027817  1
  V  V35  1  0.74997106  0.74959858  0.00048415  1
  V  V36  1  0.62475581  -0.00077813  0.12373884  1
  V  V37  1  0.12516129  0.37556713  0.75070761  1
  V  V38  1  0.62546945  0.49690073  0.12636353  1
  V  V39  1  0.00118668  0.12594748  0.62409440  1
  V  V40  1  0.25117625  0.12573659  0.37303079  1
  V  V41  1  0.62545097  0.62658378  0.49998525  1
  V  V42  1  0.87497782  0.87466834  0.00000697  1
  V  V43  1  0.75051151  0.00010993  0.25036021  1
  V  V44  1  0.62546766  0.00050929  0.62500251  1
  V  V45  1  0.12588133  0.50094714  0.62542618  1
  V  V46  1  0.49938485  0.87484215  0.87547735  1
  V  V47  1  0.50006073  0.12599153  0.62507648  1
  V  V48  1  0.62506820  0.87478238  0.24981811  1
  V  V49  1  0.50052154  0.00114734  0.49913317  1
  V  V50  1  0.37542305  0.25203592  0.62393766  1
  V  V51  1  0.62549348  0.74998759  0.37529075  1
  V  V52  1  0.25076522  0.50088507  0.75031156  1
  V  V53  1  0.12595003  0.25093890  0.37522299  1
  V  V54  1  -0.00025530  0.75032009  0.74986106  1
  V  V55  1  0.74939718  0.12532717  0.37587032  1
  V  V56  1  0.87606211  0.62557793  0.74984385  1
  V  V57  1  0.87413154  0.74896097  0.12573442  1
  V  V58  1  0.37467807  0.00125095  0.37331764  1
  V  V59  1  0.87683884  0.12568419  0.74939439  1
  V  V60  1  0.37419830  0.74937792  0.12477495  1
  V  V61  1  0.87501967  0.49973332  0.87587602  1
  V  V62  1  0.25031393  0.49898284  0.25008183  1
  V  V63  1  0.49983809  0.62430210  0.12460346  1
  V  V64  1  0.87496074  0.00019634  0.87507267  1
  V  V65  1  0.62495897  0.12383552  -0.00090544  1
  V  V66  1  0.87419451  0.50022849  0.37734596  1
  V  V67  1  0.50067084  0.62631733  0.62529624  1
  V  V68  1  0.75047385  0.25253037  0.50128926  1
  V  V69  1  0.24868147  0.87432403  0.12501441  1
  V  V70  1  0.62541018  0.74961997  0.87474298  1
  V  V71  1  0.50048187  0.75034988  0.74929731  1
  V  V72  1  0.25214446  0.37477394  0.62355404  1
  V  V73  1  0.24859077  0.74789352  -0.00022262  1
  V  V74  1  0.37391024  0.49996548  0.87423254  1
  V  V75  1  0.74979513  0.87436072  0.12551395  1
  V  V76  1  -0.00188509  0.24957456  0.24959798  1
  V  V77  1  0.12397487  0.25032894  0.87423410  1
  V  V78  1  0.87389426  0.62422077  0.25156910  1
  V  V79  1  0.00058709  0.87484353  0.37463116  1
  V  V80  1  -0.00019719  -0.00052442  0.00061731  1
  V  V81  1  0.87527361  -0.00020996  0.37504889  1
  V  V82  1  0.37285791  0.37365386  -0.00007127  1
  V  V83  1  0.37422024  0.62470620  0.24995105  1
  V  V84  1  0.49943431  0.75010743  0.24981526  1
  V  V85  1  -0.00208190  0.62326399  0.12588926  1
  V  V86  1  0.75002172  0.12487732  0.87469032  1
  V  V87  1  0.25141852  0.75119022  0.49950058  1
  V  V88  1  0.12479495  0.62573142  0.50115565  1
  V  V89  1  0.87506670  0.12545349  0.25028426  1
  V  V90  1  0.12415336  0.62437771  0.00001275  1
  V  V91  1  0.62567446  0.37628870  0.75155633  1
  V  V92  1  0.87380097  0.37361270  0.00208585  1
  V  V93  1  0.12414606  -0.00080075  0.12426708  1
  V  V94  1  0.75085029  0.00058263  0.74964394  1
  V  V95  1  0.49745294  0.12385461  0.12337928  1
  Zn  Zn96  1  0.62513995  0.25298094  0.37383392  1
  Zn  Zn97  1  -0.00077409  0.12560419  0.12455925  1
  Zn  Zn98  1  0.49909699  0.49973543  -0.00000482  1
  Zn  Zn99  1  0.37524089  0.37459161  0.49711523  1
  Zn  Zn100  1  0.12839139  0.00236321  0.62418459  1
  Zn  Zn101  1  0.62644776  0.37384959  0.25286728  1
  Zn  Zn102  1  0.00001894  0.62413335  0.62569743  1
  Zn  Zn103  1  0.49839641  -0.00099550  -0.00207540  1
  Zn  Zn104  1  0.37309474  0.12347781  0.24618514  1
  Zn  Zn105  1  0.12621799  0.74938434  0.87328347  1
  Zn  Zn106  1  0.25323887  0.25323497  0.49782505  1
  Zn  Zn107  1  0.25021724  -0.00056804  0.24840095  1
  Zn  Zn108  1  0.00063578  0.37472295  0.87490248  1
  Zn  Zn109  1  0.37679817  0.49660521  0.37529890  1
  Zn  Zn110  1  0.37324432  0.24699431  0.12472101  1
  Zn  Zn111  1  0.50023912  0.37303327  0.37358020  1
  Zn  Zn112  1  0.12493303  0.37574304  0.24973508  1
  Zn  Zn113  1  0.24890549  0.62518398  0.87498085  1
  Zn  Zn114  1  0.75079413  0.75101534  0.49999545  1
  Zn  Zn115  1  0.87292357  0.24858765  0.12575851  1
  Zn  Zn116  1  0.74760014  0.49573482  0.25163031  1
  Zn  Zn117  1  0.25273176  -0.00153545  0.74546162  1
  Zn  Zn118  1  0.37633859  -0.00185027  0.87341627  1
  Zn  Zn119  1  0.00002298  0.50116237  0.50282470  1
  Zn  Zn120  1  0.12245568  0.49817945  0.12610120  1
  Zn  Zn121  1  0.87471614  0.37806049  0.50421781  1
  Zn  Zn122  1  -0.00010270  0.25182139  0.74838622  1
  Zn  Zn123  1  0.75239020  0.37657265  0.62657813  1
  Zn  Zn124  1  0.25020159  0.87871088  0.62371611  1
  Zn  Zn125  1  0.24811687  0.24733721  0.00351180  1
  Zn  Zn126  1  0.12552039  0.75057892  0.37506934  1
  Zn  Zn127  1  0.74748458  0.37141026  0.12919894  1
  Zn  Zn128  1  0.18382798  0.18767006  0.18857963  1
  Zn  Zn129  1  0.18863253  0.18929676  0.68702267  1
  Zn  Zn130  1  0.18555680  0.68690191  0.18635927  1
  Zn  Zn131  1  0.18926862  0.69030909  0.68628926  1
  Zn  Zn132  1  0.68630624  0.18719456  0.18585002  1
  Zn  Zn133  1  0.68822213  0.18810308  0.68734600  1
  Zn  Zn134  1  0.68735371  0.68425506  0.18912841  1
  Zn  Zn135  1  0.68978603  0.68791344  0.68689049  1
  Zn  Zn136  1  0.32033230  0.31138953  0.31220956  1
  Zn  Zn137  1  0.31013434  0.31089903  0.81157050  1
  Zn  Zn138  1  0.31092870  0.81251494  0.31275624  1
  Zn  Zn139  1  0.31077002  0.81044751  0.81375784  1
  Zn  Zn140  1  0.81109389  0.31457182  0.31375566  1
  Zn  Zn141  1  0.81273203  0.31299749  0.81356091  1
  Zn  Zn142  1  0.81243805  0.81182032  0.31374911  1
  Zn  Zn143  1  0.81276034  0.81274981  0.81204046  1
  Zn  Zn144  1  0.18824534  0.43811917  0.43760844  1
  Zn  Zn145  1  0.18746028  0.43890473  0.93817722  1
  Zn  Zn146  1  0.18725359  0.93920858  0.43643359  1
  Zn  Zn147  1  0.18709866  0.93590134  0.93626833  1
  Zn  Zn148  1  0.68343822  0.43585791  0.43653946  1
  Zn  Zn149  1  0.68759720  0.43745582  0.93941044  1
  Zn  Zn150  1  0.68818419  0.93739101  0.43802232  1
  Zn  Zn151  1  0.68686417  0.93762278  0.93757505  1
  Zn  Zn152  1  0.31147110  0.05778884  0.05813299  1
  Zn  Zn153  1  0.31152000  0.06357612  0.56151649  1
  Zn  Zn154  1  0.31151241  0.56015336  0.06309760  1
  Zn  Zn155  1  0.31282871  0.56351175  0.56380708  1
  Zn  Zn156  1  0.81354597  0.06378170  0.06420136  1
  Zn  Zn157  1  0.81415005  0.06413359  0.56241782  1
  Zn  Zn158  1  0.80998811  0.56070656  0.06371808  1
  Zn  Zn159  1  0.81148538  0.56487176  0.56289114  1
  Zn  Zn160  1  0.43755834  0.43631465  0.18604683  1
  Zn  Zn161  1  0.43816105  0.43794983  0.68662321  1
  Zn  Zn162  1  0.43548152  0.93839246  0.18671831  1
  Zn  Zn163  1  0.43704319  0.93897703  0.68772667  1
  Zn  Zn164  1  0.93466603  0.43682164  0.18915807  1
  Zn  Zn165  1  0.94030821  0.43709506  0.68793427  1
  Zn  Zn166  1  0.93822135  0.93745765  0.18732318  1
  Zn  Zn167  1  0.94054151  0.93895372  0.68621291  1
  Zn  Zn168  1  0.06432187  0.06208286  0.31215240  1
  Zn  Zn169  1  0.06234955  0.06153370  0.81145868  1
  Zn  Zn170  1  0.06428546  0.56285193  0.31373082  1
  Zn  Zn171  1  0.06136218  0.56179668  0.81417863  1
  Zn  Zn172  1  0.56351377  0.06498537  0.31111625  1
  Zn  Zn173  1  0.56122723  0.06118115  0.81241878  1
  Zn  Zn174  1  0.56272894  0.56269523  0.31229672  1
  Zn  Zn175  1  0.56031472  0.56205728  0.81409400  1
  Zn  Zn176  1  0.43657612  0.18864485  0.43673833  1
  Zn  Zn177  1  0.43615625  0.18824794  0.93808164  1
  Zn  Zn178  1  0.43745673  0.68594131  0.43637612  1
  Zn  Zn179  1  0.43709005  0.68735258  0.93728428  1
  Zn  Zn180  1  0.93622257  0.18850004  0.43777163  1
  Zn  Zn181  1  0.93886856  0.18731639  0.93727055  1
  Zn  Zn182  1  0.93850030  0.68876382  0.43853889  1
  Zn  Zn183  1  0.93882318  0.68764434  0.93657173  1
  Zn  Zn184  1  0.06283347  0.31225031  0.06222878  1
  Zn  Zn185  1  0.06469066  0.31221825  0.56231182  1
  Zn  Zn186  1  0.06186307  0.81076619  0.06317089  1
  Zn  Zn187  1  0.06253164  0.81214157  0.56373961  1
  Zn  Zn188  1  0.56080808  0.31131052  0.06208369  1
  Zn  Zn189  1  0.56511091  0.31453795  0.56491305  1
  Zn  Zn190  1  0.56143633  0.81121386  0.06196299  1
  Zn  Zn191  1  0.56262273  0.81380654  0.56134760  1
  O  O192  1  0.12258566  0.11824951  0.11787731  1
  O  O193  1  0.11873486  0.12692637  0.61771521  1
  O  O194  1  0.11670282  0.62303183  0.11556015  1
  O  O195  1  0.12682782  0.62016873  0.61577321  1
  O  O196  1  0.61740533  0.11808139  0.11829544  1
  O  O197  1  0.61978897  0.11930660  0.62072835  1
  O  O198  1  0.61956153  0.61846434  0.11990608  1
  O  O199  1  0.62019465  0.62147588  0.62091282  1
  O  O200  1  0.38334410  0.37900788  0.37925302  1
  O  O201  1  0.37747587  0.37890964  0.88117337  1
  O  O202  1  0.38139885  0.88023640  0.37948761  1
  O  O203  1  0.38197034  0.87283262  0.88029787  1
  O  O204  1  0.88286715  0.38408645  0.37796385  1
  O  O205  1  0.87577465  0.38056298  0.88590893  1
  O  O206  1  0.88029322  0.88069662  0.38001907  1
  O  O207  1  0.87890683  0.88081285  0.88053733  1
  O  O208  1  0.25567604  0.00969181  0.37343211  1
  O  O209  1  0.24970330  0.01262154  0.87205521  1
  O  O210  1  0.25233761  0.50503938  0.36465356  1
  O  O211  1  0.25642909  0.50157939  0.86794643  1
  O  O212  1  0.75569539  0.00436046  0.36957770  1
  O  O213  1  0.75508232  0.00498976  0.86929664  1
  O  O214  1  0.75878574  0.50582428  0.37624205  1
  O  O215  1  0.75484035  0.50667741  0.87079479  1
  O  O216  1  0.24925717  0.49082148  0.13412646  1
  O  O217  1  0.24577019  0.49509059  0.63164606  1
  O  O218  1  0.24213114  0.99188247  0.12504610  1
  O  O219  1  0.24653692  0.99714685  0.62704145  1
  O  O220  1  0.73719334  0.49919292  0.12681718  1
  O  O221  1  0.74373567  0.50051150  0.63287347  1
  O  O222  1  0.74525461  0.99376021  0.13060831  1
  O  O223  1  0.74551697  0.99609344  0.63042428  1
  O  O224  1  -0.00121339  0.36749458  0.26058508  1
  O  O225  1  0.00915978  0.37256343  0.75503789  1
  O  O226  1  0.00384064  0.86904052  0.25488902  1
  O  O227  1  0.00639381  0.87057144  0.75493393  1
  O  O228  1  0.50113925  0.36091744  0.24563112  1
  O  O229  1  0.50562777  0.36959565  0.75606410  1
  O  O230  1  0.50562616  0.86987527  0.25434804  1
  O  O231  1  0.50696817  0.86918533  0.75404060  1
  O  O232  1  0.50057761  0.13000508  0.23762282  1
  O  O233  1  0.49601972  0.13105904  0.74479608  1
  O  O234  1  0.49408845  0.63137319  0.24481922  1
  O  O235  1  0.49529104  0.63119905  0.74487485  1
  O  O236  1  0.99433587  0.13518986  0.25283452  1
  O  O237  1  0.99356141  0.12615130  0.74326763  1
  O  O238  1  0.99414865  0.62947703  0.24591436  1
  O  O239  1  0.99320361  0.63180992  0.75035311  1
  O  O240  1  0.37016389  0.26263808  -0.00000971  1
  O  O241  1  0.37543873  0.25262555  0.50985580  1
  O  O242  1  0.36883857  0.75313398  0.00643581  1
  O  O243  1  0.37209590  0.75553656  0.50420197  1
  O  O244  1  0.87068077  0.25811823  -0.00097438  1
  O  O245  1  0.86461228  0.24959754  0.50645582  1
  O  O246  1  0.86947320  0.75481529  0.00570440  1
  O  O247  1  0.87439067  0.75770813  0.50661835  1
  O  O248  1  0.12751314  0.24358001  0.49164912  1
  O  O249  1  0.12581209  0.24347028  0.99099850  1
  O  O250  1  0.13166888  0.74124121  0.50003269  1
  O  O251  1  0.12883951  0.73986151  1.00027495  1
  O  O252  1  0.63509336  0.24352380  0.50283174  1
  O  O253  1  0.62984112  0.24387111  0.99319349  1
  O  O254  1  0.62537266  0.74483313  0.49302355  1
  O  O255  1  0.63114554  0.74464651  0.99476237  1
  O  O256  1  0.49990892  0.23806135  0.12984651  1
  O  O257  1  0.49699749  0.24491704  0.63151598  1
  O  O258  1  0.49456847  0.74449576  0.13114956  1
  O  O259  1  0.49612119  0.74570859  0.62998771  1
  O  O260  1  0.99860259  0.25051897  0.13898180  1
  O  O261  1  0.99278169  0.24391491  0.62465394  1
  O  O262  1  0.99198276  0.74401427  0.13058597  1
  O  O263  1  0.99233475  0.74848328  0.63227041  1
  O  O264  1  0.00308374  0.25793294  0.36849139  1
  O  O265  1  0.01364582  0.24946628  0.87249368  1
  O  O266  1  0.00080402  0.75707101  0.36802458  1
  O  O267  1  -0.00000380  0.75746463  0.86818262  1
  O  O268  1  0.50270715  0.24542944  0.36206480  1
  O  O269  1  0.50546760  0.25466476  0.86937209  1
  O  O270  1  0.50518449  0.75606475  0.36899259  1
  O  O271  1  0.50659872  0.75424513  0.86842151  1
  O  O272  1  0.24479011  0.12762934  0.48762128  1
  O  O273  1  0.24361553  0.12575339  0.99004589  1
  O  O274  1  0.24391455  0.63037807  0.49528310  1
  O  O275  1  0.23964407  0.62838188  1.00207218  1
  O  O276  1  0.74574757  0.13239102  0.49615571  1
  O  O277  1  0.74528613  0.12896621  0.99345437  1
  O  O278  1  0.74268652  0.62832928  0.49374818  1
  O  O279  1  0.74489901  0.63118124  0.99463032  1
  O  O280  1  0.25650173  0.37530297  0.00919350  1
  O  O281  1  0.25309741  0.37452180  0.50830953  1
  O  O282  1  0.25400474  0.86780074  0.00518784  1
  O  O283  1  0.25742322  0.86912728  0.49823852  1
  O  O284  1  0.75915880  0.36841714  -0.00041184  1
  O  O285  1  0.75037471  0.36333185  0.50251518  1
  O  O286  1  0.75517403  0.86927035  0.00556428  1
  O  O287  1  0.75746341  0.87518623  0.50668770  1
  O  O288  1  0.13771017  0.49913007  0.24798247  1
  O  O289  1  0.13119882  0.49598861  0.74617254  1
  O  O290  1  0.12477622  0.99214908  0.24234801  1
  O  O291  1  0.12524447  0.98805907  0.74833000  1
  O  O292  1  0.62413052  0.50002868  0.23795425  1
  O  O293  1  0.62983573  0.49649455  0.74710104  1
  O  O294  1  0.63126225  0.99404596  0.24427756  1
  O  O295  1  0.63120563  0.99502323  0.74431295  1
  O  O296  1  0.37167193  0.00274148  0.25739350  1
  O  O297  1  0.37410929  0.00878318  0.75348823  1
  O  O298  1  0.36561280  0.50637566  0.24882044  1
  O  O299  1  0.37064661  0.50589029  0.75438954  1
  O  O300  1  0.86977224  0.00415108  0.25563964  1
  O  O301  1  0.87002362  0.00497774  0.75553427  1
  O  O302  1  0.87380811  0.50604319  0.26194726  1
  O  O303  1  0.86981685  0.50539143  0.75610786  1
  O  O304  1  0.11573220  0.37100414  0.37285998  1
  O  O305  1  0.12698121  0.36537760  0.87099934  1
  O  O306  1  0.11763974  0.87389586  0.36839860  1
  O  O307  1  0.11799523  0.87288736  0.86594499  1
  O  O308  1  0.61720068  0.37076288  0.37169914  1
  O  O309  1  0.61864849  0.36950717  0.87158429  1
  O  O310  1  0.61971834  0.87103414  0.36922160  1
  O  O311  1  0.62159722  0.86841572  0.86913632  1
  O  O312  1  0.38536323  0.12396092  0.12133599  1
  O  O313  1  0.38175332  0.13143398  0.62995668  1
  O  O314  1  0.37950957  0.62999986  0.12968311  1
  O  O315  1  0.38157008  0.63222802  0.63117574  1
  O  O316  1  0.87911528  0.12712382  0.13395795  1
  O  O317  1  0.88082886  0.13059994  0.63043962  1
  O  O318  1  0.87809695  0.62970749  0.13075590  1
  O  O319  1  0.87577491  0.63209840  0.63241105  1
  O  O320  1  0.25112626  0.26037115  0.12552913  1
  O  O321  1  0.25795889  0.25712042  0.62395326  1
  O  O322  1  0.25525773  0.75447931  0.11983928  1
  O  O323  1  0.25912714  0.75349342  0.61712288  1
  O  O324  1  0.75209965  0.25027636  0.11521526  1
  O  O325  1  0.75650152  0.24939546  0.61668836  1
  O  O326  1  0.75443158  0.75447609  0.12050233  1
  O  O327  1  0.75685660  0.75854075  0.62423136  1
  O  O328  1  0.24526313  0.24210853  0.37348607  1
  O  O329  1  0.23957023  0.24007744  0.87574632  1
  O  O330  1  0.24856374  0.74274069  0.38142810  1
  O  O331  1  0.24696046  0.74495303  0.88447983  1
  O  O332  1  0.75021308  0.24342619  0.38630611  1
  O  O333  1  0.74397636  0.24329425  0.87976765  1
  O  O334  1  0.74314028  0.74422333  0.37659560  1
  O  O335  1  0.74508734  0.74526835  0.88056517  1
  O  O336  1  0.00604918  0.11695140  0.00032217  1
  O  O337  1  0.00488313  0.12084968  0.50326603  1
  O  O338  1  0.00464924  0.62012984  0.00631522  1
  O  O339  1  0.01355289  0.62519879  0.50104805  1
  O  O340  1  0.50610650  0.12484498  0.00749100  1
  O  O341  1  0.50596651  0.12000182  0.50561449  1
  O  O342  1  0.50596454  0.62463815  0.00668033  1
  O  O343  1  0.50583680  0.61906154  0.50617813  1
  O  O344  1  0.50098053  0.38914234  0.50416148  1
  O  O345  1  0.48856862  0.37466106  0.99395619  1
  O  O346  1  0.49564051  0.88170610  0.49326069  1
  O  O347  1  0.49366720  0.87281415  0.99331570  1
  O  O348  1  0.99878880  0.37638350  0.48743594  1
  O  O349  1  0.99054388  0.37988101  0.99899291  1
  O  O350  1  0.99509806  0.88094055  0.49453529  1
  O  O351  1  0.99358271  0.87891811  0.99507915  1
  O  O352  1  0.50018225  0.50279336  0.38824235  1
  O  O353  1  0.49236848  0.49230706  0.87686047  1
  O  O354  1  0.49621313  0.99578067  0.37952226  1
  O  O355  1  0.49947876  0.99046048  0.87716894  1
  O  O356  1  0.99229920  0.49261731  0.37517449  1
  O  O357  1  0.99176145  0.49872637  0.88354176  1
  O  O358  1  0.99388475  0.99502330  0.37962415  1
  O  O359  1  0.99346812  0.99419851  0.88078361  1
  O  O360  1  0.00591698  -0.00006408  0.11758416  1
  O  O361  1  0.00127130  0.00846353  0.61655575  1
  O  O362  1  -0.00097127  0.50578665  0.12036226  1
  O  O363  1  0.00936508  0.50355537  0.62240098  1
  O  O364  1  0.50628733  0.00793040  0.12347977  1
  O  O365  1  0.50625057  0.00608190  0.61921377  1
  O  O366  1  0.50755882  0.50675643  0.12265980  1
  O  O367  1  0.50639830  0.50763185  0.61980219  1
  O  O368  1  0.25231915  0.38254466  0.24219483  1
  O  O369  1  0.24484684  0.38136843  0.74409113  1
  O  O370  1  0.24235555  0.87456855  0.24278287  1
  O  O371  1  0.23926838  0.87484937  0.74933961  1
  O  O372  1  0.74583746  0.37775382  0.24634493  1
  O  O373  1  0.74305749  0.38274732  0.75176223  1
  O  O374  1  0.74502996  0.88000272  0.24498001  1
  O  O375  1  0.74508285  0.88142760  0.74492997  1
  O  O376  1  0.24922702  0.12324064  0.26145706  1
  O  O377  1  0.25563756  0.12530004  0.75872993  1
  O  O378  1  0.25422202  0.61789078  0.25282720  1
  O  O379  1  0.25707233  0.61946418  0.75047451  1
  O  O380  1  0.75450921  0.11898337  0.25548799  1
  O  O381  1  0.75553755  0.11935652  0.75522917  1
  O  O382  1  0.75698061  0.62263306  0.25799735  1
  O  O383  1  0.75561088  0.62040095  0.75684289  1
  O  O384  1  0.36558415  0.11951890  0.37451525  1
  O  O385  1  0.36527212  0.12693507  0.86995328  1
  O  O386  1  0.36876314  0.62292852  0.36698420  1
  O  O387  1  0.37449648  0.61819738  0.86854259  1
  O  O388  1  0.86887190  0.11852554  0.37025477  1
  O  O389  1  0.86960467  0.11940788  0.86987659  1
  O  O390  1  0.87127100  0.61850184  0.37160441  1
  O  O391  1  0.86886891  0.62027169  0.87065639  1
  O  O392  1  0.13604017  0.37706053  0.12704092  1
  O  O393  1  0.13153971  0.38053559  0.63048349  1
  O  O394  1  0.12916094  0.87901938  0.12925676  1
  O  O395  1  0.12549349  0.87718160  0.63566926  1
  O  O396  1  0.62400213  0.38685009  0.12232166  1
  O  O397  1  0.62793501  0.38309847  0.63488154  1
  O  O398  1  0.63051337  0.87837696  0.13027894  1
  O  O399  1  0.63031676  0.88109553  0.63024880  1
  O  O400  1  0.11354166  0.25206551  0.25730388  1
  O  O401  1  0.12489304  0.25639922  0.75889462  1
  O  O402  1  0.11698898  0.75550360  0.25051747  1
  O  O403  1  0.11882801  0.75876093  0.75039695  1
  O  O404  1  0.61429162  0.24878128  0.25006409  1
  O  O405  1  0.62044176  0.25510710  0.75571754  1
  O  O406  1  0.61918898  0.75521520  0.25486708  1
  O  O407  1  0.62083950  0.75522744  0.75499134  1
  O  O408  1  0.38690399  0.24323347  0.24439718  1
  O  O409  1  0.38188585  0.24482571  0.74485045  1
  O  O410  1  0.38003723  0.74532336  0.24392394  1
  O  O411  1  0.38162514  0.74550889  0.74448446  1
  O  O412  1  0.88346265  0.24451446  0.25207416  1
  O  O413  1  0.87508028  0.24331292  0.74428496  1
  O  O414  1  0.87971799  0.74461652  0.24483371  1
  O  O415  1  0.87940691  0.74568238  0.74522234  1
  O  O416  1  0.38756574  0.50178675  0.50108611  1
  O  O417  1  0.37472757  0.48902878  0.99428681  1
  O  O418  1  0.38233485  0.99556906  0.49360971  1
  O  O419  1  0.37783450  0.98871435  0.99464579  1
  O  O420  1  0.87776922  0.50099509  0.48946841  1
  O  O421  1  0.87760036  0.49287528  0.99572600  1
  O  O422  1  0.88063566  0.99553122  0.49409573  1
  O  O423  1  0.87869054  0.99399322  0.99462500  1
  O  O424  1  0.11871380  0.00338270  0.00412769  1
  O  O425  1  0.11731873  0.00813028  0.49911710  1
  O  O426  1  0.11771265  0.50814753  0.00234610  1
  O  O427  1  0.12672686  0.51126671  0.50578517  1
  O  O428  1  0.62416806  0.00574744  0.00625607  1
  O  O429  1  0.62033412  0.00512996  0.50590321  1
  O  O430  1  0.62265375  0.50687103  0.00739152  1
  O  O431  1  0.61813993  0.50731355  0.50714192  1
  O  O432  1  0.36612542  0.37433874  0.11537778  1
  O  O433  1  0.36954432  0.36884911  0.62577171  1
  O  O434  1  0.36934423  0.86806718  0.11954544  1
  O  O435  1  0.37690804  0.86916632  0.61706460  1
  O  O436  1  0.87239015  0.37392532  0.11234512  1
  O  O437  1  0.87275407  0.36792473  0.62330461  1
  O  O438  1  0.86900710  0.86906493  0.11999755  1
  O  O439  1  0.87052430  0.87170151  0.62018999  1
  O  O440  1  0.13255198  0.13022114  0.37920877  1
  O  O441  1  0.13176766  0.13097794  0.87812177  1
  O  O442  1  0.13203342  0.62625791  0.38491097  1
  O  O443  1  0.12501536  0.62653578  0.88843910  1
  O  O444  1  0.63272044  0.12507838  0.38282563  1
  O  O445  1  0.63034899  0.12989694  0.87865407  1
  O  O446  1  0.63005055  0.63100311  0.37978854  1
  O  O447  1  0.62998986  0.63054231  0.87981326  1
