# generated using pymatgen
data_V3Zn3O8
_symmetry_space_group_name_H-M   'P 1'
_cell_length_a   17.08626344
_cell_length_b   17.08604706
_cell_length_c   17.08732326
_cell_angle_alpha   89.99929990
_cell_angle_beta   90.00060631
_cell_angle_gamma   90.00310980
_symmetry_Int_Tables_number   1
_chemical_formula_structural   V3Zn3O8
_chemical_formula_sum   'V96 Zn96 O256'
_cell_volume   4988.41677706
_cell_formula_units_Z   32
loop_
 _symmetry_equiv_pos_site_id
 _symmetry_equiv_pos_as_xyz
  1  'x, y, z'
loop_
 _atom_site_type_symbol
 _atom_site_label
 _atom_site_symmetry_multiplicity
 _atom_site_fract_x
 _atom_site_fract_y
 _atom_site_fract_z
 _atom_site_occupancy
  V  V0  1  0.24964117  -0.00056809  0.74868041  1
  V  V1  1  0.62499155  0.87534095  0.74984624  1
  V  V2  1  0.37414177  -0.00060265  0.87404462  1
  V  V3  1  -0.00026023  0.62763473  0.62563942  1
  V  V4  1  0.62416071  0.12498141  0.00023201  1
  V  V5  1  0.12690558  0.62578313  0.49994417  1
  V  V6  1  0.25013353  0.62574387  0.87413474  1
  V  V7  1  0.62555096  0.49957843  0.12424007  1
  V  V8  1  0.50102466  0.74976164  0.74928154  1
  V  V9  1  0.25020759  0.37542740  0.62612483  1
  V  V10  1  0.74912209  0.00051589  0.25000822  1
  V  V11  1  0.24933834  0.12504842  0.87383308  1
  V  V12  1  0.12477699  0.24976862  0.37522010  1
  V  V13  1  0.24945909  0.24920774  0.49827369  1
  V  V14  1  0.00082055  0.37460190  0.37572483  1
  V  V15  1  0.87689205  0.50006267  0.87558937  1
  V  V16  1  0.62607363  0.62490521  -0.00051128  1
  V  V17  1  0.00078458  0.37553082  0.87551458  1
  V  V18  1  0.00061458  0.50064909  0.50008349  1
  V  V19  1  0.37525682  0.50182124  0.87530324  1
  V  V20  1  0.74965854  0.74984959  0.00157577  1
  V  V21  1  0.37157607  0.12344856  0.24954461  1
  V  V22  1  -0.00014409  0.24970378  0.24870789  1
  V  V23  1  0.12566476  0.25007131  0.87443622  1
  V  V24  1  0.37539061  0.87403696  0.49912045  1
  V  V25  1  0.87403719  0.00016672  0.37497639  1
  V  V26  1  0.75021967  0.49810469  0.25022522  1
  V  V27  1  0.00014645  0.87525810  0.87244235  1
  V  V28  1  0.12395988  -0.00056237  0.12510774  1
  V  V29  1  0.12497383  0.75013961  0.37532723  1
  V  V30  1  0.74813769  -0.00027896  0.75036698  1
  V  V31  1  0.37539412  0.12545921  0.74842145  1
  V  V32  1  0.24931084  0.87522607  0.62436546  1
  V  V33  1  0.50132408  0.62326566  0.62486573  1
  V  V34  1  0.00080448  0.62544606  0.12544626  1
  V  V35  1  0.87504271  0.12600073  0.24972487  1
  V  V36  1  0.37496833  0.37513307  0.00035836  1
  V  V37  1  0.62399015  0.74989867  0.37271426  1
  V  V38  1  0.75107613  0.75015872  0.50010860  1
  V  V39  1  0.74946484  0.87528489  0.12597540  1
  V  V40  1  0.87417952  0.75006258  0.12529254  1
  V  V41  1  0.62513432  -0.00024451  0.12556080  1
  V  V42  1  -0.00055017  0.00216404  -0.00033594  1
  V  V43  1  0.24969609  0.25063491  0.00002903  1
  V  V44  1  0.12382502  0.75097250  0.87383555  1
  V  V45  1  0.25002652  0.49915765  0.25000594  1
  V  V46  1  0.24976290  0.75026579  -0.00055201  1
  V  V47  1  0.62593410  0.74936301  0.87543567  1
  V  V48  1  0.37383768  -0.00095669  0.37345004  1
  V  V49  1  0.62604026  0.50055125  0.62542816  1
  V  V50  1  0.49939066  0.25097592  0.25038908  1
  V  V51  1  -0.00011703  0.12451516  0.62469847  1
  V  V52  1  0.24895009  0.87523084  0.12472487  1
  V  V53  1  0.12437892  0.12476864  0.49998122  1
  V  V54  1  0.75034001  0.25024533  0.00081619  1
  V  V55  1  0.87504740  0.49933477  0.37539878  1
  V  V56  1  0.37484666  0.62445270  0.75011104  1
  V  V57  1  0.50030719  0.00061902  0.49946297  1
  V  V58  1  0.12479941  0.62548182  0.00045492  1
  V  V59  1  0.37540576  0.74960324  0.12505598  1
  V  V60  1  0.74906874  0.12461694  0.87597385  1
  V  V61  1  0.00012690  0.87487039  0.37497821  1
  V  V62  1  0.49916290  0.00027826  -0.00022613  1
  V  V63  1  0.87533027  0.62411752  0.25007377  1
  V  V64  1  0.87581208  0.37519320  0.50166904  1
  V  V65  1  0.49978321  0.87397293  0.37387187  1
  V  V66  1  0.87585789  0.37506578  -0.00003731  1
  V  V67  1  0.50004838  0.62567165  0.12483450  1
  V  V68  1  0.74920392  0.24906994  0.50070373  1
  V  V69  1  0.87437624  0.00018952  0.87534642  1
  V  V70  1  0.87422543  0.12544447  0.75042022  1
  V  V71  1  0.74840046  0.12609263  0.37689400  1
  V  V72  1  0.37661866  0.62471590  0.24971794  1
  V  V73  1  0.49829982  0.12458287  0.12448507  1
  V  V74  1  0.50025201  0.49978080  -0.00081573  1
  V  V75  1  0.49984636  0.24995034  0.75039124  1
  V  V76  1  0.37760616  0.49979049  0.37537742  1
  V  V77  1  0.00044111  0.75082860  0.25061817  1
  V  V78  1  0.37634898  0.74947914  0.62387688  1
  V  V79  1  0.75142985  0.37396224  0.12443700  1
  V  V80  1  0.75204447  0.50011779  0.75056653  1
  V  V81  1  -0.00080368  0.00062574  0.50028334  1
  V  V82  1  0.87381457  0.87467715  0.49990239  1
  V  V83  1  0.12564697  0.50091781  0.12626950  1
  V  V84  1  0.62422885  0.25038153  0.87521240  1
  V  V85  1  0.74991586  0.62415155  0.37498906  1
  V  V86  1  0.62366307  0.00123997  0.62339753  1
  V  V87  1  0.62441836  0.37344946  0.25015177  1
  V  V88  1  0.37712442  0.37416386  0.49987872  1
  V  V89  1  0.37424082  0.87488173  -0.00061101  1
  V  V90  1  0.87629449  0.62727132  0.75104795  1
  V  V91  1  0.12664175  0.37575905  0.74945035  1
  V  V92  1  0.87477536  0.25066452  0.62610184  1
  V  V93  1  0.75101076  0.37543355  0.62706971  1
  V  V94  1  0.00034681  0.25026083  0.75027685  1
  V  V95  1  0.49956252  0.87464313  0.87455923  1
  Zn  Zn96  1  0.24694788  -0.00161274  0.25104107  1
  Zn  Zn97  1  0.62497359  0.37547592  0.75292876  1
  Zn  Zn98  1  0.87640926  0.24892076  0.12393978  1
  Zn  Zn99  1  -0.00034337  0.75258590  0.74929035  1
  Zn  Zn100  1  0.49763814  0.12634299  0.62185097  1
  Zn  Zn101  1  0.12397212  0.87507104  0.74744296  1
  Zn  Zn102  1  0.87300420  0.75271851  0.62716173  1
  Zn  Zn103  1  0.00102962  0.49985506  0.00108552  1
  Zn  Zn104  1  0.62273467  0.87627206  0.24941146  1
  Zn  Zn105  1  0.62199768  0.12823181  0.49924957  1
  Zn  Zn106  1  0.24970129  0.50079716  0.75029732  1
  Zn  Zn107  1  0.62470481  0.25046379  0.37777482  1
  Zn  Zn108  1  0.62410523  0.62272993  0.49868602  1
  Zn  Zn109  1  -0.00046001  0.12595588  0.12404472  1
  Zn  Zn110  1  0.37721577  0.24838859  0.62359894  1
  Zn  Zn111  1  0.37147322  0.24989229  0.12524397  1
  Zn  Zn112  1  0.12379052  -0.00099820  0.62521248  1
  Zn  Zn113  1  0.75065866  0.87468526  0.62522374  1
  Zn  Zn114  1  0.12478205  0.12657896  0.00011624  1
  Zn  Zn115  1  0.24786202  0.37393951  0.12522175  1
  Zn  Zn116  1  0.50279677  0.37396230  0.37655946  1
  Zn  Zn117  1  0.50248212  0.49891173  0.50071154  1
  Zn  Zn118  1  0.24793336  0.12285433  0.37462690  1
  Zn  Zn119  1  0.12577376  0.37439220  0.24980747  1
  Zn  Zn120  1  0.75184052  0.62543970  0.87589711  1
  Zn  Zn121  1  0.25225369  0.62686391  0.37692641  1
  Zn  Zn122  1  0.50230390  0.37616615  0.87511703  1
  Zn  Zn123  1  0.12625635  0.50148885  0.62701434  1
  Zn  Zn124  1  0.87353369  0.87486768  0.00032526  1
  Zn  Zn125  1  0.12614496  0.87478787  0.25142548  1
  Zn  Zn126  1  0.49932688  0.75114531  0.24938938  1
  Zn  Zn127  1  0.25185089  0.74915641  0.49835984  1
  Zn  Zn128  1  0.18488283  0.18570416  0.18566341  1
  Zn  Zn129  1  0.18800604  0.18802070  0.68545302  1
  Zn  Zn130  1  0.18874604  0.68700909  0.18947229  1
  Zn  Zn131  1  0.18739761  0.69075668  0.68887406  1
  Zn  Zn132  1  0.68704360  0.18732278  0.18774840  1
  Zn  Zn133  1  0.68572845  0.18666663  0.68764379  1
  Zn  Zn134  1  0.68780204  0.68630058  0.18785868  1
  Zn  Zn135  1  0.68846787  0.68648362  0.68732294  1
  Zn  Zn136  1  0.31213613  0.31232357  0.31370832  1
  Zn  Zn137  1  0.31478988  0.31298133  0.81370116  1
  Zn  Zn138  1  0.31024494  0.81200033  0.31132364  1
  Zn  Zn139  1  0.31214691  0.81163569  0.81042194  1
  Zn  Zn140  1  0.81289991  0.31144615  0.31381102  1
  Zn  Zn141  1  0.81221910  0.31349395  0.81387747  1
  Zn  Zn142  1  0.81203007  0.81383533  0.31162902  1
  Zn  Zn143  1  0.81166180  0.81312585  0.81435970  1
  Zn  Zn144  1  0.18799214  0.43769140  0.43751197  1
  Zn  Zn145  1  0.18777900  0.43921267  0.93711795  1
  Zn  Zn146  1  0.18743697  0.93848713  0.43798726  1
  Zn  Zn147  1  0.18586216  0.93727034  0.93707611  1
  Zn  Zn148  1  0.68783587  0.43409170  0.43824782  1
  Zn  Zn149  1  0.68937049  0.43718941  0.93572729  1
  Zn  Zn150  1  0.68661259  0.93678106  0.43675776  1
  Zn  Zn151  1  0.68662279  0.93632208  0.93904154  1
  Zn  Zn152  1  0.31075554  0.06273764  0.06209359  1
  Zn  Zn153  1  0.31330653  0.06246322  0.56171909  1
  Zn  Zn154  1  0.31190297  0.56332092  0.06251858  1
  Zn  Zn155  1  0.31325081  0.56066974  0.56348618  1
  Zn  Zn156  1  0.81373601  0.06360849  0.06431606  1
  Zn  Zn157  1  0.81099127  0.06260928  0.56291322  1
  Zn  Zn158  1  0.81318467  0.56203230  0.06213273  1
  Zn  Zn159  1  0.81260203  0.56400116  0.56249411  1
  Zn  Zn160  1  0.43727761  0.43702124  0.18504770  1
  Zn  Zn161  1  0.43838488  0.43657638  0.68917748  1
  Zn  Zn162  1  0.43769165  0.93621941  0.18827752  1
  Zn  Zn163  1  0.43739915  0.93765011  0.68660527  1
  Zn  Zn164  1  0.93848392  0.43622805  0.18704597  1
  Zn  Zn165  1  0.93974230  0.43976958  0.68790367  1
  Zn  Zn166  1  0.93639681  0.93615255  0.18796761  1
  Zn  Zn167  1  0.93445179  0.93859143  0.68599779  1
  Zn  Zn168  1  0.06177424  0.06314083  0.31266424  1
  Zn  Zn169  1  0.06514186  0.06198075  0.81029057  1
  Zn  Zn170  1  0.06295601  0.56367236  0.31346892  1
  Zn  Zn171  1  0.06378414  0.56090674  0.81229756  1
  Zn  Zn172  1  0.56265167  0.06396201  0.31376104  1
  Zn  Zn173  1  0.56150552  0.06378426  0.81184128  1
  Zn  Zn174  1  0.56222375  0.56221867  0.31119742  1
  Zn  Zn175  1  0.56299631  0.56320685  0.81251603  1
  Zn  Zn176  1  0.43691583  0.18595764  0.43516534  1
  Zn  Zn177  1  0.43617255  0.18754284  0.93507846  1
  Zn  Zn178  1  0.44012712  0.68539259  0.44001877  1
  Zn  Zn179  1  0.43836436  0.68757884  0.93784370  1
  Zn  Zn180  1  0.93621088  0.18741867  0.43703551  1
  Zn  Zn181  1  0.93692815  0.18823812  0.93688962  1
  Zn  Zn182  1  0.93756954  0.68794821  0.43700719  1
  Zn  Zn183  1  0.93818418  0.68829030  0.93941316  1
  Zn  Zn184  1  0.06371982  0.31540228  0.06348308  1
  Zn  Zn185  1  0.06394444  0.31174064  0.56322156  1
  Zn  Zn186  1  0.06151673  0.81387933  0.06113939  1
  Zn  Zn187  1  0.06230808  0.81201006  0.56113693  1
  Zn  Zn188  1  0.56155372  0.31197046  0.06394989  1
  Zn  Zn189  1  0.56408433  0.31326875  0.56592724  1
  Zn  Zn190  1  0.56286054  0.81268297  0.06270161  1
  Zn  Zn191  1  0.56344970  0.81352931  0.56089640  1
  O  O192  1  0.12113967  0.11279872  0.12072495  1
  O  O193  1  0.11741050  0.12458821  0.61822097  1
  O  O194  1  0.12061355  0.62022509  0.12056953  1
  O  O195  1  0.11690082  0.62567757  0.61767241  1
  O  O196  1  0.61863153  0.11943021  0.11904863  1
  O  O197  1  0.62255111  0.11130509  0.62432112  1
  O  O198  1  0.62039978  0.61880519  0.11988709  1
  O  O199  1  0.62099627  0.61544839  0.62480257  1
  O  O200  1  0.37552705  0.38311754  0.38367879  1
  O  O201  1  0.37619430  0.38181944  0.88634000  1
  O  O202  1  0.37984208  0.87854637  0.37952607  1
  O  O203  1  0.37994823  0.87941166  0.87975616  1
  O  O204  1  0.88034675  0.38059215  0.38219453  1
  O  O205  1  0.88130892  0.37997024  0.88005449  1
  O  O206  1  0.88003648  0.88088652  0.38009556  1
  O  O207  1  0.88331376  0.88187432  0.87685889  1
  O  O208  1  0.25755020  0.00178581  0.37136721  1
  O  O209  1  0.25509413  0.00429697  0.86978230  1
  O  O210  1  0.26008193  0.50104527  0.36711661  1
  O  O211  1  0.25722677  0.50856445  0.87457318  1
  O  O212  1  0.75524117  0.00492947  0.37008042  1
  O  O213  1  0.75364941  0.00529390  0.87095521  1
  O  O214  1  0.75571502  0.50380755  0.37017505  1
  O  O215  1  0.75842593  0.50269989  0.86870623  1
  O  O216  1  0.24379150  0.50165033  0.13434487  1
  O  O217  1  0.24883903  0.48675045  0.62637997  1
  O  O218  1  0.23918778  0.99419630  0.12262032  1
  O  O219  1  0.25133038  0.98908101  0.62938788  1
  O  O220  1  0.74503378  0.49429430  0.13081874  1
  O  O221  1  0.74488111  0.49596888  0.63013273  1
  O  O222  1  0.74453944  0.99572158  0.12979682  1
  O  O223  1  0.74058560  0.99859152  0.63134162  1
  O  O224  1  0.00026550  0.36560826  0.25723510  1
  O  O225  1  0.00542647  0.36924395  0.75468788  1
  O  O226  1  0.00024659  0.86795170  0.25742887  1
  O  O227  1  -0.00070112  0.87633572  0.76139024  1
  O  O228  1  0.50402100  0.36546788  0.24770410  1
  O  O229  1  0.50080967  0.36308949  0.75372708  1
  O  O230  1  0.50197291  0.87135154  0.25756065  1
  O  O231  1  0.50466820  0.86936022  0.75561255  1
  O  O232  1  0.49120495  0.13168363  0.24471734  1
  O  O233  1  0.49370283  0.13409678  0.75015093  1
  O  O234  1  0.49401153  0.62573170  0.24207967  1
  O  O235  1  0.49490076  0.63130881  0.74472612  1
  O  O236  1  0.99400718  0.13531003  0.25109648  1
  O  O237  1  0.99402014  0.13028796  0.74555506  1
  O  O238  1  0.99427463  0.63091460  0.24572076  1
  O  O239  1  0.99266586  0.62498253  0.74187244  1
  O  O240  1  0.36689726  0.25787625  -0.00134360  1
  O  O241  1  0.36981048  0.25970742  0.49857770  1
  O  O242  1  0.36950654  0.75541619  0.00459568  1
  O  O243  1  0.37493439  0.75565633  0.50651446  1
  O  O244  1  0.86825479  0.25628536  0.00016914  1
  O  O245  1  0.87070895  0.25605911  0.50726938  1
  O  O246  1  0.86809667  0.75063342  0.00779601  1
  O  O247  1  0.86467185  0.75482132  0.49765892  1
  O  O248  1  0.12904125  0.24457079  0.49447158  1
  O  O249  1  0.13386538  0.25081795  0.99360151  1
  O  O250  1  0.12490744  0.73955182  0.49454109  1
  O  O251  1  0.13050116  0.74515305  0.99456288  1
  O  O252  1  0.63310873  0.24933855  0.50005723  1
  O  O253  1  0.62959412  0.24377832  0.99580269  1
  O  O254  1  0.63389476  0.74929065  0.48946945  1
  O  O255  1  0.62963388  0.74442254  0.99528676  1
  O  O256  1  0.49681490  0.24327936  0.13419484  1
  O  O257  1  0.49919054  0.24773653  0.63715271  1
  O  O258  1  0.49356350  0.74357933  0.12500914  1
  O  O259  1  0.49674197  0.74485793  0.63003307  1
  O  O260  1  1.00057905  0.24948570  0.13641430  1
  O  O261  1  0.99384353  0.24507990  0.63092012  1
  O  O262  1  0.99471010  0.74533949  0.13012911  1
  O  O263  1  0.99629848  0.73865540  0.62571486  1
  O  O264  1  0.00411217  0.25511137  0.36814697  1
  O  O265  1  0.00550677  0.25527132  0.86906945  1
  O  O266  1  0.00449472  0.75511769  0.37026719  1
  O  O267  1  0.00428919  0.76088171  0.87641603  1
  O  O268  1  0.50045520  0.25105855  0.36092832  1
  O  O269  1  0.50587549  0.24994281  0.86685216  1
  O  O270  1  0.50978538  0.75380899  0.37549859  1
  O  O271  1  0.50552745  0.75528066  0.86947151  1
  O  O272  1  0.24369211  0.13176882  0.49931812  1
  O  O273  1  0.25064595  0.13501958  0.99257127  1
  O  O274  1  0.23830275  0.62535189  0.50115856  1
  O  O275  1  0.24493286  0.63172537  0.99443600  1
  O  O276  1  0.74974227  0.13186813  0.49471078  1
  O  O277  1  0.74425746  0.12967893  0.99538777  1
  O  O278  1  0.75018234  0.63380630  0.49308528  1
  O  O279  1  0.74361348  0.63137132  0.99991373  1
  O  O280  1  0.25776337  0.36696952  -0.00130345  1
  O  O281  1  0.25747865  0.37052543  0.50665038  1
  O  O282  1  0.25549870  0.86943378  0.00368923  1
  O  O283  1  0.25659032  0.87413751  0.50962149  1
  O  O284  1  0.75570064  0.36948045  0.00488147  1
  O  O285  1  0.75754431  0.36989817  0.50720866  1
  O  O286  1  0.75079221  0.86855188  0.00732550  1
  O  O287  1  0.75549597  0.86510189  0.49807803  1
  O  O288  1  0.13459291  0.50162568  0.24558075  1
  O  O289  1  0.12926749  0.49192525  0.74730005  1
  O  O290  1  0.12356456  0.99800836  0.23795285  1
  O  O291  1  0.13376589  0.99666585  0.74561816  1
  O  O292  1  0.63069404  0.49422554  0.24372201  1
  O  O293  1  0.63234329  0.50029976  0.74157649  1
  O  O294  1  0.63116716  1.00083642  0.24295907  1
  O  O295  1  0.62805147  0.99519634  0.74359067  1
  O  O296  1  0.37472584  0.00962208  0.25382201  1
  O  O297  1  0.37051954  0.00464631  0.75572817  1
  O  O298  1  0.36911650  0.50326669  0.25605547  1
  O  O299  1  0.37435564  0.50690784  0.75695413  1
  O  O300  1  0.86951773  0.00550218  0.25573656  1
  O  O301  1  0.86797002  0.00649896  0.75560878  1
  O  O302  1  0.86996735  0.50415270  0.25561147  1
  O  O303  1  0.87223179  0.50870760  0.75485306  1
  O  O304  1  0.11815546  0.36899710  0.37428093  1
  O  O305  1  0.12101903  0.36957881  0.86954858  1
  O  O306  1  0.11728682  0.86873806  0.37541837  1
  O  O307  1  0.11540685  0.87015560  0.87396767  1
  O  O308  1  0.62208339  0.37249376  0.36630541  1
  O  O309  1  0.62302753  0.36686506  0.87313332  1
  O  O310  1  0.61942849  0.86566083  0.37346641  1
  O  O311  1  0.61840779  0.86982950  0.87005887  1
  O  O312  1  0.37997584  0.12515948  0.13317930  1
  O  O313  1  0.37665630  0.12797012  0.63296770  1
  O  O314  1  0.38078237  0.63007768  0.12868843  1
  O  O315  1  0.38050971  0.62922222  0.63007307  1
  O  O316  1  0.87883489  0.12814720  0.13356345  1
  O  O317  1  0.87968227  0.13077751  0.63143971  1
  O  O318  1  0.88031458  0.62945737  0.13132906  1
  O  O319  1  0.88361313  0.62583939  0.63337284  1
  O  O320  1  0.24967000  0.25168266  0.11299361  1
  O  O321  1  0.25233311  0.26137346  0.61825924  1
  O  O322  1  0.25508392  0.75427926  0.11844296  1
  O  O323  1  0.25745279  0.75983111  0.62402345  1
  O  O324  1  0.75084192  0.25620590  0.11822066  1
  O  O325  1  0.75605675  0.25503945  0.62245971  1
  O  O326  1  0.75446506  0.75472773  0.12166600  1
  O  O327  1  0.74916711  0.75118815  0.61193292  1
  O  O328  1  0.24260210  0.24883292  0.38090078  1
  O  O329  1  0.24568128  0.24557730  0.88167633  1
  O  O330  1  0.24210386  0.74631468  0.37842403  1
  O  O331  1  0.24499039  0.74567969  0.88019963  1
  O  O332  1  0.75027211  0.24426392  0.38278414  1
  O  O333  1  0.74473341  0.24383661  0.88057627  1
  O  O334  1  0.74325421  0.74481970  0.38053927  1
  O  O335  1  0.74330076  0.74879310  0.88262719  1
  O  O336  1  0.00154740  0.11350342  -0.00052825  1
  O  O337  1  0.00336418  0.12048675  0.50544442  1
  O  O338  1  0.00709436  0.62389248  0.00773359  1
  O  O339  1  0.00608286  0.62121940  0.50712297  1
  O  O340  1  0.50360728  0.11972394  0.00398597  1
  O  O341  1  0.50119434  0.11699444  0.50153620  1
  O  O342  1  0.50594077  0.61962921  0.00548627  1
  O  O343  1  0.50396332  0.61962072  0.50947661  1
  O  O344  1  0.48853521  0.37586934  0.49983890  1
  O  O345  1  0.49099228  0.38038278  0.99994072  1
  O  O346  1  0.49418095  0.88017957  0.49394480  1
  O  O347  1  0.49416880  0.88037154  0.99413041  1
  O  O348  1  0.99501422  0.38035335  0.49633976  1
  O  O349  1  0.99443324  0.37623416  0.99317644  1
  O  O350  1  0.99370811  0.88025220  0.49460017  1
  O  O351  1  0.99801116  0.88523871  0.98974025  1
  O  O352  1  0.48872231  0.49673915  0.37563475  1
  O  O353  1  0.49377726  0.49981148  0.88188332  1
  O  O354  1  0.49460313  0.99390345  0.37960470  1
  O  O355  1  0.49444082  0.99440269  0.88004450  1
  O  O356  1  0.99426000  0.49493902  0.38002847  1
  O  O357  1  0.99492560  0.49275479  0.87685276  1
  O  O358  1  0.99327878  0.99509449  0.38039274  1
  O  O359  1  0.99589525  0.99456681  0.88104382  1
  O  O360  1  0.00624512  -0.00233915  0.11530203  1
  O  O361  1  -0.00069980  0.00700535  0.61822554  1
  O  O362  1  0.00855070  0.50737105  0.12654395  1
  O  O363  1  0.00171435  0.51135617  0.61880224  1
  O  O364  1  0.50450899  0.00461484  0.11854146  1
  O  O365  1  0.50848202  -0.00036054  0.61910610  1
  O  O366  1  0.50601638  0.50553961  0.11880473  1
  O  O367  1  0.51060466  0.50415167  0.62693044  1
  O  O368  1  0.25016702  0.38731072  0.24782046  1
  O  O369  1  0.24667111  0.37385690  0.74110997  1
  O  O370  1  0.24699911  0.87761000  0.23983276  1
  O  O371  1  0.25165414  0.88024080  0.73945939  1
  O  O372  1  0.74565665  0.37933674  0.24483633  1
  O  O373  1  0.75075604  0.38189909  0.74378312  1
  O  O374  1  0.74776123  0.88275123  0.24411192  1
  O  O375  1  0.74268340  0.88177645  0.74975070  1
  O  O376  1  0.26123556  0.12399689  0.24962431  1
  O  O377  1  0.25527168  0.12045740  0.75434433  1
  O  O378  1  0.25750142  0.61399506  0.25221064  1
  O  O379  1  0.25706655  0.62512695  0.75577168  1
  O  O380  1  0.75525958  0.12022502  0.25568347  1
  O  O381  1  0.75453148  0.11990660  0.75664388  1
  O  O382  1  0.75594597  0.61752086  0.25486145  1
  O  O383  1  0.76179961  0.61993651  0.75018641  1
  O  O384  1  0.37373526  0.11837583  0.36382029  1
  O  O385  1  0.36852162  0.11813252  0.86896806  1
  O  O386  1  0.37532167  0.61479386  0.37077716  1
  O  O387  1  0.37010525  0.62194527  0.87018899  1
  O  O388  1  0.86903674  0.11887640  0.36987926  1
  O  O389  1  0.86877093  0.12004618  0.86937205  1
  O  O390  1  0.87047029  0.61862657  0.36936712  1
  O  O391  1  0.87728073  0.61985715  0.86571574  1
  O  O392  1  0.12762066  0.38661029  0.12863302  1
  O  O393  1  0.13425775  0.37563297  0.62966207  1
  O  O394  1  0.12967346  0.88382700  0.12414596  1
  O  O395  1  0.13625145  0.87538342  0.62473104  1
  O  O396  1  0.63116273  0.38085673  0.12942249  1
  O  O397  1  0.63229160  0.38491039  0.62938816  1
  O  O398  1  0.63061801  0.88196382  0.12631364  1
  O  O399  1  0.62571836  0.88494959  0.63102051  1
  O  O400  1  0.11621669  0.25027973  0.25552162  1
  O  O401  1  0.11955142  0.25554633  0.75492807  1
  O  O402  1  0.11783709  0.74993954  0.25668537  1
  O  O403  1  0.12009815  0.75391053  0.75828567  1
  O  O404  1  0.61460189  0.25477934  0.24930311  1
  O  O405  1  0.61636221  0.24954246  0.75639789  1
  O  O406  1  0.62474968  0.75051118  0.26238286  1
  O  O407  1  0.62043183  0.75497454  0.75464936  1
  O  O408  1  0.38118080  0.24226634  0.24808262  1
  O  O409  1  0.38428566  0.24430099  0.75088169  1
  O  O410  1  0.37548464  0.74219868  0.24287466  1
  O  O411  1  0.38225624  0.74445261  0.74423904  1
  O  O412  1  0.88504896  0.24530538  0.25059799  1
  O  O413  1  0.88029896  0.24482462  0.74606303  1
  O  O414  1  0.87951078  0.74333588  0.24560209  1
  O  O415  1  0.87621843  0.73925874  0.74928272  1
  O  O416  1  0.37478969  0.49099023  0.49163503  1
  O  O417  1  0.37971175  0.49411741  0.99577142  1
  O  O418  1  0.38070630  0.99384307  0.49344578  1
  O  O419  1  0.37954644  0.99453792  0.99392880  1
  O  O420  1  0.88028545  0.49518791  0.49508779  1
  O  O421  1  0.87745853  0.49384076  0.99393609  1
  O  O422  1  0.87905616  0.99510356  0.49433311  1
  O  O423  1  0.88361237  0.99953001  0.99412413  1
  O  O424  1  0.11565783  0.00081932  0.00674141  1
  O  O425  1  0.11673871  0.00669938  0.50152565  1
  O  O426  1  0.12535182  0.50737384  0.00852501  1
  O  O427  1  0.11916272  0.51005514  0.50077290  1
  O  O428  1  0.61858984  0.00580345  0.00481486  1
  O  O429  1  0.61951151  -0.00104211  0.50907383  1
  O  O430  1  0.62087746  0.50473800  0.00491107  1
  O  O431  1  0.62598178  0.49998401  0.51275918  1
  O  O432  1  0.37110301  0.37441774  0.11149885  1
  O  O433  1  0.36758543  0.37465537  0.61587881  1
  O  O434  1  0.36997939  0.87005951  0.11790136  1
  O  O435  1  0.36893459  0.86952156  0.61960636  1
  O  O436  1  0.86897891  0.37360063  0.11847376  1
  O  O437  1  0.87154053  0.37059845  0.62100229  1
  O  O438  1  0.86787635  0.86767606  0.12377773  1
  O  O439  1  0.87090475  0.87173677  0.61686855  1
  O  O440  1  0.12532679  0.13150281  0.38203696  1
  O  O441  1  0.13189918  0.13228228  0.87582007  1
  O  O442  1  0.12447611  0.63050772  0.38618261  1
  O  O443  1  0.12972138  0.63059823  0.88056522  1
  O  O444  1  0.63321801  0.12813908  0.37805779  1
  O  O445  1  0.63004919  0.12914830  0.88158543  1
  O  O446  1  0.63110696  0.63207833  0.37591996  1
  O  O447  1  0.62689829  0.63190125  0.88138730  1
