# generated using pymatgen
data_V3Zn3O8
_symmetry_space_group_name_H-M   'P 1'
_cell_length_a   17.08726616
_cell_length_b   17.08767349
_cell_length_c   17.08602153
_cell_angle_alpha   89.99268555
_cell_angle_beta   89.97898867
_cell_angle_gamma   89.98567040
_symmetry_Int_Tables_number   1
_chemical_formula_structural   V3Zn3O8
_chemical_formula_sum   'V96 Zn96 O256'
_cell_volume   4988.80379846
_cell_formula_units_Z   32
loop_
 _symmetry_equiv_pos_site_id
 _symmetry_equiv_pos_as_xyz
  1  'x, y, z'
loop_
 _atom_site_type_symbol
 _atom_site_label
 _atom_site_symmetry_multiplicity
 _atom_site_fract_x
 _atom_site_fract_y
 _atom_site_fract_z
 _atom_site_occupancy
  V  V0  1  0.50035819  0.24920939  0.24988700  1
  V  V1  1  0.87446572  0.87573117  -0.00013487  1
  V  V2  1  0.74943025  0.87456558  0.12391847  1
  V  V3  1  0.37513369  0.25130668  0.12495728  1
  V  V4  1  0.00005768  0.62532576  0.12524349  1
  V  V5  1  0.12432810  0.75199883  0.37409314  1
  V  V6  1  0.37623089  0.62529833  0.24969206  1
  V  V7  1  0.37466470  0.49967808  0.87408239  1
  V  V8  1  0.62559397  0.62405598  -0.00117482  1
  V  V9  1  0.00035888  0.12549607  0.62543851  1
  V  V10  1  0.37528668  0.87451950  -0.00021072  1
  V  V11  1  0.87570138  0.75033738  0.62483313  1
  V  V12  1  0.62611929  0.62666165  0.49894437  1
  V  V13  1  0.24945683  0.87628917  0.12580518  1
  V  V14  1  0.50031919  0.87401203  0.87397365  1
  V  V15  1  0.74859752  0.24814156  -0.00194706  1
  V  V16  1  -0.00022498  0.62464718  0.62534022  1
  V  V17  1  0.37325289  0.25070021  0.62380998  1
  V  V18  1  0.00003274  0.75120954  0.75005781  1
  V  V19  1  0.24941358  0.49974134  0.74957945  1
  V  V20  1  0.87588182  0.37538675  0.00079322  1
  V  V21  1  0.74939354  0.12315890  0.37338870  1
  V  V22  1  0.62460524  0.74893910  0.87386164  1
  V  V23  1  0.49953815  0.87506528  0.37400619  1
  V  V24  1  -0.00098633  0.00034095  0.00039104  1
  V  V25  1  0.87468748  0.62556975  0.75051555  1
  V  V26  1  0.25037621  0.12710214  0.37595454  1
  V  V27  1  0.24923301  0.00030775  0.75166146  1
  V  V28  1  0.74812179  -0.00023920  0.74925237  1
  V  V29  1  0.87300653  0.25023956  0.62444816  1
  V  V30  1  0.12366920  0.49962399  0.62579472  1
  V  V31  1  0.00037941  0.12555491  0.12594924  1
  V  V32  1  0.37427431  -0.00024187  0.87435914  1
  V  V33  1  0.25041691  0.50025286  0.25044227  1
  V  V34  1  0.50064957  0.75097765  0.24973486  1
  V  V35  1  0.62538836  0.24932629  0.37543456  1
  V  V36  1  0.25115674  0.37542119  0.12599627  1
  V  V37  1  0.12621689  0.12606137  -0.00040786  1
  V  V38  1  0.49943926  -0.00137282  0.49939989  1
  V  V39  1  0.75029844  0.00023213  0.24890464  1
  V  V40  1  0.87472967  0.00052007  0.87533823  1
  V  V41  1  -0.00057493  0.49954770  0.49949455  1
  V  V42  1  0.50146762  0.24981105  0.75011046  1
  V  V43  1  0.12633258  0.49989351  0.12679887  1
  V  V44  1  0.75063592  0.24887748  0.50043338  1
  V  V45  1  0.50041090  0.12418389  0.12352227  1
  V  V46  1  0.25114355  0.62622263  0.37526754  1
  V  V47  1  0.74954279  0.49882875  0.74845419  1
  V  V48  1  0.24922342  0.87483949  0.62603072  1
  V  V49  1  0.49941293  0.62556340  0.62489545  1
  V  V50  1  0.87530050  0.50074673  0.87516792  1
  V  V51  1  0.62415979  0.87428523  0.24802843  1
  V  V52  1  0.00192676  0.25105335  0.25242745  1
  V  V53  1  0.87576375  0.49927306  0.37552199  1
  V  V54  1  0.12389672  0.75085739  0.87488937  1
  V  V55  1  0.87482474  0.62472835  0.24925107  1
  V  V56  1  0.50054170  0.37358763  0.87347806  1
  V  V57  1  0.50135094  0.50119629  0.50000920  1
  V  V58  1  0.37489992  0.62362331  0.74967096  1
  V  V59  1  0.75013114  0.75002000  0.49889635  1
  V  V60  1  0.37493662  0.75003718  0.12440675  1
  V  V61  1  0.37508399  0.37481244  0.00067563  1
  V  V62  1  0.74962066  0.62502348  0.87501616  1
  V  V63  1  0.00091703  0.50025624  0.00120984  1
  V  V64  1  0.50096777  0.37494140  0.37543694  1
  V  V65  1  0.62588218  0.37487961  0.25077711  1
  V  V66  1  0.50023926  0.49862547  -0.00076827  1
  V  V67  1  0.87616092  0.24949883  0.12620086  1
  V  V68  1  0.00031053  0.75115383  0.25052435  1
  V  V69  1  0.75042360  0.37437857  0.12518859  1
  V  V70  1  0.50038084  0.62441792  0.12449032  1
  V  V71  1  0.87483252  0.12473126  0.75097962  1
  V  V72  1  0.12496722  0.37571222  0.75017076  1
  V  V73  1  -0.00036405  -0.00055321  0.49930046  1
  V  V74  1  0.62535868  0.49947899  0.12508509  1
  V  V75  1  0.49998490  0.00030243  -0.00046062  1
  V  V76  1  0.49880869  0.12300461  0.62396273  1
  V  V77  1  0.12527941  0.00020992  0.12525931  1
  V  V78  1  0.37502390  0.37550323  0.50065829  1
  V  V79  1  0.24920754  0.00040091  0.25053273  1
  V  V80  1  0.24970133  0.74954955  0.00042091  1
  V  V81  1  -0.00049425  0.24982649  0.75073757  1
  V  V82  1  0.87662389  0.87531294  0.49896696  1
  V  V83  1  0.62374921  0.12278558  0.49937102  1
  V  V84  1  0.12559585  0.12700447  0.50113961  1
  V  V85  1  0.25096338  0.75076765  0.50095326  1
  V  V86  1  0.37448128  -0.00062877  0.37545814  1
  V  V87  1  0.87469529  0.75023113  0.12413176  1
  V  V88  1  0.00087072  0.37552357  0.87584163  1
  V  V89  1  0.12579199  0.62542317  0.00111131  1
  V  V90  1  0.75129105  0.50018901  0.25053181  1
  V  V91  1  0.62639960  0.49915331  0.62515644  1
  V  V92  1  0.74997253  0.87571183  0.62488919  1
  V  V93  1  0.49901517  0.74923828  0.74962711  1
  V  V94  1  0.12609098  0.24983294  0.87664856  1
  V  V95  1  0.37574619  0.50058701  0.37567558  1
  Zn  Zn96  1  0.62650058  0.74935143  0.37401737  1
  Zn  Zn97  1  0.37479739  0.12584849  0.25047257  1
  Zn  Zn98  1  0.74942791  0.37421959  0.62440292  1
  Zn  Zn99  1  0.12545997  0.25398731  0.37574075  1
  Zn  Zn100  1  0.74707471  0.12570917  0.87434050  1
  Zn  Zn101  1  0.24806149  0.25328822  0.50008711  1
  Zn  Zn102  1  0.12499329  0.00025594  0.62823147  1
  Zn  Zn103  1  0.12299621  0.87697992  0.24964287  1
  Zn  Zn104  1  0.62359861  0.87463741  0.74862781  1
  Zn  Zn105  1  0.12624085  0.37571246  0.25327831  1
  Zn  Zn106  1  -0.00126609  0.87632058  0.87358380  1
  Zn  Zn107  1  0.62594643  0.25017349  0.87377596  1
  Zn  Zn108  1  -0.00054298  0.87682572  0.37304588  1
  Zn  Zn109  1  0.37634317  0.87464425  0.50065222  1
  Zn  Zn110  1  0.74995060  0.75054264  -0.00135275  1
  Zn  Zn111  1  0.62496301  -0.00022614  0.12096627  1
  Zn  Zn112  1  0.12241046  0.87629030  0.75111841  1
  Zn  Zn113  1  0.37449191  0.12483562  0.75122320  1
  Zn  Zn114  1  0.87554886  0.12413517  0.25129555  1
  Zn  Zn115  1  0.25061327  0.24930573  -0.00047909  1
  Zn  Zn116  1  0.74863445  0.62706547  0.37412599  1
  Zn  Zn117  1  0.24830600  0.37502258  0.62333137  1
  Zn  Zn118  1  0.87557935  -0.00103567  0.37369667  1
  Zn  Zn119  1  0.62468977  0.12388457  -0.00408933  1
  Zn  Zn120  1  0.37446195  0.74886030  0.62573867  1
  Zn  Zn121  1  0.62698973  0.37473114  0.74908127  1
  Zn  Zn122  1  0.12564579  0.62434232  0.50114162  1
  Zn  Zn123  1  0.87318793  0.37372045  0.50077574  1
  Zn  Zn124  1  0.25082025  0.62467335  0.87492092  1
  Zn  Zn125  1  0.00286323  0.37376483  0.37561893  1
  Zn  Zn126  1  0.25157946  0.12702566  0.87613161  1
  Zn  Zn127  1  0.62221083  -0.00255005  0.62507275  1
  Zn  Zn128  1  0.18734147  0.18807213  0.18759650  1
  Zn  Zn129  1  0.18767123  0.18706332  0.68924631  1
  Zn  Zn130  1  0.18786463  0.68783419  0.18845179  1
  Zn  Zn131  1  0.18655051  0.68530346  0.68854357  1
  Zn  Zn132  1  0.68602289  0.18675084  0.18548553  1
  Zn  Zn133  1  0.68587788  0.18413065  0.68471485  1
  Zn  Zn134  1  0.68832133  0.68773533  0.18678283  1
  Zn  Zn135  1  0.68684691  0.68719734  0.68670896  1
  Zn  Zn136  1  0.31384455  0.31254678  0.31205576  1
  Zn  Zn137  1  0.31180370  0.31365174  0.81205671  1
  Zn  Zn138  1  0.31290494  0.81460897  0.31162132  1
  Zn  Zn139  1  0.31216729  0.81183225  0.81243934  1
  Zn  Zn140  1  0.81453307  0.31210170  0.31359657  1
  Zn  Zn141  1  0.81312546  0.31466102  0.81184920  1
  Zn  Zn142  1  0.81314499  0.81412091  0.31402509  1
  Zn  Zn143  1  0.81238198  0.81385084  0.81341541  1
  Zn  Zn144  1  0.18699589  0.43599484  0.43766281  1
  Zn  Zn145  1  0.18933220  0.43706981  0.93813645  1
  Zn  Zn146  1  0.18665108  0.93813594  0.43864736  1
  Zn  Zn147  1  0.18638538  0.93686182  0.93839749  1
  Zn  Zn148  1  0.68944768  0.43692636  0.43900390  1
  Zn  Zn149  1  0.68670788  0.43449056  0.93495939  1
  Zn  Zn150  1  0.68579568  0.93566753  0.43576921  1
  Zn  Zn151  1  0.68612303  0.93743897  0.93632056  1
  Zn  Zn152  1  0.31290522  0.06377865  0.06155429  1
  Zn  Zn153  1  0.31361786  0.06173953  0.56299563  1
  Zn  Zn154  1  0.31258361  0.56212807  0.06178886  1
  Zn  Zn155  1  0.31151868  0.56254043  0.56371195  1
  Zn  Zn156  1  0.81380210  0.06352651  0.06437660  1
  Zn  Zn157  1  0.81291667  0.06331614  0.56293986  1
  Zn  Zn158  1  0.81186805  0.56292125  0.06211472  1
  Zn  Zn159  1  0.81153908  0.56423737  0.56261512  1
  Zn  Zn160  1  0.43790268  0.43736155  0.18845611  1
  Zn  Zn161  1  0.43847605  0.43668667  0.68708479  1
  Zn  Zn162  1  0.43519375  0.93954361  0.18831570  1
  Zn  Zn163  1  0.43430110  0.93541010  0.68731223  1
  Zn  Zn164  1  0.93877718  0.43588132  0.18843938  1
  Zn  Zn165  1  0.93562449  0.43554014  0.68676964  1
  Zn  Zn166  1  0.93713870  0.93604177  0.18685890  1
  Zn  Zn167  1  0.93685864  0.93753707  0.68662814  1
  Zn  Zn168  1  0.06440533  0.06533283  0.31305408  1
  Zn  Zn169  1  0.06352528  0.06305977  0.81464793  1
  Zn  Zn170  1  0.06361029  0.56531639  0.31322930  1
  Zn  Zn171  1  0.06279360  0.56433721  0.81312703  1
  Zn  Zn172  1  0.56328932  0.06096094  0.31062437  1
  Zn  Zn173  1  0.56358257  0.06570147  0.81405995  1
  Zn  Zn174  1  0.56401501  0.56371152  0.31338224  1
  Zn  Zn175  1  0.56253955  0.56177847  0.81113148  1
  Zn  Zn176  1  0.43700056  0.18683787  0.43852822  1
  Zn  Zn177  1  0.43486935  0.18656737  0.93681157  1
  Zn  Zn178  1  0.43848846  0.68898257  0.43722181  1
  Zn  Zn179  1  0.43766816  0.68628935  0.93588536  1
  Zn  Zn180  1  0.93467795  0.18468118  0.43556093  1
  Zn  Zn181  1  0.93684298  0.18640402  0.93743400  1
  Zn  Zn182  1  0.93717720  0.68595628  0.43732947  1
  Zn  Zn183  1  0.93765935  0.68855416  0.93822626  1
  Zn  Zn184  1  0.06499340  0.31280646  0.06488221  1
  Zn  Zn185  1  0.05966202  0.31372122  0.56365232  1
  Zn  Zn186  1  0.06154477  0.81456859  0.06238125  1
  Zn  Zn187  1  0.06466791  0.81347708  0.56329273  1
  Zn  Zn188  1  0.56297224  0.31208316  0.06255581  1
  Zn  Zn189  1  0.56376403  0.31276424  0.56336401  1
  Zn  Zn190  1  0.56348592  0.81198970  0.06099066  1
  Zn  Zn191  1  0.56409749  0.81275621  0.56283578  1
  O  O192  1  0.11992203  0.11922510  0.11934478  1
  O  O193  1  0.11959579  0.12421189  0.61647628  1
  O  O194  1  0.11974535  0.62041802  0.12045039  1
  O  O195  1  0.11655754  0.61782932  0.62425112  1
  O  O196  1  0.61053140  0.12492837  0.12128696  1
  O  O197  1  0.61622052  0.12118397  0.61646736  1
  O  O198  1  0.61973472  0.61849895  0.11942216  1
  O  O199  1  0.61870163  0.61921909  0.61865904  1
  O  O200  1  0.38188771  0.38103829  0.38003789  1
  O  O201  1  0.38075232  0.38074545  0.88061629  1
  O  O202  1  0.38120318  0.88192584  0.37611393  1
  O  O203  1  0.38048876  0.87882500  0.88130138  1
  O  O204  1  0.87864089  0.38897999  0.37596614  1
  O  O205  1  0.88206425  0.38174900  0.88109557  1
  O  O206  1  0.87951693  0.87842865  0.38397243  1
  O  O207  1  0.87655527  0.88193234  0.88201447  1
  O  O208  1  0.25333574  0.00799651  0.37152637  1
  O  O209  1  0.25514384  -0.00311337  0.86610739  1
  O  O210  1  0.25663904  0.50682744  0.37075675  1
  O  O211  1  0.25659775  0.50135666  0.86840108  1
  O  O212  1  0.74842319  0.00438704  0.36386240  1
  O  O213  1  0.75605715  0.00054175  0.86474873  1
  O  O214  1  0.75979880  0.50133198  0.36922778  1
  O  O215  1  0.75625390  0.50499684  0.87006791  1
  O  O216  1  0.24640437  0.49609655  0.13115283  1
  O  O217  1  0.24179104  0.49883932  0.63115677  1
  O  O218  1  0.24552735  0.99588070  0.13020652  1
  O  O219  1  0.25035005  0.99179311  0.63349618  1
  O  O220  1  0.74531756  0.49391179  0.13012637  1
  O  O221  1  0.74447713  0.50060809  0.63115629  1
  O  O222  1  0.74846529  0.99459681  0.13319126  1
  O  O223  1  0.75124161  0.99468829  0.63461877  1
  O  O224  1  0.00237492  0.36364737  0.25055589  1
  O  O225  1  0.00465942  0.36999976  0.75684152  1
  O  O226  1  0.00276721  0.86717281  0.25216257  1
  O  O227  1  0.00205461  0.86707954  0.75129073  1
  O  O228  1  0.50655701  0.37028552  0.25576629  1
  O  O229  1  0.50019252  0.36556090  0.75487255  1
  O  O230  1  0.50400168  0.87026606  0.25302370  1
  O  O231  1  0.49945273  0.86782006  0.75645473  1
  O  O232  1  0.49917756  0.13060744  0.24085016  1
  O  O233  1  0.49693696  0.13360713  0.74313564  1
  O  O234  1  0.49531956  0.62957628  0.24365435  1
  O  O235  1  0.49428349  0.62914144  0.74423717  1
  O  O236  1  0.99910518  0.13352170  0.24419280  1
  O  O237  1  0.99538724  0.13027078  0.74507980  1
  O  O238  1  0.99441313  0.63069037  0.24365704  1
  O  O239  1  0.99337820  0.63046207  0.74524355  1
  O  O240  1  0.37444607  0.25803379  0.00693063  1
  O  O241  1  0.37647848  0.25627132  0.50932572  1
  O  O242  1  0.37042886  0.75427145  0.00510318  1
  O  O243  1  0.36104515  0.75125679  0.50016332  1
  O  O244  1  0.86874735  0.25627846  0.00575572  1
  O  O245  1  0.86900497  0.24843723  0.50624782  1
  O  O246  1  0.87395455  0.75608935  0.00662953  1
  O  O247  1  0.87155827  0.75457192  0.50624453  1
  O  O248  1  0.12442303  0.23818682  0.50012337  1
  O  O249  1  0.12549042  0.24434100  0.99459973  1
  O  O250  1  0.13433310  0.74840537  0.49186998  1
  O  O251  1  0.12896665  0.74504275  0.99418974  1
  O  O252  1  0.62902790  0.24296183  0.49382913  1
  O  O253  1  0.63856819  0.25137061  1.00054215  1
  O  O254  1  0.63212861  0.74385364  0.49892594  1
  O  O255  1  0.62566095  0.74141087  0.99252352  1
  O  O256  1  0.49549737  0.24375470  0.12962793  1
  O  O257  1  0.49190433  0.24520891  0.63072215  1
  O  O258  1  0.49397716  0.74393335  0.12911947  1
  O  O259  1  0.49790067  0.74336022  0.63064102  1
  O  O260  1  0.99570825  0.24553882  0.13224302  1
  O  O261  1  0.99393575  0.24447071  0.63165268  1
  O  O262  1  0.99520033  0.74425162  0.13007850  1
  O  O263  1  0.99550396  0.74461357  0.62941976  1
  O  O264  1  -0.00057106  0.24946913  0.36440047  1
  O  O265  1  0.00455443  0.25645186  0.87014207  1
  O  O266  1  0.00992289  0.74865810  0.37066686  1
  O  O267  1  0.00844820  0.75013172  0.86968677  1
  O  O268  1  0.50553490  0.25503142  0.37023503  1
  O  O269  1  0.49659913  0.25485706  0.86421718  1
  O  O270  1  0.49981387  0.75673706  0.36662241  1
  O  O271  1  0.50481566  0.75422267  0.86967709  1
  O  O272  1  0.24148068  0.12449899  0.49312390  1
  O  O273  1  0.24142788  0.12752179  0.99815572  1
  O  O274  1  0.24877956  0.63417464  0.49428045  1
  O  O275  1  0.24369580  0.63181275  0.99976576  1
  O  O276  1  0.74346180  0.12837647  0.49372043  1
  O  O277  1  0.75022350  0.13740449  1.00105725  1
  O  O278  1  0.74408310  0.63256167  0.49934631  1
  O  O279  1  0.74321835  0.62490593  0.99300257  1
  O  O280  1  0.25798677  0.37506434  0.00820395  1
  O  O281  1  0.25878048  0.37270025  0.50293623  1
  O  O282  1  0.25605163  0.86936606  0.00622597  1
  O  O283  1  0.24976141  0.86731861  0.50785727  1
  O  O284  1  0.75656110  0.36879276  0.00567213  1
  O  O285  1  0.75253316  0.36446989  0.50169781  1
  O  O286  1  0.75636688  0.87418079  0.00602947  1
  O  O287  1  0.75614637  0.87066298  0.50508799  1
  O  O288  1  0.13282625  0.50239674  0.24382161  1
  O  O289  1  0.12810344  0.49520178  0.74602385  1
  O  O290  1  0.13090009  0.99958195  0.24333241  1
  O  O291  1  0.13523161  0.99741868  0.74975835  1
  O  O292  1  0.63052456  0.49459017  0.24479405  1
  O  O293  1  0.63180305  0.50075939  0.74260297  1
  O  O294  1  0.63452295  0.99348720  0.24597415  1
  O  O295  1  0.63711287  0.99902285  0.74881198  1
  O  O296  1  0.36705973  0.00358312  0.25735712  1
  O  O297  1  0.36494839  -0.00058730  0.75599157  1
  O  O298  1  0.37132976  0.50607235  0.25602418  1
  O  O299  1  0.37011719  0.50371492  0.75461942  1
  O  O300  1  0.86173655  -0.00004626  0.25011819  1
  O  O301  1  0.86781174  0.00511997  0.75444223  1
  O  O302  1  0.87170421  0.50462075  0.25641311  1
  O  O303  1  0.87121538  0.50618735  0.75598781  1
  O  O304  1  0.12160117  0.37128685  0.37149196  1
  O  O305  1  0.11868695  0.37090923  0.87065535  1
  O  O306  1  0.12407869  0.86270216  0.37390496  1
  O  O307  1  0.12169727  0.86146904  0.87585129  1
  O  O308  1  0.62012575  0.36955385  0.36996242  1
  O  O309  1  0.61604477  0.37056132  0.87087378  1
  O  O310  1  0.61704409  0.87254683  0.36576037  1
  O  O311  1  0.61771485  0.86707816  0.87262789  1
  O  O312  1  0.38502843  0.13133742  0.12623327  1
  O  O313  1  0.38062302  0.13532167  0.62482468  1
  O  O314  1  0.38105441  0.62982452  0.12976433  1
  O  O315  1  0.38188149  0.62541567  0.63145992  1
  O  O316  1  0.88301091  0.13219841  0.12764821  1
  O  O317  1  0.88138526  0.13059252  0.63127090  1
  O  O318  1  0.88088829  0.62943149  0.12932210  1
  O  O319  1  0.88026363  0.63107680  0.63126921  1
  O  O320  1  0.25760123  0.25716236  0.12542419  1
  O  O321  1  0.26221493  0.25082216  0.62488496  1
  O  O322  1  0.25579504  0.75521376  0.12041905  1
  O  O323  1  0.24815577  0.75583274  0.61674293  1
  O  O324  1  0.75539534  0.25574478  0.11870528  1
  O  O325  1  0.75586780  0.24761905  0.61801420  1
  O  O326  1  0.75737500  0.75586020  0.12288347  1
  O  O327  1  0.75703856  0.75523522  0.62029314  1
  O  O328  1  0.25070929  0.23827665  0.37736891  1
  O  O329  1  0.24184776  0.24895535  0.87678249  1
  O  O330  1  0.24378671  0.74693303  0.38108033  1
  O  O331  1  0.24058814  0.74851936  0.88178483  1
  O  O332  1  0.74428292  0.24373500  0.37884651  1
  O  O333  1  0.75183393  0.25086069  0.88686144  1
  O  O334  1  0.74874956  0.74785782  0.38293182  1
  O  O335  1  0.74378660  0.74246702  0.87526482  1
  O  O336  1  0.00509401  0.11989666  0.00648878  1
  O  O337  1  0.00689950  0.11813112  0.50437317  1
  O  O338  1  0.00524951  0.61940379  0.00633913  1
  O  O339  1  0.00044892  0.61479454  0.50666478  1
  O  O340  1  0.49841247  0.11975706  0.00884732  1
  O  O341  1  0.50481218  0.11857308  0.50369637  1
  O  O342  1  0.50519354  0.61811269  0.00530808  1
  O  O343  1  0.50470154  0.62024027  0.50471870  1
  O  O344  1  0.49600618  0.38141112  0.49370691  1
  O  O345  1  0.49511781  0.38005647  0.99509298  1
  O  O346  1  0.49865724  0.88018679  0.49308022  1
  O  O347  1  0.49365812  0.87935486  0.99452365  1
  O  O348  1  0.99603334  0.38857501  0.49913883  1
  O  O349  1  0.99551925  0.38094308  0.99626013  1
  O  O350  1  0.99672023  0.88496219  0.50140089  1
  O  O351  1  0.99193927  0.88315505  1.00043448  1
  O  O352  1  0.49522613  0.49478661  0.37970572  1
  O  O353  1  0.49468946  0.49413377  0.88005757  1
  O  O354  1  0.49431470  0.99503586  0.37879437  1
  O  O355  1  0.49403292  0.99398974  0.87896439  1
  O  O356  1  0.99256105  0.50278026  0.38299296  1
  O  O357  1  0.99522688  0.49577516  0.88132731  1
  O  O358  1  1.00070183  1.00031251  0.38769725  1
  O  O359  1  0.99330811  0.99920311  0.88233102  1
  O  O360  1  0.00504580  0.00578895  0.12067177  1
  O  O361  1  0.00158786  0.00660841  0.61577865  1
  O  O362  1  0.00537055  0.50560280  0.12047554  1
  O  O363  1  0.00242021  0.50495197  0.61828236  1
  O  O364  1  0.49821763  0.00912655  0.11937034  1
  O  O365  1  0.49783138  0.00499269  0.61845162  1
  O  O366  1  0.50579252  0.50466162  0.11999188  1
  O  O367  1  0.50527267  0.50588984  0.61876175  1
  O  O368  1  0.25144426  0.38352518  0.24408787  1
  O  O369  1  0.24223051  0.38214478  0.74756099  1
  O  O370  1  0.24788404  0.88188389  0.24292578  1
  O  O371  1  0.24850842  0.88206611  0.74250192  1
  O  O372  1  0.74515403  0.37979104  0.24493648  1
  O  O373  1  0.74817940  0.38352878  0.74762427  1
  O  O374  1  0.74508973  0.88191042  0.24430310  1
  O  O375  1  0.75138205  0.88496249  0.74378936  1
  O  O376  1  0.25010869  0.11975465  0.26085164  1
  O  O377  1  0.25186602  0.11210798  0.75131258  1
  O  O378  1  0.25777869  0.62063836  0.25501557  1
  O  O379  1  0.25658859  0.61767514  0.75172136  1
  O  O380  1  0.74798296  0.11551348  0.25321584  1
  O  O381  1  0.75631130  0.11532734  0.74895301  1
  O  O382  1  0.75710831  0.61736083  0.24937691  1
  O  O383  1  0.75648720  0.61957658  0.75543217  1
  O  O384  1  0.36494886  0.11929868  0.37579009  1
  O  O385  1  0.37148128  0.11527229  0.87243525  1
  O  O386  1  0.37129329  0.61997431  0.36905246  1
  O  O387  1  0.37427617  0.61676911  0.86874264  1
  O  O388  1  0.86485876  0.11907534  0.37095641  1
  O  O389  1  0.87232448  0.11843919  0.86822314  1
  O  O390  1  0.87424460  0.61454700  0.36795135  1
  O  O391  1  0.87043167  0.61973714  0.87045956  1
  O  O392  1  0.13282980  0.38341507  0.12744601  1
  O  O393  1  0.12406059  0.38147977  0.63277156  1
  O  O394  1  0.13225607  0.88231071  0.12503180  1
  O  O395  1  0.13753261  0.87741412  0.62770529  1
  O  O396  1  0.63006653  0.38063710  0.13141139  1
  O  O397  1  0.62713673  0.38421030  0.62689602  1
  O  O398  1  0.63111820  0.87588001  0.13020708  1
  O  O399  1  0.63398947  0.87798322  0.62863482  1
  O  O400  1  0.11336628  0.25074367  0.25095696  1
  O  O401  1  0.11836571  0.25542391  0.75534528  1
  O  O402  1  0.12013923  0.75057667  0.25892626  1
  O  O403  1  0.11972120  0.74907186  0.76033169  1
  O  O404  1  0.62055033  0.25616551  0.25530066  1
  O  O405  1  0.61106693  0.25073795  0.74685738  1
  O  O406  1  0.61760486  0.75545646  0.24936471  1
  O  O407  1  0.61727492  0.74939025  0.75657208  1
  O  O408  1  0.38356300  0.24868461  0.24366315  1
  O  O409  1  0.38374560  0.25035539  0.74049672  1
  O  O410  1  0.37992301  0.74456520  0.24357391  1
  O  O411  1  0.38080010  0.74166308  0.74988281  1
  O  O412  1  0.88380887  0.24904985  0.24385400  1
  O  O413  1  0.88073313  0.24435842  0.74599207  1
  O  O414  1  0.88024035  0.74458528  0.24437602  1
  O  O415  1  0.87990558  0.74460339  0.74475540  1
  O  O416  1  0.38155061  0.49625562  0.49464596  1
  O  O417  1  0.38158976  0.49505377  0.99509387  1
  O  O418  1  0.38139577  0.99802492  0.49282727  1
  O  O419  1  0.37957375  0.99290866  0.99458117  1
  O  O420  1  0.88237801  0.50164935  0.49199617  1
  O  O421  1  0.88100074  0.49527793  0.99543025  1
  O  O422  1  0.88546989  0.99549992  0.50076894  1
  O  O423  1  0.87963625  0.99599159  0.99559659  1
  O  O424  1  0.11899509  0.00523717  0.00559725  1
  O  O425  1  0.11742789  0.01006573  0.50237971  1
  O  O426  1  0.11997912  0.50558213  0.00607654  1
  O  O427  1  0.11513598  0.50203299  0.50549099  1
  O  O428  1  0.61572614  0.00221226  0.00153588  1
  O  O429  1  0.61744171  0.00577170  0.50001940  1
  O  O430  1  0.61992657  0.50344998  0.00547096  1
  O  O431  1  0.61993644  0.50593067  0.50433271  1
  O  O432  1  0.37166172  0.37132569  0.11994604  1
  O  O433  1  0.37591055  0.36604943  0.61885384  1
  O  O434  1  0.36974171  0.86927208  0.11936893  1
  O  O435  1  0.36124495  0.86993220  0.62226830  1
  O  O436  1  0.86971822  0.37061365  0.11966906  1
  O  O437  1  0.87205703  0.36511349  0.62284071  1
  O  O438  1  0.86893025  0.86929469  0.11939742  1
  O  O439  1  0.86991767  0.86878529  0.61865619  1
  O  O440  1  0.13455243  0.12666332  0.38478714  1
  O  O441  1  0.12570455  0.13255411  0.88241065  1
  O  O442  1  0.13254800  0.63663557  0.37649430  1
  O  O443  1  0.12577526  0.63495287  0.88232583  1
  O  O444  1  0.62923884  0.13070728  0.37937265  1
  O  O445  1  0.62928863  0.13287484  0.87871349  1
  O  O446  1  0.62750704  0.62772145  0.38278788  1
  O  O447  1  0.62980132  0.62849201  0.88012434  1
