# generated using pymatgen
data_V3Zn3O8
_symmetry_space_group_name_H-M   'P 1'
_cell_length_a   17.08563716
_cell_length_b   17.08862727
_cell_length_c   17.08821022
_cell_angle_alpha   90.01128038
_cell_angle_beta   90.00753929
_cell_angle_gamma   90.01105379
_symmetry_Int_Tables_number   1
_chemical_formula_structural   V3Zn3O8
_chemical_formula_sum   'V96 Zn96 O256'
_cell_volume   4989.24595893
_cell_formula_units_Z   32
loop_
 _symmetry_equiv_pos_site_id
 _symmetry_equiv_pos_as_xyz
  1  'x, y, z'
loop_
 _atom_site_type_symbol
 _atom_site_label
 _atom_site_symmetry_multiplicity
 _atom_site_fract_x
 _atom_site_fract_y
 _atom_site_fract_z
 _atom_site_occupancy
  V  V0  1  0.24941186  0.87624495  0.62550819  1
  V  V1  1  0.87373870  0.62450136  0.74890617  1
  V  V2  1  0.37651373  0.49964842  0.37611795  1
  V  V3  1  0.00107748  0.49856109  0.49940127  1
  V  V4  1  0.12514756  0.74991333  0.37502624  1
  V  V5  1  0.12548766  0.37575132  0.24988309  1
  V  V6  1  0.50085835  0.87450106  0.37488865  1
  V  V7  1  0.24905336  0.25092858  0.00061507  1
  V  V8  1  -0.00006392  0.24974267  0.24961150  1
  V  V9  1  0.49921243  0.12392970  0.12522348  1
  V  V10  1  0.50054622  0.24881864  0.25021879  1
  V  V11  1  0.62472449  0.12522590  -0.00083363  1
  V  V12  1  0.62629513  0.24956110  0.37430117  1
  V  V13  1  0.37249105  0.00148859  0.87522452  1
  V  V14  1  -0.00019254  0.62491912  0.62534093  1
  V  V15  1  0.75019763  0.49953486  0.74906520  1
  V  V16  1  0.24998397  0.12527400  0.37623210  1
  V  V17  1  -0.00056967  0.87428004  0.87489271  1
  V  V18  1  0.62518138  0.37350136  0.75039255  1
  V  V19  1  0.87448410  0.87375574  0.50050737  1
  V  V20  1  0.37716746  0.25047633  0.62630040  1
  V  V21  1  0.37325437  0.87535238  -0.00025880  1
  V  V22  1  0.12414338  0.87462923  0.74953797  1
  V  V23  1  0.50029636  0.62517467  0.62553783  1
  V  V24  1  0.00190146  0.50149442  0.00092759  1
  V  V25  1  0.49921504  0.87484903  0.87448064  1
  V  V26  1  0.37426789  0.12510008  0.75109700  1
  V  V27  1  0.74851028  0.12559808  0.87598505  1
  V  V28  1  0.37394517  0.25022054  0.12554183  1
  V  V29  1  0.62540586  0.00092833  0.62458969  1
  V  V30  1  0.12696084  0.50070988  0.62487197  1
  V  V31  1  0.12566271  0.62480981  0.50037943  1
  V  V32  1  0.87446456  0.00037525  0.37370454  1
  V  V33  1  0.37558191  0.50063896  0.87688446  1
  V  V34  1  0.37433689  0.12415907  0.25087159  1
  V  V35  1  -0.00003390  0.12452993  0.62495214  1
  V  V36  1  0.24943938  0.62597186  0.87517053  1
  V  V37  1  0.37532867  0.87617163  0.50039259  1
  V  V38  1  -0.00015635  0.62553389  0.12564890  1
  V  V39  1  0.24932154  0.75103441  -0.00091004  1
  V  V40  1  0.74924727  0.74973685  -0.00035976  1
  V  V41  1  0.50035704  0.37515311  0.37568150  1
  V  V42  1  0.62361425  -0.00117017  0.12495628  1
  V  V43  1  0.62627993  0.37440955  0.24936860  1
  V  V44  1  0.74939464  0.37463515  0.62488926  1
  V  V45  1  0.00089289  0.37570974  0.87413108  1
  V  V46  1  0.62536740  0.12442498  0.49995578  1
  V  V47  1  0.75149463  0.37358453  0.12439406  1
  V  V48  1  0.12561560  0.12494511  0.50033009  1
  V  V49  1  0.12494638  0.37569750  0.74974849  1
  V  V50  1  0.24820428  -0.00068054  0.25037474  1
  V  V51  1  0.75054416  0.24982421  0.49906690  1
  V  V52  1  0.12484431  -0.00092379  0.62547337  1
  V  V53  1  0.37533761  -0.00022707  0.37577404  1
  V  V54  1  -0.00117557  0.12490677  0.12472347  1
  V  V55  1  0.62488258  0.49960255  0.12521514  1
  V  V56  1  0.25036270  0.37572351  0.12590712  1
  V  V57  1  0.62412929  0.87444304  0.24984362  1
  V  V58  1  0.87498652  -0.00147556  0.87432446  1
  V  V59  1  0.25009414  0.50018521  0.25021641  1
  V  V60  1  0.00106171  0.25133467  0.74936345  1
  V  V61  1  0.62423405  0.75033489  0.37434103  1
  V  V62  1  0.87517773  0.24937509  0.62458966  1
  V  V63  1  0.74960432  0.87473117  0.12424641  1
  V  V64  1  0.12482476  0.87603726  0.24971280  1
  V  V65  1  0.62448603  0.62423626  0.50011351  1
  V  V66  1  0.75201559  0.12389179  0.37293635  1
  V  V67  1  0.49756677  0.00007465  0.00036454  1
  V  V68  1  0.74955170  0.00002644  0.74963620  1
  V  V69  1  0.74981806  0.62408514  0.37472960  1
  V  V70  1  0.50114835  0.00098810  0.50047611  1
  V  V71  1  -0.00058152  -0.00033270  0.50001328  1
  V  V72  1  0.87539596  0.37296957  0.00030846  1
  V  V73  1  0.62312802  0.62217684  0.00074790  1
  V  V74  1  0.50063889  0.37453455  0.87682714  1
  V  V75  1  0.25180531  0.37584033  0.62492146  1
  V  V76  1  0.25149364  0.62482184  0.37435263  1
  V  V77  1  0.37554062  0.74902051  0.12578607  1
  V  V78  1  0.00155923  0.37450450  0.37523719  1
  V  V79  1  0.75038017  0.74958052  0.49975057  1
  V  V80  1  0.87475408  0.62498738  0.25058171  1
  V  V81  1  0.87621010  0.37469223  0.49958479  1
  V  V82  1  0.62388798  0.87424411  0.75050652  1
  V  V83  1  0.25010471  0.75082016  0.50026113  1
  V  V84  1  0.37582138  0.75088104  0.62606468  1
  V  V85  1  -0.00075309  -0.00003774  -0.00120278  1
  V  V86  1  0.87492731  0.12463710  0.75007315  1
  V  V87  1  -0.00079449  0.74934055  0.24971231  1
  V  V88  1  0.12425497  0.75042619  0.87507586  1
  V  V89  1  0.12488590  0.12631474  -0.00274314  1
  V  V90  1  0.74983813  0.62385651  0.87415848  1
  V  V91  1  0.75088625  0.49971970  0.25109126  1
  V  V92  1  0.25062882  0.24986565  0.50053065  1
  V  V93  1  -0.00043621  0.87466187  0.37490895  1
  V  V94  1  0.25089171  0.50159605  0.75048485  1
  V  V95  1  0.87449668  0.74875492  0.62441099  1
  Zn  Zn96  1  0.50127273  0.12598706  0.62607087  1
  Zn  Zn97  1  0.49934570  0.74952240  0.75203319  1
  Zn  Zn98  1  0.87526947  0.87413902  -0.00039877  1
  Zn  Zn99  1  0.87464667  0.12376973  0.24854695  1
  Zn  Zn100  1  0.62311077  0.49874189  0.62272341  1
  Zn  Zn101  1  0.87576472  0.50033210  0.87340448  1
  Zn  Zn102  1  0.37665179  0.62609860  0.24911048  1
  Zn  Zn103  1  0.37757624  0.37469946  0.50135063  1
  Zn  Zn104  1  0.49870256  0.74808575  0.25016076  1
  Zn  Zn105  1  0.62208274  0.74792415  0.87384066  1
  Zn  Zn106  1  0.74865124  0.24966082  -0.00009623  1
  Zn  Zn107  1  0.24811440  0.00135041  0.75199689  1
  Zn  Zn108  1  -0.00157622  0.74849736  0.75109256  1
  Zn  Zn109  1  0.87570569  0.49930968  0.37516946  1
  Zn  Zn110  1  0.87323681  0.24858048  0.12458877  1
  Zn  Zn111  1  0.37518949  0.37452601  0.00145916  1
  Zn  Zn112  1  0.87505985  0.75080599  0.12513848  1
  Zn  Zn113  1  0.24776683  0.87614683  0.12486986  1
  Zn  Zn114  1  0.49943242  0.62294099  0.12832018  1
  Zn  Zn115  1  0.75194344  0.00170665  0.24789712  1
  Zn  Zn116  1  0.12741317  0.25137477  0.87319097  1
  Zn  Zn117  1  0.50095538  0.24901222  0.75129186  1
  Zn  Zn118  1  0.50079729  0.49792734  0.50132055  1
  Zn  Zn119  1  0.37739153  0.62827651  0.75134454  1
  Zn  Zn120  1  0.12530464  -0.00205021  0.12432351  1
  Zn  Zn121  1  0.12732618  0.50296716  0.12531051  1
  Zn  Zn122  1  0.12385364  0.62705105  0.00106322  1
  Zn  Zn123  1  0.49818864  0.49891541  0.00414420  1
  Zn  Zn124  1  0.24946249  0.12704272  0.87478153  1
  Zn  Zn125  1  0.62550349  0.24931306  0.87685119  1
  Zn  Zn126  1  0.75020079  0.87446153  0.62515005  1
  Zn  Zn127  1  0.12679612  0.24980169  0.37599763  1
  Zn  Zn128  1  0.18573649  0.18720495  0.18686600  1
  Zn  Zn129  1  0.18878094  0.18794949  0.68691098  1
  Zn  Zn130  1  0.18794944  0.68726138  0.18678539  1
  Zn  Zn131  1  0.18818851  0.68865696  0.68951699  1
  Zn  Zn132  1  0.68910189  0.18709581  0.18581211  1
  Zn  Zn133  1  0.68771833  0.18789047  0.68823441  1
  Zn  Zn134  1  0.68645773  0.68754882  0.18782694  1
  Zn  Zn135  1  0.68703877  0.68812445  0.68621933  1
  Zn  Zn136  1  0.31330016  0.31291265  0.31300712  1
  Zn  Zn137  1  0.31164640  0.31275588  0.81374783  1
  Zn  Zn138  1  0.31210246  0.81336903  0.31158820  1
  Zn  Zn139  1  0.31202946  0.81325773  0.81102894  1
  Zn  Zn140  1  0.81518863  0.31249100  0.31249605  1
  Zn  Zn141  1  0.81273406  0.31149304  0.81475893  1
  Zn  Zn142  1  0.81174747  0.81221538  0.31162609  1
  Zn  Zn143  1  0.81131413  0.81092614  0.81265816  1
  Zn  Zn144  1  0.18905190  0.43540521  0.43743188  1
  Zn  Zn145  1  0.18741661  0.43714244  0.93786779  1
  Zn  Zn146  1  0.18724235  0.93782687  0.43727945  1
  Zn  Zn147  1  0.18742748  0.93857844  0.93634251  1
  Zn  Zn148  1  0.68653446  0.43878458  0.43777267  1
  Zn  Zn149  1  0.68954367  0.43869277  0.93648158  1
  Zn  Zn150  1  0.68920064  0.93717177  0.43700720  1
  Zn  Zn151  1  0.68559886  0.93905696  0.93664216  1
  Zn  Zn152  1  0.30972681  0.06232750  0.06431853  1
  Zn  Zn153  1  0.31203248  0.06285243  0.56426756  1
  Zn  Zn154  1  0.31104844  0.56423871  0.06128849  1
  Zn  Zn155  1  0.31497791  0.56379780  0.56154055  1
  Zn  Zn156  1  0.81257527  0.06110780  0.06011444  1
  Zn  Zn157  1  0.81156883  0.06129323  0.56190594  1
  Zn  Zn158  1  0.81373986  0.56109264  0.06453637  1
  Zn  Zn159  1  0.81222718  0.56055282  0.56229392  1
  Zn  Zn160  1  0.43792779  0.43725163  0.18901471  1
  Zn  Zn161  1  0.43845786  0.43938771  0.69061238  1
  Zn  Zn162  1  0.43595208  0.93477656  0.18803634  1
  Zn  Zn163  1  0.43821342  0.94013167  0.68738098  1
  Zn  Zn164  1  0.93740271  0.43879855  0.18658141  1
  Zn  Zn165  1  0.93709349  0.43858447  0.68593492  1
  Zn  Zn166  1  0.93654327  0.93801183  0.18689546  1
  Zn  Zn167  1  0.93766961  0.93520000  0.68778396  1
  Zn  Zn168  1  0.06301575  0.06267765  0.31329742  1
  Zn  Zn169  1  0.06206544  0.06165164  0.81241893  1
  Zn  Zn170  1  0.06309209  0.56177608  0.31255585  1
  Zn  Zn171  1  0.06235370  0.56360467  0.81325145  1
  Zn  Zn172  1  0.56436538  0.06095862  0.31223329  1
  Zn  Zn173  1  0.56007074  0.06165328  0.81307431  1
  Zn  Zn174  1  0.56088578  0.56414891  0.31043062  1
  Zn  Zn175  1  0.56306542  0.56045566  0.81149433  1
  Zn  Zn176  1  0.43809979  0.18752719  0.43840163  1
  Zn  Zn177  1  0.43697119  0.18915216  0.93807821  1
  Zn  Zn178  1  0.43834989  0.68782479  0.43903448  1
  Zn  Zn179  1  0.43815757  0.68848982  0.93858018  1
  Zn  Zn180  1  0.93811789  0.18735207  0.43612820  1
  Zn  Zn181  1  0.93824018  0.18890092  0.93468211  1
  Zn  Zn182  1  0.93712718  0.68612319  0.43704524  1
  Zn  Zn183  1  0.93524293  0.68758589  0.93645991  1
  Zn  Zn184  1  0.06384298  0.31324963  0.06420174  1
  Zn  Zn185  1  0.06445125  0.31204224  0.56342093  1
  Zn  Zn186  1  0.06302475  0.81288500  0.06280520  1
  Zn  Zn187  1  0.06138054  0.81141492  0.56320915  1
  Zn  Zn188  1  0.56286372  0.31141430  0.06178312  1
  Zn  Zn189  1  0.56179310  0.31190823  0.56177386  1
  Zn  Zn190  1  0.56096812  0.81146871  0.06163761  1
  Zn  Zn191  1  0.56297652  0.81210029  0.56289312  1
  O  O192  1  0.11407796  0.12423520  0.11539585  1
  O  O193  1  0.11938738  0.11920431  0.62030356  1
  O  O194  1  0.11575739  0.62325315  0.12201706  1
  O  O195  1  0.12114734  0.62010709  0.61944081  1
  O  O196  1  0.61821636  0.11849224  0.12040381  1
  O  O197  1  0.62436904  0.11989766  0.61840888  1
  O  O198  1  0.62660708  0.61849497  0.11571185  1
  O  O199  1  0.61575845  0.62492868  0.61915722  1
  O  O200  1  0.38115543  0.38345983  0.37547991  1
  O  O201  1  0.38344268  0.38377963  0.87492899  1
  O  O202  1  0.37996211  0.88061983  0.38147249  1
  O  O203  1  0.37943629  0.88131224  0.87983460  1
  O  O204  1  0.88303931  0.37579519  0.38251743  1
  O  O205  1  0.88161202  0.37741580  0.88359015  1
  O  O206  1  0.88057023  0.87932857  0.38064679  1
  O  O207  1  0.88031917  0.88100349  0.87519499  1
  O  O208  1  0.25640388  0.00575776  0.37129777  1
  O  O209  1  0.25768288  0.00508015  0.87283372  1
  O  O210  1  0.25802610  0.50427979  0.37108331  1
  O  O211  1  0.25719628  0.50444210  0.87074705  1
  O  O212  1  0.75662140  0.00613937  0.37371094  1
  O  O213  1  0.75530001  0.00556846  0.86929505  1
  O  O214  1  0.75127566  0.50603713  0.36837676  1
  O  O215  1  0.75305587  0.50628645  0.86694353  1
  O  O216  1  0.25053596  0.49439441  0.13190033  1
  O  O217  1  0.24672948  0.49625560  0.62985355  1
  O  O218  1  0.24656878  0.99807102  0.13481154  1
  O  O219  1  0.24234041  0.99328566  0.62538561  1
  O  O220  1  0.74480547  0.49332670  0.13184240  1
  O  O221  1  0.74778254  0.49151490  0.63089801  1
  O  O222  1  0.74305473  0.98950581  0.12269235  1
  O  O223  1  0.74387426  0.99812298  0.63158001  1
  O  O224  1  0.00482139  0.36834080  0.25381513  1
  O  O225  1  0.00502759  0.37128350  0.75317910  1
  O  O226  1  0.00412443  0.86943384  0.25611900  1
  O  O227  1  0.00628404  0.87234717  0.75655545  1
  O  O228  1  0.50694500  0.36748569  0.25549578  1
  O  O229  1  0.50906187  0.37546286  0.75893554  1
  O  O230  1  0.50627794  0.87349742  0.25771905  1
  O  O231  1  0.50941058  0.87739586  0.75518305  1
  O  O232  1  0.49451595  0.12909275  0.24545786  1
  O  O233  1  0.48780151  0.12774419  0.74845600  1
  O  O234  1  0.49541642  0.63068213  0.24615063  1
  O  O235  1  0.50067281  0.62728515  0.73898184  1
  O  O236  1  1.00169282  0.13258260  0.24135505  1
  O  O237  1  0.99453308  0.13029024  0.74415014  1
  O  O238  1  0.99512770  0.62980788  0.24620517  1
  O  O239  1  0.99289315  0.62489463  0.74250473  1
  O  O240  1  0.36750067  0.25061693  0.00854452  1
  O  O241  1  0.36987018  0.24933324  0.51075966  1
  O  O242  1  0.36923424  0.75596095  0.00620013  1
  O  O243  1  0.36892332  0.75715928  0.50514480  1
  O  O244  1  0.87676091  0.26326604  0.00102069  1
  O  O245  1  0.87035436  0.25452100  0.50541688  1
  O  O246  1  0.86011099  0.75116550  0.00231154  1
  O  O247  1  0.87002858  0.75423411  0.50423552  1
  O  O248  1  0.13267257  0.24242208  0.50097773  1
  O  O249  1  0.12929904  0.24138467  0.99955033  1
  O  O250  1  0.13038806  0.74488934  0.49471718  1
  O  O251  1  0.13140470  0.75042493  0.99229703  1
  O  O252  1  0.63118686  0.24479244  0.49383730  1
  O  O253  1  0.62648806  0.24035396  0.99781849  1
  O  O254  1  0.63102178  0.74496398  0.49413473  1
  O  O255  1  0.63386358  0.74034344  0.99978226  1
  O  O256  1  0.49461443  0.24385472  0.13141379  1
  O  O257  1  0.48842803  0.24887838  0.62698588  1
  O  O258  1  0.48727720  0.74928814  0.12441708  1
  O  O259  1  0.49419087  0.74138043  0.62500626  1
  O  O260  1  0.99961581  0.24192812  0.13292535  1
  O  O261  1  0.99439929  0.24425818  0.62951512  1
  O  O262  1  0.99731226  0.74409615  0.13152879  1
  O  O263  1  0.99296299  0.74178748  0.62528654  1
  O  O264  1  0.00289125  0.25468806  0.36593386  1
  O  O265  1  0.00255238  0.25764776  0.86623853  1
  O  O266  1  0.00594824  0.75482593  0.37060761  1
  O  O267  1  0.00527674  0.75607483  0.87436368  1
  O  O268  1  0.50607587  0.25399784  0.36934624  1
  O  O269  1  0.50028760  0.26310198  0.87297080  1
  O  O270  1  0.50649082  0.75790368  0.37616472  1
  O  O271  1  0.50257646  0.75854836  0.87283782  1
  O  O272  1  0.24503453  0.12955422  0.49579958  1
  O  O273  1  0.23908079  0.13156133  1.00206011  1
  O  O274  1  0.24448710  0.63124423  0.49517965  1
  O  O275  1  0.24697189  0.63238865  0.99205590  1
  O  O276  1  0.74513730  0.13091030  0.49402692  1
  O  O277  1  0.74285342  0.12440667  0.99372958  1
  O  O278  1  0.74492556  0.62972529  0.49472163  1
  O  O279  1  0.74312103  0.63077160  0.99636747  1
  O  O280  1  0.25026307  0.36863962  0.00771393  1
  O  O281  1  0.25264291  0.36823447  0.50773109  1
  O  O282  1  0.25610545  0.86923373  0.00040910  1
  O  O283  1  0.25522599  0.87011400  0.50506003  1
  O  O284  1  0.76044668  0.37608575  0.00462029  1
  O  O285  1  0.75503062  0.36876215  0.50449201  1
  O  O286  1  0.74610549  0.86629068  0.00729264  1
  O  O287  1  0.75692346  0.86752226  0.50069677  1
  O  O288  1  0.13257170  0.49344646  0.24980354  1
  O  O289  1  0.13070947  0.49562928  0.74360569  1
  O  O290  1  0.13045605  0.99379180  0.25072664  1
  O  O291  1  0.12504705  0.99405970  0.74271825  1
  O  O292  1  0.63139723  0.49342826  0.24538565  1
  O  O293  1  0.63121805  0.48803421  0.74760699  1
  O  O294  1  0.62720773  0.99267809  0.24231250  1
  O  O295  1  0.62938692  0.99334142  0.74502791  1
  O  O296  1  0.36983039  0.00490888  0.25664167  1
  O  O297  1  0.37360975  0.00988932  0.75496558  1
  O  O298  1  0.36891975  0.50046141  0.26141368  1
  O  O299  1  0.36913427  0.50198796  0.76156859  1
  O  O300  1  0.87356685  0.00221874  0.25846194  1
  O  O301  1  0.87007616  0.00550971  0.75404686  1
  O  O302  1  0.86857802  0.50606550  0.25213416  1
  O  O303  1  0.86819111  0.50654104  0.74932571  1
  O  O304  1  0.11961720  0.37174660  0.36864860  1
  O  O305  1  0.11864747  0.37488481  0.86684801  1
  O  O306  1  0.11865060  0.86914910  0.37112484  1
  O  O307  1  0.11910690  0.87058143  0.86892779  1
  O  O308  1  0.62132285  0.36847101  0.36886053  1
  O  O309  1  0.61777180  0.37586575  0.86727387  1
  O  O310  1  0.62058385  0.87016665  0.37019269  1
  O  O311  1  0.61826002  0.87693853  0.86535689  1
  O  O312  1  0.38011980  0.12978673  0.13190095  1
  O  O313  1  0.37523485  0.13365787  0.63329291  1
  O  O314  1  0.37613460  0.63657784  0.12405012  1
  O  O315  1  0.38409474  0.63182993  0.62512981  1
  O  O316  1  0.88787589  0.12661965  0.12370218  1
  O  O317  1  0.88023108  0.12967256  0.62992913  1
  O  O318  1  0.88128844  0.62702259  0.13283711  1
  O  O319  1  0.88019011  0.62937129  0.62874857  1
  O  O320  1  0.25508062  0.25494519  0.12149892  1
  O  O321  1  0.25922556  0.25569045  0.62068064  1
  O  O322  1  0.25882885  0.75167160  0.11824026  1
  O  O323  1  0.25484233  0.75595286  0.61877436  1
  O  O324  1  0.75373048  0.25755798  0.12149457  1
  O  O325  1  0.75610601  0.25454557  0.61873030  1
  O  O326  1  0.74828947  0.75854495  0.11637776  1
  O  O327  1  0.75670997  0.75085338  0.61700131  1
  O  O328  1  0.25074858  0.24284005  0.38179689  1
  O  O329  1  0.24727709  0.24833345  0.88402089  1
  O  O330  1  0.24501003  0.74546306  0.38124991  1
  O  O331  1  0.24519798  0.74556755  0.87962232  1
  O  O332  1  0.74557436  0.24520193  0.37984775  1
  O  O333  1  0.74803863  0.24075445  0.87794019  1
  O  O334  1  0.74409052  0.74393133  0.38031045  1
  O  O335  1  0.74591330  0.74400173  0.88474100  1
  O  O336  1  0.00641299  0.12241619  0.00573333  1
  O  O337  1  0.00503956  0.11959389  0.50592500  1
  O  O338  1  -0.00261739  0.61602456  0.00539405  1
  O  O339  1  0.00653432  0.61895355  0.50477803  1
  O  O340  1  0.50330501  0.11931008  0.00630733  1
  O  O341  1  0.50800361  0.11867069  0.50011754  1
  O  O342  1  0.51359656  0.62290884  0.00103207  1
  O  O343  1  0.50593792  0.62450745  0.50975602  1
  O  O344  1  0.49824727  0.37691412  0.49150254  1
  O  O345  1  0.49901562  0.37776741  0.98925152  1
  O  O346  1  0.49508900  0.88135446  0.49489688  1
  O  O347  1  0.49413892  0.88123240  0.99435880  1
  O  O348  1  0.99652340  0.37877279  0.49603544  1
  O  O349  1  0.99463276  0.38223773  0.99647427  1
  O  O350  1  0.99489862  0.87994416  0.49416494  1
  O  O351  1  0.99833177  0.88182421  0.99339836  1
  O  O352  1  0.49116239  0.49421132  0.37416281  1
  O  O353  1  0.49179622  0.49171194  0.87576949  1
  O  O354  1  0.49485377  0.99473607  0.38076812  1
  O  O355  1  0.49207530  0.99471885  0.88207948  1
  O  O356  1  0.99982907  0.49286351  0.38238057  1
  O  O357  1  0.99808519  0.49496122  0.88424412  1
  O  O358  1  0.99521821  0.99433272  0.38133906  1
  O  O359  1  0.99415706  0.99451287  0.87931945  1
  O  O360  1  0.00101369  0.00952882  0.11863602  1
  O  O361  1  0.00447813  0.00518971  0.61924762  1
  O  O362  1  0.00154467  0.50625200  0.11629674  1
  O  O363  1  0.00753950  0.50486577  0.61882158  1
  O  O364  1  0.50310366  0.00483643  0.11999341  1
  O  O365  1  0.50685871  0.00280889  0.61724068  1
  O  O366  1  0.50850432  0.50048524  0.12322611  1
  O  O367  1  0.49957306  0.51151678  0.62336888  1
  O  O368  1  0.24497890  0.37945382  0.24564076  1
  O  O369  1  0.24481017  0.38186764  0.74466268  1
  O  O370  1  0.24218064  0.88218746  0.25154118  1
  O  O371  1  0.24243198  0.87724445  0.74225955  1
  O  O372  1  0.74567185  0.37911685  0.24543587  1
  O  O373  1  0.74358830  0.37834206  0.74564924  1
  O  O374  1  0.74357362  0.87490561  0.23897734  1
  O  O375  1  0.74003115  0.88154092  0.75001934  1
  O  O376  1  0.25485279  0.12055014  0.25607225  1
  O  O377  1  0.26165241  0.12430750  0.75159059  1
  O  O378  1  0.25131023  0.61876905  0.25788191  1
  O  O379  1  0.25257752  0.61855463  0.75663621  1
  O  O380  1  0.75388986  0.12321305  0.25628621  1
  O  O381  1  0.75572575  0.11947837  0.75503099  1
  O  O382  1  0.75436597  0.61984294  0.25516277  1
  O  O383  1  0.75312562  0.61950525  0.75402263  1
  O  O384  1  0.37035779  0.11913048  0.37014780  1
  O  O385  1  0.37481898  0.12072820  0.86647308  1
  O  O386  1  0.36934068  0.61638235  0.37586386  1
  O  O387  1  0.37060290  0.61622214  0.87463779  1
  O  O388  1  0.86958266  0.11813254  0.37484731  1
  O  O389  1  0.87054358  0.11897166  0.86855351  1
  O  O390  1  0.86786120  0.62288688  0.36904934  1
  O  O391  1  0.86740069  0.62344655  0.86733076  1
  O  O392  1  0.13225139  0.37781870  0.13268953  1
  O  O393  1  0.13143938  0.38173591  0.63008839  1
  O  O394  1  0.12632400  0.87737714  0.13440633  1
  O  O395  1  0.12917990  0.87956340  0.62888517  1
  O  O396  1  0.63102984  0.37937342  0.13039936  1
  O  O397  1  0.63016338  0.37407489  0.63394143  1
  O  O398  1  0.63102980  0.87912320  0.12859399  1
  O  O399  1  0.62595152  0.88142125  0.63419670  1
  O  O400  1  0.11466860  0.25543978  0.25107655  1
  O  O401  1  0.11883220  0.25729019  0.74826466  1
  O  O402  1  0.11942172  0.75505387  0.25702809  1
  O  O403  1  0.12252316  0.75676793  0.75658574  1
  O  O404  1  0.61984845  0.25443965  0.25497636  1
  O  O405  1  0.62388508  0.26168924  0.75233113  1
  O  O406  1  0.62407023  0.75690857  0.25683791  1
  O  O407  1  0.62419457  0.76299319  0.75110259  1
  O  O408  1  0.38087881  0.24322525  0.24599512  1
  O  O409  1  0.37454237  0.24339789  0.74152894  1
  O  O410  1  0.37474706  0.75029095  0.23883232  1
  O  O411  1  0.37794776  0.74925471  0.74117720  1
  O  O412  1  0.88922666  0.24852640  0.24765105  1
  O  O413  1  0.88044674  0.24453847  0.74359083  1
  O  O414  1  0.88169206  0.74345908  0.24952193  1
  O  O415  1  0.87439541  0.74236579  0.74264472  1
  O  O416  1  0.37597858  0.49766045  0.48735970  1
  O  O417  1  0.37539627  0.49768440  0.98783066  1
  O  O418  1  0.38023754  0.99555457  0.49519857  1
  O  O419  1  0.37883708  0.99606146  0.99584102  1
  O  O420  1  0.88285721  0.49217429  0.49956970  1
  O  O421  1  0.88474081  0.49051349  0.99946153  1
  O  O422  1  0.88070561  0.99390057  0.49509220  1
  O  O423  1  0.88165319  0.99807513  0.99131873  1
  O  O424  1  0.11819633  0.01045711  0.00025786  1
  O  O425  1  0.11861874  0.00470365  0.50545027  1
  O  O426  1  0.11212510  0.50144096  0.00140504  1
  O  O427  1  0.12183930  0.50527818  0.50561265  1
  O  O428  1  0.61665446  0.00489788  0.00562524  1
  O  O429  1  0.62116677  0.00494185  0.50450357  1
  O  O430  1  0.62735051  0.50891824  0.00627426  1
  O  O431  1  0.62208297  0.50822544  0.50243253  1
  O  O432  1  0.36920442  0.36765864  0.12541941  1
  O  O433  1  0.37064148  0.36635964  0.62666740  1
  O  O434  1  0.37241136  0.86639633  0.11807975  1
  O  O435  1  0.37012078  0.87180881  0.61906090  1
  O  O436  1  0.87052524  0.37473543  0.11532764  1
  O  O437  1  0.86986599  0.36811392  0.61941981  1
  O  O438  1  0.86233889  0.87342434  0.12193188  1
  O  O439  1  0.87397121  0.86785658  0.61815867  1
  O  O440  1  0.13192818  0.12588258  0.38307276  1
  O  O441  1  0.12411065  0.12786005  0.88628125  1
  O  O442  1  0.13077073  0.63047393  0.38130399  1
  O  O443  1  0.13128579  0.63228546  0.87646444  1
  O  O444  1  0.63123726  0.13038306  0.37969664  1
  O  O445  1  0.62989436  0.12406270  0.88086978  1
  O  O446  1  0.63040692  0.63067739  0.38008698  1
  O  O447  1  0.63088529  0.62407167  0.88407020  1
