# generated using pymatgen
data_V3Zn3O8
_symmetry_space_group_name_H-M   'P 1'
_cell_length_a   17.08389387
_cell_length_b   17.08390051
_cell_length_c   17.08261156
_cell_angle_alpha   89.99145464
_cell_angle_beta   90.00632220
_cell_angle_gamma   90.01142287
_symmetry_Int_Tables_number   1
_chemical_formula_structural   V3Zn3O8
_chemical_formula_sum   'V96 Zn96 O256'
_cell_volume   4985.72302177
_cell_formula_units_Z   32
loop_
 _symmetry_equiv_pos_site_id
 _symmetry_equiv_pos_as_xyz
  1  'x, y, z'
loop_
 _atom_site_type_symbol
 _atom_site_label
 _atom_site_symmetry_multiplicity
 _atom_site_fract_x
 _atom_site_fract_y
 _atom_site_fract_z
 _atom_site_occupancy
  V  V0  1  0.74921483  0.87466813  0.62582523  1
  V  V1  1  0.37444738  0.12556665  0.75014290  1
  V  V2  1  0.74828902  -0.00051983  0.74982641  1
  V  V3  1  0.24802783  0.00013842  0.74990007  1
  V  V4  1  0.00138613  0.25027325  0.25002357  1
  V  V5  1  0.24951234  0.62497434  0.87461560  1
  V  V6  1  0.87482661  0.87548757  0.00062133  1
  V  V7  1  0.62647096  0.37346003  0.24960294  1
  V  V8  1  0.87463505  0.24969829  0.62512077  1
  V  V9  1  0.12481255  0.12482750  0.00076481  1
  V  V10  1  0.62486751  0.12462630  0.00050501  1
  V  V11  1  0.62414047  0.75086387  0.87616067  1
  V  V12  1  0.49866315  0.87476070  0.87585099  1
  V  V13  1  -0.00010264  0.87470159  0.37487126  1
  V  V14  1  0.12427443  0.75109319  0.87468377  1
  V  V15  1  0.87363047  0.62427680  0.75013886  1
  V  V16  1  0.87633088  0.62474716  0.24811618  1
  V  V17  1  0.75129962  0.12287046  0.37470991  1
  V  V18  1  0.87464947  0.87478964  0.49945360  1
  V  V19  1  0.12571378  0.00103192  0.12532070  1
  V  V20  1  0.62465387  0.62464584  0.49964183  1
  V  V21  1  0.87518123  0.37568995  -0.00108599  1
  V  V22  1  0.00119023  0.12572877  0.12512925  1
  V  V23  1  0.37357652  0.50070490  0.87447475  1
  V  V24  1  0.24863704  0.62637031  0.37535792  1
  V  V25  1  0.12453492  0.25002595  0.87379965  1
  V  V26  1  0.37608333  0.49886501  0.37478052  1
  V  V27  1  0.62514281  0.87504410  0.75054428  1
  V  V28  1  0.12377342  0.50075104  0.62417551  1
  V  V29  1  0.37543767  0.12511098  0.25125602  1
  V  V30  1  0.37370797  0.25180321  0.62533781  1
  V  V31  1  0.87456970  0.75005201  0.62553639  1
  V  V32  1  0.24814633  0.50103816  0.74987901  1
  V  V33  1  0.37464556  0.75118613  0.12503082  1
  V  V34  1  0.37620661  0.37427949  -0.00042934  1
  V  V35  1  0.74998006  0.24884465  0.49947997  1
  V  V36  1  0.50150773  0.24981486  0.25080102  1
  V  V37  1  0.74901115  0.37500144  0.62519018  1
  V  V38  1  0.37668181  0.87734807  0.49993896  1
  V  V39  1  0.74996299  0.49819915  0.24910282  1
  V  V40  1  0.37621710  0.00068138  0.37654415  1
  V  V41  1  0.49876361  0.62544120  0.62540057  1
  V  V42  1  0.00001632  0.12393441  0.62436257  1
  V  V43  1  0.50095759  0.50076448  -0.00006885  1
  V  V44  1  0.62653461  0.87478745  0.25079802  1
  V  V45  1  0.24788299  0.87530387  0.62515223  1
  V  V46  1  0.62471494  0.74871411  0.37514815  1
  V  V47  1  0.75107369  0.37481345  0.12413294  1
  V  V48  1  0.25099390  0.75105540  0.00114288  1
  V  V49  1  0.00060522  0.37480401  0.37424372  1
  V  V50  1  0.37478716  0.74927872  0.62677921  1
  V  V51  1  0.50082867  0.12448230  0.12535048  1
  V  V52  1  0.25168300  0.49913672  0.24806235  1
  V  V53  1  0.74947524  0.62396773  0.37500628  1
  V  V54  1  -0.00028906  0.62537739  0.12518494  1
  V  V55  1  0.37446566  0.37584001  0.50039354  1
  V  V56  1  0.00011769  0.49937441  -0.00090113  1
  V  V57  1  0.25010201  0.00071305  0.25079128  1
  V  V58  1  0.62442568  0.49954029  0.62505559  1
  V  V59  1  0.62436113  0.25016012  0.87494864  1
  V  V60  1  0.74929714  0.12515287  0.87457508  1
  V  V61  1  0.25051554  0.24900180  -0.00103525  1
  V  V62  1  -0.00050572  0.87510554  0.87504659  1
  V  V63  1  0.50086947  0.62464255  0.12497474  1
  V  V64  1  -0.00038612  0.50122481  0.49974503  1
  V  V65  1  0.50090778  0.74933815  0.25104221  1
  V  V66  1  -0.00024142  0.75062075  0.75031680  1
  V  V67  1  0.62682642  -0.00064262  0.12582971  1
  V  V68  1  0.87369193  0.12507987  0.74953888  1
  V  V69  1  0.49973698  0.37520096  0.87497070  1
  V  V70  1  0.12500164  0.25077943  0.37472366  1
  V  V71  1  0.37485597  -0.00039266  0.87713744  1
  V  V72  1  0.25110542  0.37542264  0.12459958  1
  V  V73  1  0.87514541  0.49952980  0.37450790  1
  V  V74  1  0.12511226  0.87425630  0.25063357  1
  V  V75  1  0.87572373  0.12399727  0.24967580  1
  V  V76  1  0.49936658  0.49885458  0.49953733  1
  V  V77  1  0.87517196  -0.00004130  0.87538521  1
  V  V78  1  0.37586104  0.24929533  0.12498315  1
  V  V79  1  0.24913271  0.37656938  0.62540159  1
  V  V80  1  0.12694449  0.49915479  0.12359651  1
  V  V81  1  0.87444547  0.50146713  0.87420089  1
  V  V82  1  0.75082726  0.75064689  0.00215026  1
  V  V83  1  0.87489270  0.37456697  0.50012838  1
  V  V84  1  0.62611648  0.24875650  0.37481641  1
  V  V85  1  0.12496680  0.62502437  -0.00016577  1
  V  V86  1  -0.00040873  0.62493925  0.62350074  1
  V  V87  1  0.75108908  0.25105133  -0.00036385  1
  V  V88  1  0.62452601  0.37588218  0.74902204  1
  V  V89  1  0.12451909  0.12462752  0.50126269  1
  V  V90  1  0.24986760  0.12716278  0.37628107  1
  V  V91  1  0.50155229  0.12324119  0.62331549  1
  V  V92  1  0.37654783  0.62453271  0.24987477  1
  V  V93  1  0.62445921  0.62577414  -0.00005348  1
  V  V94  1  -0.00005058  0.24993260  0.75056949  1
  V  V95  1  0.49871528  0.25053846  0.75039382  1
  Zn  Zn96  1  0.87537342  -0.00129186  0.37561780  1
  Zn  Zn97  1  -0.00029120  0.74916036  0.24834917  1
  Zn  Zn98  1  0.37497034  0.62574654  0.75053179  1
  Zn  Zn99  1  0.87747887  0.75239231  0.12653934  1
  Zn  Zn100  1  0.50063730  0.37347441  0.37536782  1
  Zn  Zn101  1  0.12304269  -0.00027841  0.62536537  1
  Zn  Zn102  1  0.62562918  0.49953196  0.12434463  1
  Zn  Zn103  1  0.25005851  0.12373804  0.87589757  1
  Zn  Zn104  1  0.75207475  -0.00219898  0.25106107  1
  Zn  Zn105  1  0.50254482  0.00197689  0.49826376  1
  Zn  Zn106  1  0.12602588  0.37464619  0.24951811  1
  Zn  Zn107  1  0.00029989  0.00036589  -0.00001683  1
  Zn  Zn108  1  0.50042948  0.74814182  0.75086529  1
  Zn  Zn109  1  0.74784584  0.62446466  0.87315782  1
  Zn  Zn110  1  0.25156213  0.87544271  0.12538608  1
  Zn  Zn111  1  0.12273223  0.37541334  0.74923300  1
  Zn  Zn112  1  -0.00065857  0.37559340  0.87303106  1
  Zn  Zn113  1  0.00071594  -0.00165804  0.50239172  1
  Zn  Zn114  1  0.87741541  0.25063400  0.12272090  1
  Zn  Zn115  1  0.62635259  0.12140209  0.50049026  1
  Zn  Zn116  1  0.49931474  -0.00008219  0.00137352  1
  Zn  Zn117  1  0.74903989  0.50155278  0.75044946  1
  Zn  Zn118  1  0.37351947  0.87646773  0.00376572  1
  Zn  Zn119  1  0.12349637  0.62796351  0.49750475  1
  Zn  Zn120  1  0.24966373  0.25229445  0.50067643  1
  Zn  Zn121  1  0.12578456  0.74979185  0.37528726  1
  Zn  Zn122  1  0.75403861  0.87610148  0.12708250  1
  Zn  Zn123  1  0.12243717  0.87583349  0.74915824  1
  Zn  Zn124  1  0.24790532  0.74911104  0.49910398  1
  Zn  Zn125  1  0.62384827  -0.00176006  0.62280306  1
  Zn  Zn126  1  0.50170716  0.87672153  0.37741974  1
  Zn  Zn127  1  0.74801510  0.74915250  0.50086736  1
  Zn  Zn128  1  0.18783378  0.18821501  0.18830786  1
  Zn  Zn129  1  0.18830194  0.18823120  0.68751679  1
  Zn  Zn130  1  0.18767593  0.68826190  0.18770660  1
  Zn  Zn131  1  0.18578924  0.68691659  0.68795944  1
  Zn  Zn132  1  0.68968206  0.18865985  0.18696999  1
  Zn  Zn133  1  0.68610694  0.18825807  0.68746017  1
  Zn  Zn134  1  0.68849582  0.68633002  0.18678104  1
  Zn  Zn135  1  0.68750410  0.68815984  0.68837595  1
  Zn  Zn136  1  0.31233060  0.31273944  0.31327172  1
  Zn  Zn137  1  0.31001061  0.31410745  0.81170182  1
  Zn  Zn138  1  0.31350526  0.81283260  0.31212089  1
  Zn  Zn139  1  0.31101399  0.81258174  0.81219179  1
  Zn  Zn140  1  0.81368330  0.31054177  0.31141303  1
  Zn  Zn141  1  0.81196725  0.31433962  0.81256195  1
  Zn  Zn142  1  0.81189185  0.80843917  0.31258194  1
  Zn  Zn143  1  0.81216327  0.81183112  0.81415181  1
  Zn  Zn144  1  0.18690235  0.43935425  0.43811494  1
  Zn  Zn145  1  0.18755201  0.43579839  0.93693253  1
  Zn  Zn146  1  0.18863365  0.93963696  0.43725429  1
  Zn  Zn147  1  0.18657615  0.93510631  0.93940813  1
  Zn  Zn148  1  0.68693052  0.43630840  0.43679891  1
  Zn  Zn149  1  0.68849934  0.43927256  0.93677725  1
  Zn  Zn150  1  0.68696900  0.93843719  0.43962425  1
  Zn  Zn151  1  0.68794938  0.93732694  0.93835421  1
  Zn  Zn152  1  0.31091407  0.06275475  0.06343192  1
  Zn  Zn153  1  0.31266954  0.06336298  0.56309743  1
  Zn  Zn154  1  0.31409391  0.56395882  0.06109833  1
  Zn  Zn155  1  0.31148906  0.56187296  0.56150188  1
  Zn  Zn156  1  0.81267067  0.06279574  0.06234152  1
  Zn  Zn157  1  0.81282634  0.05944474  0.56269000  1
  Zn  Zn158  1  0.81206269  0.56299594  0.06201714  1
  Zn  Zn159  1  0.81123683  0.56187291  0.56283393  1
  Zn  Zn160  1  0.43995335  0.43681065  0.18716192  1
  Zn  Zn161  1  0.43578359  0.43927631  0.68810562  1
  Zn  Zn162  1  0.43908261  0.93669038  0.18963518  1
  Zn  Zn163  1  0.43690844  0.93790334  0.68996603  1
  Zn  Zn164  1  0.93804162  0.43750804  0.18580811  1
  Zn  Zn165  1  0.93819216  0.43729915  0.68870346  1
  Zn  Zn166  1  0.93927008  0.93943841  0.18608753  1
  Zn  Zn167  1  0.93674723  0.93836654  0.68739586  1
  Zn  Zn168  1  0.06130878  0.06048244  0.31435946  1
  Zn  Zn169  1  0.06147595  0.06338608  0.81288138  1
  Zn  Zn170  1  0.06380106  0.56005480  0.30961126  1
  Zn  Zn171  1  0.06145812  0.56340263  0.81115110  1
  Zn  Zn172  1  0.56230744  0.06180439  0.31312273  1
  Zn  Zn173  1  0.56212816  0.06160783  0.81069000  1
  Zn  Zn174  1  0.56342804  0.56010346  0.31254127  1
  Zn  Zn175  1  0.56110341  0.56401909  0.81170416  1
  Zn  Zn176  1  0.43713151  0.18978622  0.43894718  1
  Zn  Zn177  1  0.43868837  0.18568620  0.93816151  1
  Zn  Zn178  1  0.43700795  0.68836246  0.43840534  1
  Zn  Zn179  1  0.43594065  0.68796272  0.93873357  1
  Zn  Zn180  1  0.93854029  0.18817729  0.43740279  1
  Zn  Zn181  1  0.93851069  0.18730462  0.93772683  1
  Zn  Zn182  1  0.93691540  0.68941220  0.43561102  1
  Zn  Zn183  1  0.93664316  0.68742182  0.93753959  1
  Zn  Zn184  1  0.06250428  0.31310820  0.06115250  1
  Zn  Zn185  1  0.06215895  0.31260662  0.56291902  1
  Zn  Zn186  1  0.06200685  0.81297118  0.06270749  1
  Zn  Zn187  1  0.06376805  0.80844486  0.55935059  1
  Zn  Zn188  1  0.56419185  0.31269685  0.06342251  1
  Zn  Zn189  1  0.56264405  0.31077236  0.56073949  1
  Zn  Zn190  1  0.56135016  0.81334016  0.06236123  1
  Zn  Zn191  1  0.56210968  0.81156611  0.56322398  1
  O  O192  1  0.12076990  0.12078316  0.12089548  1
  O  O193  1  0.11960526  0.12602628  0.61622789  1
  O  O194  1  0.12108628  0.61852865  0.11897509  1
  O  O195  1  0.11725735  0.61897156  0.62277449  1
  O  O196  1  0.62087651  0.11779331  0.12178912  1
  O  O197  1  0.61287041  0.12493429  0.62557426  1
  O  O198  1  0.61782021  0.62364159  0.11832411  1
  O  O199  1  0.61929309  0.62003416  0.61952739  1
  O  O200  1  0.37631541  0.38130700  0.38148456  1
  O  O201  1  0.38032428  0.37978634  0.88058699  1
  O  O202  1  0.37476443  0.88052715  0.38513106  1
  O  O203  1  0.38233733  0.88364166  0.87403990  1
  O  O204  1  0.87987691  0.37943345  0.38053243  1
  O  O205  1  0.87609671  0.38299759  0.88085894  1
  O  O206  1  0.88124958  0.87416146  0.38222619  1
  O  O207  1  0.87980348  0.88069938  0.88048451  1
  O  O208  1  0.25638730  0.00776029  0.36983736  1
  O  O209  1  0.25815093  -0.00152741  0.86632332  1
  O  O210  1  0.25615759  0.50673135  0.36834531  1
  O  O211  1  0.25387279  0.50496261  0.87088576  1
  O  O212  1  0.75261974  0.01159144  0.37283607  1
  O  O213  1  0.75440912  0.00610501  0.86968623  1
  O  O214  1  0.75598256  0.50391578  0.36955142  1
  O  O215  1  0.75919826  0.50317795  0.87218418  1
  O  O216  1  0.24732863  0.49516455  0.12797717  1
  O  O217  1  0.24406642  0.49675786  0.63016075  1
  O  O218  1  0.24384496  0.99953047  0.13373531  1
  O  O219  1  0.25191358  0.99189955  0.63467102  1
  O  O220  1  0.74871223  0.49290550  0.13120866  1
  O  O221  1  0.74246726  0.49229564  0.62578941  1
  O  O222  1  0.73751231  1.00013486  0.12812073  1
  O  O223  1  0.74927288  0.99273259  0.63302905  1
  O  O224  1  0.00101580  0.36890754  0.25635332  1
  O  O225  1  0.00220450  0.36525502  0.75219977  1
  O  O226  1  0.00883088  0.87650471  0.25788876  1
  O  O227  1  0.00003109  0.86855175  0.75604431  1
  O  O228  1  0.50727622  0.36705288  0.25068887  1
  O  O229  1  0.50415384  0.36992733  0.75543929  1
  O  O230  1  0.51128864  0.86817185  0.25224675  1
  O  O231  1  0.50462404  0.87434074  0.76117481  1
  O  O232  1  0.49488930  0.13053369  0.24464292  1
  O  O233  1  0.49469046  0.13118983  0.74337970  1
  O  O234  1  0.49592875  0.62930454  0.24523926  1
  O  O235  1  0.49550176  0.62791877  0.74154154  1
  O  O236  1  0.99320026  0.12960993  0.24716392  1
  O  O237  1  0.99303040  0.13049420  0.74459531  1
  O  O238  1  0.99424249  0.62371981  0.24337739  1
  O  O239  1  0.99365969  0.63135280  0.74332008  1
  O  O240  1  0.37114046  0.25429257  0.00508991  1
  O  O241  1  0.37286495  0.25769588  0.50739467  1
  O  O242  1  0.36847813  0.75118698  0.00716022  1
  O  O243  1  0.37226624  0.75928280  0.50986276  1
  O  O244  1  0.86830086  0.25636966  -0.00105573  1
  O  O245  1  0.87029687  0.25540630  0.50558811  1
  O  O246  1  0.86550024  0.75604809  -0.00027152  1
  O  O247  1  0.87358085  0.76027696  0.50556055  1
  O  O248  1  0.12523821  0.23984075  0.49427641  1
  O  O249  1  0.13054658  0.24496456  0.99256652  1
  O  O250  1  0.13123187  0.74554722  0.49316564  1
  O  O251  1  0.13038999  0.74403968  0.99449682  1
  O  O252  1  0.63281309  0.24661940  0.49356846  1
  O  O253  1  0.63031151  0.24468341  0.99388289  1
  O  O254  1  0.62470712  0.74284924  0.49339127  1
  O  O255  1  0.63152731  0.74673194  0.99558988  1
  O  O256  1  0.49531521  0.24400789  0.13023900  1
  O  O257  1  0.49398317  0.24338504  0.63148096  1
  O  O258  1  0.49526166  0.74422660  0.13091474  1
  O  O259  1  0.48956673  0.74511724  0.62617076  1
  O  O260  1  1.00039208  0.24335145  0.13160118  1
  O  O261  1  0.99328566  0.24428735  0.62997843  1
  O  O262  1  0.99906030  0.74030284  0.12648448  1
  O  O263  1  0.99403050  0.74507924  0.63013473  1
  O  O264  1  0.00517354  0.25576273  0.36988980  1
  O  O265  1  0.00916903  0.24987047  0.86949547  1
  O  O266  1  0.00191673  0.76336310  0.37135288  1
  O  O267  1  0.00475780  0.75488787  0.86989152  1
  O  O268  1  0.50730281  0.24942626  0.36808379  1
  O  O269  1  0.50459144  0.25532815  0.87021660  1
  O  O270  1  0.50650516  0.75089574  0.36853266  1
  O  O271  1  0.50343096  0.75987117  0.87459754  1
  O  O272  1  0.24129148  0.12783110  0.49548863  1
  O  O273  1  0.24381680  0.13207728  0.99831366  1
  O  O274  1  0.24995555  0.62386719  0.48596861  1
  O  O275  1  0.24422510  0.63042738  0.99428392  1
  O  O276  1  0.75278067  0.13023179  0.49010662  1
  O  O277  1  0.74437574  0.13064553  0.99387230  1
  O  O278  1  0.74276197  0.62488544  0.49317891  1
  O  O279  1  0.74371436  0.63474633  0.99886364  1
  O  O280  1  0.25734332  0.36876930  0.00463499  1
  O  O281  1  0.25647250  0.37576017  0.50731702  1
  O  O282  1  0.25224439  0.86658322  0.00389197  1
  O  O283  1  0.25986642  0.87686489  0.50916580  1
  O  O284  1  0.75487860  0.37032606  0.00410266  1
  O  O285  1  0.75563661  0.36891547  0.50490742  1
  O  O286  1  0.75550095  0.86651797  0.00081990  1
  O  O287  1  0.75921680  0.87287611  0.50540862  1
  O  O288  1  0.13359011  0.49696335  0.24112348  1
  O  O289  1  0.12981559  0.49862082  0.74326296  1
  O  O290  1  0.13033205  0.99367151  0.24645164  1
  O  O291  1  0.13725986  0.99933889  0.74973122  1
  O  O292  1  0.63245567  0.49212114  0.24892844  1
  O  O293  1  0.62416607  0.49322193  0.74320343  1
  O  O294  1  0.62577076  0.99183489  0.24273875  1
  O  O295  1  0.63157731  0.99304834  0.74888225  1
  O  O296  1  0.37050375  0.00626301  0.25589074  1
  O  O297  1  0.36664592  0.00423654  0.75842866  1
  O  O298  1  0.37148512  0.50517874  0.25420960  1
  O  O299  1  0.36708001  0.50167955  0.75732188  1
  O  O300  1  0.87404383  0.01265509  0.25164976  1
  O  O301  1  0.86805222  0.00626671  0.75569767  1
  O  O302  1  0.86961036  0.50388570  0.25592862  1
  O  O303  1  0.87459175  0.50610762  0.75665271  1
  O  O304  1  0.11847576  0.36938916  0.37442702  1
  O  O305  1  0.12368683  0.36119196  0.87450486  1
  O  O306  1  0.11827890  0.87725126  0.36706487  1
  O  O307  1  0.11795793  0.86828012  0.87345685  1
  O  O308  1  0.62529073  0.36636795  0.36788976  1
  O  O309  1  0.61887194  0.36973948  0.86996683  1
  O  O310  1  0.62466106  0.86922808  0.36637039  1
  O  O311  1  0.61628202  0.87176438  0.87142383  1
  O  O312  1  0.38054316  0.12981128  0.13094759  1
  O  O313  1  0.38159527  0.13120198  0.63086108  1
  O  O314  1  0.38125004  0.63047584  0.13064770  1
  O  O315  1  0.37855204  0.63506654  0.62351585  1
  O  O316  1  0.88051753  0.12631317  0.13404402  1
  O  O317  1  0.87912409  0.13035927  0.62984107  1
  O  O318  1  0.88229194  0.62427360  0.13071955  1
  O  O319  1  0.87993520  0.63008722  0.62942501  1
  O  O320  1  0.25680941  0.25478171  0.11956781  1
  O  O321  1  0.25678636  0.25765851  0.62516647  1
  O  O322  1  0.25714741  0.75003159  0.11934094  1
  O  O323  1  0.25750672  0.75938560  0.62540657  1
  O  O324  1  0.75244446  0.25615322  0.11679264  1
  O  O325  1  0.75528616  0.25454534  0.61965278  1
  O  O326  1  0.75031160  0.75221531  0.11222628  1
  O  O327  1  0.75704264  0.75693931  0.62355453  1
  O  O328  1  0.24353169  0.24419842  0.37655656  1
  O  O329  1  0.24215936  0.24750447  0.87966848  1
  O  O330  1  0.25222454  0.73679931  0.37420735  1
  O  O331  1  0.24480597  0.74503327  0.87974250  1
  O  O332  1  0.74704435  0.24099489  0.37955156  1
  O  O333  1  0.74341969  0.24463188  0.87947740  1
  O  O334  1  0.74213929  0.74082907  0.37687895  1
  O  O335  1  0.74343672  0.74993925  0.88680599  1
  O  O336  1  0.00690227  0.12407865  0.00678290  1
  O  O337  1  0.00794427  0.12379665  0.50489273  1
  O  O338  1  0.00610294  0.61927854  0.00465713  1
  O  O339  1  -0.00187935  0.61872702  0.50509578  1
  O  O340  1  0.50740441  0.12346395  0.00716976  1
  O  O341  1  0.50008846  0.12609901  0.51279373  1
  O  O342  1  0.50450629  0.62038652  0.00545170  1
  O  O343  1  0.50482467  0.61879174  0.50561985  1
  O  O344  1  0.49317489  0.38113554  0.49914258  1
  O  O345  1  0.49541386  0.37917161  0.99460614  1
  O  O346  1  0.48655761  0.87727565  0.50142762  1
  O  O347  1  0.49786472  0.87806499  0.98745940  1
  O  O348  1  0.99333139  0.38016574  0.49473830  1
  O  O349  1  0.99337186  0.38193802  0.99838105  1
  O  O350  1  0.99196575  0.87424862  0.49282900  1
  O  O351  1  0.99287699  0.87666116  0.99289192  1
  O  O352  1  0.49363156  0.49795011  0.38135524  1
  O  O353  1  0.49387947  0.49428424  0.88023402  1
  O  O354  1  0.49127423  0.99815667  0.37722308  1
  O  O355  1  0.49072002  0.99270683  0.87440640  1
  O  O356  1  0.99419969  0.49452505  0.37939664  1
  O  O357  1  0.99312930  0.49910526  0.88118982  1
  O  O358  1  0.99714074  0.98693154  0.37858395  1
  O  O359  1  0.99275488  0.99430303  0.87531340  1
  O  O360  1  0.00857881  0.00881829  0.12371768  1
  O  O361  1  0.00311374  0.00773673  0.62423268  1
  O  O362  1  0.00697266  0.50497139  0.11847942  1
  O  O363  1  0.00348710  0.50536701  0.61902669  1
  O  O364  1  0.51043634  0.00566618  0.12511816  1
  O  O365  1  0.49818572  0.01289025  0.62673111  1
  O  O366  1  0.50127743  0.50643251  0.11759332  1
  O  O367  1  0.50433828  0.50525099  0.61905018  1
  O  O368  1  0.25091324  0.38124200  0.24206121  1
  O  O369  1  0.24714556  0.38306099  0.74323215  1
  O  O370  1  0.24049900  0.88228945  0.25202991  1
  O  O371  1  0.25014407  0.88363655  0.74100266  1
  O  O372  1  0.74676283  0.37838433  0.24471086  1
  O  O373  1  0.74202218  0.37510337  0.74249095  1
  O  O374  1  0.73886554  0.87530820  0.24873288  1
  O  O375  1  0.74543828  0.88016436  0.74626385  1
  O  O376  1  0.25611085  0.12091150  0.25622786  1
  O  O377  1  0.25604875  0.11495178  0.75036818  1
  O  O378  1  0.25713363  0.61872883  0.25563536  1
  O  O379  1  0.25083876  0.61895432  0.75722405  1
  O  O380  1  0.75945647  0.12663984  0.25850155  1
  O  O381  1  0.75431795  0.12094328  0.75523356  1
  O  O382  1  0.75500479  0.61794683  0.25509559  1
  O  O383  1  0.75785990  0.62310163  0.75186767  1
  O  O384  1  0.36976504  0.12187379  0.37037400  1
  O  O385  1  0.37473529  0.11529121  0.86931050  1
  O  O386  1  0.36893170  0.61902118  0.36924629  1
  O  O387  1  0.36761385  0.61862689  0.87466557  1
  O  O388  1  0.86843699  0.12478986  0.36722530  1
  O  O389  1  0.86866085  0.12058315  0.86917563  1
  O  O390  1  0.86992081  0.61849352  0.36941318  1
  O  O391  1  0.87427348  0.61797692  0.86861541  1
  O  O392  1  0.13385923  0.38127730  0.12397384  1
  O  O393  1  0.13078580  0.38204134  0.62534146  1
  O  O394  1  0.12487724  0.88168010  0.13592888  1
  O  O395  1  0.13742537  0.87629865  0.62458002  1
  O  O396  1  0.63301015  0.37543747  0.13143665  1
  O  O397  1  0.62910225  0.37928801  0.62946600  1
  O  O398  1  0.62496631  0.88319811  0.13336513  1
  O  O399  1  0.63062823  0.87431200  0.63250690  1
  O  O400  1  0.11931744  0.25138326  0.25725584  1
  O  O401  1  0.11947176  0.24850316  0.75911605  1
  O  O402  1  0.12464110  0.76302517  0.25196719  1
  O  O403  1  0.11766096  0.75171887  0.75674029  1
  O  O404  1  0.62097863  0.25379783  0.25482745  1
  O  O405  1  0.61859755  0.25598943  0.75596343  1
  O  O406  1  0.62099514  0.75646203  0.25404392  1
  O  O407  1  0.62376788  0.75738474  0.75833134  1
  O  O408  1  0.38046196  0.24430944  0.24444688  1
  O  O409  1  0.37973012  0.24551790  0.74599967  1
  O  O410  1  0.38157115  0.74412467  0.24559700  1
  O  O411  1  0.37554864  0.75022644  0.73718732  1
  O  O412  1  0.88207565  0.23894919  0.24873840  1
  O  O413  1  0.87858987  0.24396579  0.74478199  1
  O  O414  1  0.87697754  0.74037095  0.24685414  1
  O  O415  1  0.88021641  0.74477551  0.74538023  1
  O  O416  1  0.38055624  0.49506166  0.49490961  1
  O  O417  1  0.38062365  0.49399866  0.99402313  1
  O  O418  1  0.37493588  0.99195647  0.49566207  1
  O  O419  1  0.37568937  0.99937369  0.98880420  1
  O  O420  1  0.87956352  0.49365555  0.49424144  1
  O  O421  1  0.88030645  0.49609290  0.99331476  1
  O  O422  1  0.87721875  0.98571703  0.49943044  1
  O  O423  1  0.87522156  0.99420252  0.99269056  1
  O  O424  1  0.12467874  0.00708044  0.00625580  1
  O  O425  1  0.12464140  0.01348317  0.50205015  1
  O  O426  1  0.12091643  0.50541349  0.00375809  1
  O  O427  1  0.11644485  0.50332188  0.50561644  1
  O  O428  1  0.62400097  0.00558363  0.00939521  1
  O  O429  1  0.62013948  0.00370047  0.50497176  1
  O  O430  1  0.61791514  0.50659278  0.00017867  1
  O  O431  1  0.61924805  0.50432905  0.50513023  1
  O  O432  1  0.37142365  0.36893012  0.11869690  1
  O  O433  1  0.36933920  0.37141228  0.62039773  1
  O  O434  1  0.37383814  0.86778896  0.12499379  1
  O  O435  1  0.36765575  0.86971420  0.61977036  1
  O  O436  1  0.86913205  0.37350307  0.11704996  1
  O  O437  1  0.86950374  0.36915201  0.61949553  1
  O  O438  1  0.87330730  0.87442272  0.11739448  1
  O  O439  1  0.87061783  0.86938767  0.61809368  1
  O  O440  1  0.12878938  0.13000894  0.38251254  1
  O  O441  1  0.12630816  0.13459767  0.88066550  1
  O  O442  1  0.13725874  0.62467923  0.37179921  1
  O  O443  1  0.12958433  0.63083419  0.88088872  1
  O  O444  1  0.63650954  0.13017715  0.37366645  1
  O  O445  1  0.62914060  0.13033760  0.87953195  1
  O  O446  1  0.62992451  0.62845147  0.37991976  1
  O  O447  1  0.62393792  0.63282935  0.88190458  1
