# generated using pymatgen
data_V3Zn3O8
_symmetry_space_group_name_H-M   'P 1'
_cell_length_a   17.08629386
_cell_length_b   17.08872257
_cell_length_c   17.08611330
_cell_angle_alpha   89.99695830
_cell_angle_beta   89.99045364
_cell_angle_gamma   89.99731174
_symmetry_Int_Tables_number   1
_chemical_formula_structural   V3Zn3O8
_chemical_formula_sum   'V96 Zn96 O256'
_cell_volume   4988.85343570
_cell_formula_units_Z   32
loop_
 _symmetry_equiv_pos_site_id
 _symmetry_equiv_pos_as_xyz
  1  'x, y, z'
loop_
 _atom_site_type_symbol
 _atom_site_label
 _atom_site_symmetry_multiplicity
 _atom_site_fract_x
 _atom_site_fract_y
 _atom_site_fract_z
 _atom_site_occupancy
  V  V0  1  0.75022641  0.87414618  0.12393224  1
  V  V1  1  0.25062824  0.75102227  -0.00061522  1
  V  V2  1  0.12534693  0.25037006  0.87523553  1
  V  V3  1  -0.00039969  0.12410213  0.12449729  1
  V  V4  1  0.00047283  0.62497445  0.62451050  1
  V  V5  1  0.87525065  0.12466215  0.74969360  1
  V  V6  1  0.37577061  0.75041340  0.12547448  1
  V  V7  1  0.12545007  0.62538208  0.00027465  1
  V  V8  1  0.49945428  0.25011609  0.25243109  1
  V  V9  1  0.74950821  -0.00110749  0.24897276  1
  V  V10  1  0.62422637  0.24979730  0.87405105  1
  V  V11  1  0.24960155  0.87539202  0.12398599  1
  V  V12  1  0.12551804  0.49996500  0.12525485  1
  V  V13  1  0.62345215  0.25137156  0.37453839  1
  V  V14  1  0.00072912  0.87412158  0.37381568  1
  V  V15  1  0.50093791  0.62539717  0.12490929  1
  V  V16  1  0.62548757  0.50124782  0.62468113  1
  V  V17  1  0.75049046  0.12495090  0.87447242  1
  V  V18  1  0.00041996  0.25050988  0.74965915  1
  V  V19  1  0.25056052  0.25024193  0.50117450  1
  V  V20  1  0.12501408  0.62463312  0.49965758  1
  V  V21  1  0.37341264  0.12506766  0.25013782  1
  V  V22  1  -0.00006630  0.12423968  0.62371382  1
  V  V23  1  0.62503708  0.12530547  0.50052189  1
  V  V24  1  0.62472268  0.75000044  0.37463257  1
  V  V25  1  0.74976205  0.74935989  -0.00034018  1
  V  V26  1  0.75023454  0.62488809  0.37481918  1
  V  V27  1  0.00095436  0.74987793  0.74914462  1
  V  V28  1  0.25134499  0.75077275  0.50049429  1
  V  V29  1  0.12336938  0.37403490  0.25016288  1
  V  V30  1  0.50028322  0.87596654  0.87376445  1
  V  V31  1  0.87528071  0.24971504  0.62492271  1
  V  V32  1  0.25114844  0.62564014  0.87545938  1
  V  V33  1  0.87432938  -0.00084508  0.37350280  1
  V  V34  1  0.00051800  0.00025325  0.49947161  1
  V  V35  1  0.12570858  0.75041874  0.87394836  1
  V  V36  1  0.37520788  0.37559127  0.00238071  1
  V  V37  1  0.24988870  0.00083879  0.24993153  1
  V  V38  1  0.49962928  0.50064778  0.50135909  1
  V  V39  1  -0.00047087  0.37357665  0.37418566  1
  V  V40  1  0.37366438  0.00019102  0.37581595  1
  V  V41  1  0.49926614  0.00001202  0.49957840  1
  V  V42  1  0.49952625  0.12379949  0.12484461  1
  V  V43  1  0.87525301  0.62511809  0.74989612  1
  V  V44  1  0.00041272  0.49905356  0.50007370  1
  V  V45  1  0.62535941  0.62439405  0.00071419  1
  V  V46  1  0.37701952  0.62634977  0.75079026  1
  V  V47  1  0.00009265  0.62486740  0.12577621  1
  V  V48  1  0.62498882  0.87516179  0.24923763  1
  V  V49  1  0.75174977  0.25110545  0.00073245  1
  V  V50  1  0.12549564  0.87569793  0.74853601  1
  V  V51  1  -0.00096784  0.25006892  0.24953347  1
  V  V52  1  0.87554603  -0.00151839  0.87452632  1
  V  V53  1  0.74945370  0.62487910  0.87612218  1
  V  V54  1  0.37520958  0.49883479  0.37734160  1
  V  V55  1  -0.00016998  0.37619089  0.87538444  1
  V  V56  1  0.00018772  0.50003711  -0.00072878  1
  V  V57  1  0.75068480  0.49961723  0.74999176  1
  V  V58  1  0.12596433  0.37633156  0.75016483  1
  V  V59  1  0.75054548  -0.00090369  0.74903298  1
  V  V60  1  0.37530967  0.87607615  -0.00098879  1
  V  V61  1  0.37659697  0.75083839  0.62498462  1
  V  V62  1  0.87555443  0.75009285  0.62403085  1
  V  V63  1  0.75112022  0.37516916  0.62571098  1
  V  V64  1  0.25059896  0.00334479  0.74936646  1
  V  V65  1  0.49967424  0.00103307  0.00093933  1
  V  V66  1  0.49997023  0.75067530  0.25012725  1
  V  V67  1  0.25023547  0.50021225  0.25158931  1
  V  V68  1  0.62429393  0.87415757  0.75012474  1
  V  V69  1  0.87454549  0.87378292  -0.00069435  1
  V  V70  1  0.87365124  0.49966218  0.37500881  1
  V  V71  1  0.87368363  0.24999949  0.12399492  1
  V  V72  1  0.87512372  0.87503034  0.49883626  1
  V  V73  1  0.87583671  0.37433185  0.49991906  1
  V  V74  1  0.49794331  0.12916092  0.62767892  1
  V  V75  1  0.12463257  0.00016166  0.62356664  1
  V  V76  1  0.37464292  0.25137418  0.12669281  1
  V  V77  1  0.12443890  -0.00009910  0.12402644  1
  V  V78  1  0.12550571  0.74997945  0.37450364  1
  V  V79  1  0.50108717  0.50104432  0.00237224  1
  V  V80  1  0.87470145  0.62408849  0.24916191  1
  V  V81  1  0.87589686  0.49992694  0.87548021  1
  V  V82  1  0.24957006  0.62433487  0.37519076  1
  V  V83  1  0.25040589  0.50011692  0.75031472  1
  V  V84  1  0.50074037  0.37453197  0.87620853  1
  V  V85  1  0.74982861  0.87537391  0.62455851  1
  V  V86  1  -0.00075256  0.87455854  0.87455602  1
  V  V87  1  0.37609133  0.50059976  0.87620116  1
  V  V88  1  0.12650218  0.49994371  0.62585963  1
  V  V89  1  0.74960346  0.75017973  0.49859103  1
  V  V90  1  0.74967735  0.24837459  0.50004421  1
  V  V91  1  0.12450928  0.87430806  0.24931702  1
  V  V92  1  0.37379267  0.00169847  0.87374625  1
  V  V93  1  0.12521803  0.12582678  -0.00158862  1
  V  V94  1  0.87380449  0.12349917  0.24886784  1
  V  V95  1  0.25069463  0.37512208  0.12594861  1
  Zn  Zn96  1  0.62372196  0.37490998  0.75029901  1
  Zn  Zn97  1  0.87519135  0.37647778  0.00192178  1
  Zn  Zn98  1  0.37577730  0.12863415  0.75258320  1
  Zn  Zn99  1  0.74941618  0.37685364  0.12896225  1
  Zn  Zn100  1  0.25080975  0.25121453  -0.00074913  1
  Zn  Zn101  1  0.12392081  0.24740579  0.37517229  1
  Zn  Zn102  1  0.62441988  0.00068970  0.62403344  1
  Zn  Zn103  1  0.25154740  0.87747595  0.62249392  1
  Zn  Zn104  1  0.50308078  0.62677945  0.62752578  1
  Zn  Zn105  1  -0.00049038  -0.00211914  -0.00076530  1
  Zn  Zn106  1  0.37385434  0.25409005  0.63113507  1
  Zn  Zn107  1  0.24538483  0.12637780  0.37447976  1
  Zn  Zn108  1  0.50048158  0.74963662  0.75011839  1
  Zn  Zn109  1  0.62629786  0.49582662  0.12800438  1
  Zn  Zn110  1  0.37479909  0.87468848  0.50024542  1
  Zn  Zn111  1  0.00083701  0.74944538  0.24869766  1
  Zn  Zn112  1  0.74414656  0.49626386  0.24988531  1
  Zn  Zn113  1  0.62273615  0.74856677  0.87432455  1
  Zn  Zn114  1  0.37559597  0.37439338  0.50502992  1
  Zn  Zn115  1  0.25199714  0.12882531  0.87492694  1
  Zn  Zn116  1  0.49682228  0.25224746  0.75071177  1
  Zn  Zn117  1  0.74928203  0.12361799  0.37425012  1
  Zn  Zn118  1  0.62484378  0.00052930  0.12384919  1
  Zn  Zn119  1  0.87667371  0.74969186  0.12513035  1
  Zn  Zn120  1  0.25269323  0.37541103  0.62624863  1
  Zn  Zn121  1  0.62537283  0.62645599  0.49945634  1
  Zn  Zn122  1  0.62541754  0.12241737  0.00146562  1
  Zn  Zn123  1  0.62436085  0.37560327  0.24672905  1
  Zn  Zn124  1  0.37555702  0.62581109  0.25006179  1
  Zn  Zn125  1  0.12413922  0.12514425  0.49672399  1
  Zn  Zn126  1  0.49974826  0.87371048  0.37526471  1
  Zn  Zn127  1  0.49947790  0.37572343  0.37515045  1
  Zn  Zn128  1  0.18715291  0.18812343  0.18672604  1
  Zn  Zn129  1  0.18551655  0.18713327  0.68489675  1
  Zn  Zn130  1  0.18864323  0.68747100  0.18831675  1
  Zn  Zn131  1  0.19057196  0.68708044  0.68654940  1
  Zn  Zn132  1  0.68584977  0.18608733  0.18711378  1
  Zn  Zn133  1  0.68559194  0.18656711  0.68732505  1
  Zn  Zn134  1  0.68779351  0.68693036  0.18652548  1
  Zn  Zn135  1  0.68867630  0.68770988  0.68730714  1
  Zn  Zn136  1  0.31142718  0.31332475  0.31561642  1
  Zn  Zn137  1  0.31312638  0.31221019  0.81365005  1
  Zn  Zn138  1  0.31275488  0.81395052  0.31241750  1
  Zn  Zn139  1  0.31272006  0.81545138  0.81005682  1
  Zn  Zn140  1  0.80976963  0.31155690  0.31175610  1
  Zn  Zn141  1  0.81260325  0.31370828  0.81309495  1
  Zn  Zn142  1  0.81209379  0.81105197  0.31076658  1
  Zn  Zn143  1  0.81118049  0.81099671  0.81322954  1
  Zn  Zn144  1  0.18698939  0.43407780  0.43739107  1
  Zn  Zn145  1  0.18842352  0.43710022  0.93791666  1
  Zn  Zn146  1  0.18832913  0.93617144  0.43784568  1
  Zn  Zn147  1  0.18747803  0.93912246  0.93576268  1
  Zn  Zn148  1  0.68806786  0.43685486  0.43753606  1
  Zn  Zn149  1  0.68677839  0.43702149  0.93956799  1
  Zn  Zn150  1  0.68626963  0.93697666  0.43532420  1
  Zn  Zn151  1  0.68656645  0.93756150  0.93748325  1
  Zn  Zn152  1  0.31203799  0.06382453  0.06218011  1
  Zn  Zn153  1  0.31283907  0.06778607  0.56358622  1
  Zn  Zn154  1  0.31379820  0.56315116  0.06371060  1
  Zn  Zn155  1  0.31326899  0.56501343  0.56412393  1
  Zn  Zn156  1  0.81190662  0.06110541  0.06159440  1
  Zn  Zn157  1  0.81229472  0.06173312  0.56200542  1
  Zn  Zn158  1  0.81080559  0.56053078  0.06459702  1
  Zn  Zn159  1  0.81245754  0.56311468  0.56125091  1
  Zn  Zn160  1  0.44015069  0.43749907  0.19063755  1
  Zn  Zn161  1  0.43742439  0.43488242  0.68894860  1
  Zn  Zn162  1  0.43815792  0.93718747  0.18780583  1
  Zn  Zn163  1  0.43722779  0.93880907  0.68604080  1
  Zn  Zn164  1  0.93467771  0.43673013  0.18624774  1
  Zn  Zn165  1  0.93839402  0.43763012  0.68764315  1
  Zn  Zn166  1  0.93757093  0.93695038  0.18593824  1
  Zn  Zn167  1  0.93782477  0.93713545  0.68686471  1
  Zn  Zn168  1  0.06255173  0.06323780  0.31255796  1
  Zn  Zn169  1  0.06270889  0.06232580  0.81200250  1
  Zn  Zn170  1  0.06117489  0.56126132  0.31240789  1
  Zn  Zn171  1  0.06316964  0.56317873  0.81264387  1
  Zn  Zn172  1  0.56264962  0.06366600  0.31203141  1
  Zn  Zn173  1  0.56353569  0.06190081  0.81301257  1
  Zn  Zn174  1  0.56270411  0.56414443  0.31169635  1
  Zn  Zn175  1  0.56260327  0.56221577  0.81288855  1
  Zn  Zn176  1  0.43523392  0.18600413  0.43887444  1
  Zn  Zn177  1  0.43680916  0.18714225  0.93932223  1
  Zn  Zn178  1  0.43869578  0.68489814  0.43829458  1
  Zn  Zn179  1  0.43998620  0.68959466  0.93732416  1
  Zn  Zn180  1  0.93661309  0.18599868  0.43566757  1
  Zn  Zn181  1  0.93814480  0.18736680  0.93711312  1
  Zn  Zn182  1  0.93805694  0.68748351  0.43587577  1
  Zn  Zn183  1  0.93695932  0.68769592  0.93800906  1
  Zn  Zn184  1  0.06166862  0.31245991  0.06282196  1
  Zn  Zn185  1  0.06582575  0.31235323  0.56267893  1
  Zn  Zn186  1  0.06097701  0.81103445  0.06228868  1
  Zn  Zn187  1  0.06385498  0.81370150  0.56147629  1
  Zn  Zn188  1  0.56362262  0.31135858  0.06346476  1
  Zn  Zn189  1  0.56293499  0.31460906  0.56118115  1
  Zn  Zn190  1  0.56407484  0.81247746  0.06204910  1
  Zn  Zn191  1  0.56222904  0.81370729  0.56219601  1
  O  O192  1  0.11946422  0.12024855  0.11726617  1
  O  O193  1  0.11558853  0.11723127  0.62304646  1
  O  O194  1  0.12152523  0.61918395  0.11959611  1
  O  O195  1  0.11944829  0.62039481  0.61960074  1
  O  O196  1  0.61449444  0.12197297  0.12295783  1
  O  O197  1  0.61676075  0.12241761  0.61860534  1
  O  O198  1  0.61715850  0.62531089  0.11723838  1
  O  O199  1  0.62626212  0.61331683  0.62250996  1
  O  O200  1  0.37455624  0.38948479  0.37979987  1
  O  O201  1  0.38033824  0.38172652  0.88269943  1
  O  O202  1  0.37758438  0.88860064  0.37603050  1
  O  O203  1  0.37969115  0.88162939  0.87989486  1
  O  O204  1  0.88020328  0.37945035  0.38141864  1
  O  O205  1  0.88284385  0.38241106  0.87543248  1
  O  O206  1  0.88035386  0.87901999  0.37956921  1
  O  O207  1  0.87991658  0.87897761  0.87844048  1
  O  O208  1  0.25864944  0.00054630  0.36901698  1
  O  O209  1  0.25470435  0.00126563  0.86500204  1
  O  O210  1  0.25596970  0.50456467  0.37216913  1
  O  O211  1  0.25587256  0.50652709  0.87095066  1
  O  O212  1  0.75713435  0.00037655  0.36796707  1
  O  O213  1  0.75622697  0.00482516  0.86868663  1
  O  O214  1  0.75765399  0.50696450  0.37662012  1
  O  O215  1  0.75605761  0.50490526  0.87020920  1
  O  O216  1  0.24502909  0.49554178  0.13122977  1
  O  O217  1  0.24296097  0.50182848  0.63257057  1
  O  O218  1  0.24486086  0.99400321  0.12990077  1
  O  O219  1  0.24468447  1.00049294  0.63301827  1
  O  O220  1  0.74632319  0.49627468  0.12918432  1
  O  O221  1  0.74456131  0.49537823  0.62865608  1
  O  O222  1  0.74886072  0.99237688  0.13103499  1
  O  O223  1  0.74942940  0.99272294  0.63100134  1
  O  O224  1  0.00366127  0.36997327  0.25440675  1
  O  O225  1  0.00567914  0.37028404  0.75541124  1
  O  O226  1  0.00680125  0.87336325  0.25583660  1
  O  O227  1  0.00493636  0.86831169  0.75443397  1
  O  O228  1  0.50095327  0.36410730  0.25563655  1
  O  O229  1  0.50400766  0.37346229  0.76104070  1
  O  O230  1  0.50667653  0.86848461  0.25092374  1
  O  O231  1  0.50968746  0.87707112  0.75401062  1
  O  O232  1  0.49212262  0.12985624  0.24495269  1
  O  O233  1  0.50168475  0.12478230  0.73823843  1
  O  O234  1  0.49747467  0.63398218  0.24313897  1
  O  O235  1  0.49251591  0.62786339  0.74884806  1
  O  O236  1  0.99380608  0.12950236  0.24299439  1
  O  O237  1  0.99434495  0.13072459  0.74429503  1
  O  O238  1  0.99197366  0.62493110  0.24491930  1
  O  O239  1  0.99532400  0.63053803  0.74437947  1
  O  O240  1  0.37354384  0.25777912  0.00836860  1
  O  O241  1  0.36155417  0.25125300  0.50061320  1
  O  O242  1  0.36921765  0.75682102  0.00477672  1
  O  O243  1  0.37031639  0.74892661  0.50836059  1
  O  O244  1  0.86712334  0.24936582  0.00418316  1
  O  O245  1  0.87025057  0.25477003  0.50566395  1
  O  O246  1  0.86800652  0.75597151  0.00011808  1
  O  O247  1  0.87085518  0.75587989  0.50457869  1
  O  O248  1  0.13604000  0.24851186  0.49830444  1
  O  O249  1  0.12447167  0.24117544  0.99512511  1
  O  O250  1  0.13028166  0.74387804  0.49475607  1
  O  O251  1  0.13125930  0.74505531  0.99361391  1
  O  O252  1  0.62980614  0.24478678  0.49368312  1
  O  O253  1  0.63411239  0.24640701  0.98950367  1
  O  O254  1  0.63191142  0.75013363  0.49417686  1
  O  O255  1  0.63196296  0.74332734  0.99692975  1
  O  O256  1  0.49285831  0.24376084  0.13162501  1
  O  O257  1  0.50168666  0.24014372  0.62520166  1
  O  O258  1  0.49419593  0.74580782  0.12924956  1
  O  O259  1  0.48972952  0.74802178  0.62599279  1
  O  O260  1  0.99391272  0.24392524  0.12993033  1
  O  O261  1  0.99444746  0.24525768  0.63020797  1
  O  O262  1  0.99846908  0.74057143  0.12751999  1
  O  O263  1  0.99534827  0.74449271  0.62926653  1
  O  O264  1  -0.00160211  0.25691061  0.36734984  1
  O  O265  1  0.00471359  0.25592836  0.86840175  1
  O  O266  1  0.00828826  0.75646380  0.37473294  1
  O  O267  1  0.00610159  0.75389637  0.86822877  1
  O  O268  1  0.50729039  0.24887926  0.37207298  1
  O  O269  1  0.51053735  0.25490629  0.87832698  1
  O  O270  1  0.50572109  0.75049325  0.36938148  1
  O  O271  1  0.50165045  0.76063287  0.87140798  1
  O  O272  1  0.24742762  0.13779064  0.49854623  1
  O  O273  1  0.23630723  0.12732233  0.99974081  1
  O  O274  1  0.24334750  0.63021058  0.49449983  1
  O  O275  1  0.24490647  0.63091623  0.99501170  1
  O  O276  1  0.74372442  0.13075605  0.49980014  1
  O  O277  1  0.75027381  0.13408838  0.99252337  1
  O  O278  1  0.75140436  0.63313980  0.49302930  1
  O  O279  1  0.74548001  0.62963841  0.99459523  1
  O  O280  1  0.25663824  0.37574080  0.00840944  1
  O  O281  1  0.24952497  0.36271954  0.50270889  1
  O  O282  1  0.25467983  0.87035314  0.00418922  1
  O  O283  1  0.25338258  0.86644881  0.50245831  1
  O  O284  1  0.75337793  0.36009685  -0.00208113  1
  O  O285  1  0.75702414  0.36884453  0.50624813  1
  O  O286  1  0.75506818  0.86957325  0.00350602  1
  O  O287  1  0.75586677  0.87028790  0.50458682  1
  O  O288  1  0.12983249  0.49432666  0.24466505  1
  O  O289  1  0.13014106  0.49672832  0.74573528  1
  O  O290  1  0.13017176  0.99397976  0.24356530  1
  O  O291  1  0.13127868  0.99524513  0.74459149  1
  O  O292  1  0.62462722  0.49551244  0.24869477  1
  O  O293  1  0.63233551  0.49919150  0.74094967  1
  O  O294  1  0.63132015  0.99329143  0.24995575  1
  O  O295  1  0.63220317  0.98982398  0.74868370  1
  O  O296  1  0.36998590  0.00441495  0.25714112  1
  O  O297  1  0.36514378  0.00080700  0.75452756  1
  O  O298  1  0.36924979  0.50150204  0.26107798  1
  O  O299  1  0.37007390  0.50635472  0.75734963  1
  O  O300  1  0.86970988  0.00367832  0.25438033  1
  O  O301  1  0.86995843  0.00460955  0.75446174  1
  O  O302  1  0.87641512  0.51068770  0.25726779  1
  O  O303  1  0.87081670  0.50643605  0.75442313  1
  O  O304  1  0.11642225  0.37402013  0.36699455  1
  O  O305  1  0.11898747  0.37108136  0.86990159  1
  O  O306  1  0.12041041  0.86976308  0.36888388  1
  O  O307  1  0.11974468  0.86930016  0.86895895  1
  O  O308  1  0.62334158  0.35944054  0.37833250  1
  O  O309  1  0.61999154  0.36560755  0.87589300  1
  O  O310  1  0.62332656  0.86744559  0.36736614  1
  O  O311  1  0.61994364  0.87471032  0.86475421  1
  O  O312  1  0.37899993  0.13116498  0.13082625  1
  O  O313  1  0.38724274  0.12914095  0.62743797  1
  O  O314  1  0.38137667  0.63335216  0.12571421  1
  O  O315  1  0.37608392  0.63508321  0.63238045  1
  O  O316  1  0.88078161  0.12898279  0.12916454  1
  O  O317  1  0.87984317  0.13034784  0.63070056  1
  O  O318  1  0.88162778  0.62439911  0.13440861  1
  O  O319  1  0.88082430  0.63027393  0.62992023  1
  O  O320  1  0.25687703  0.25821397  0.12516369  1
  O  O321  1  0.24943169  0.25083701  0.61285056  1
  O  O322  1  0.25462255  0.75579171  0.11861343  1
  O  O323  1  0.25967059  0.75024048  0.61889207  1
  O  O324  1  0.75570321  0.24565154  0.11381442  1
  O  O325  1  0.75563109  0.25497250  0.62053592  1
  O  O326  1  0.75280975  0.75622878  0.11738917  1
  O  O327  1  0.75699030  0.75540095  0.61926899  1
  O  O328  1  0.24752115  0.24923017  0.38719917  1
  O  O329  1  0.24037034  0.24881499  0.87861225  1
  O  O330  1  0.24538269  0.74455384  0.38001769  1
  O  O331  1  0.24535650  0.74582502  0.87976410  1
  O  O332  1  0.74138074  0.24610025  0.38254863  1
  O  O333  1  0.74492638  0.24495591  0.88092727  1
  O  O334  1  0.74520170  0.74534344  0.38025024  1
  O  O335  1  0.74877898  0.74178487  0.88086347  1
  O  O336  1  0.00977923  0.12292696  0.00483508  1
  O  O337  1  -0.00186739  0.11759917  0.50668247  1
  O  O338  1  0.00662563  0.61983538  0.00437795  1
  O  O339  1  0.00496950  0.61914998  0.50509248  1
  O  O340  1  0.49927530  0.11797003  0.00775288  1
  O  O341  1  0.50424946  0.11792612  0.50754453  1
  O  O342  1  0.50512042  0.62070501  0.00455724  1
  O  O343  1  0.50346928  0.61198576  0.50390089  1
  O  O344  1  0.49818638  0.38882155  0.49772068  1
  O  O345  1  0.49371134  0.38090364  0.99593701  1
  O  O346  1  0.49798649  0.88847576  0.49820846  1
  O  O347  1  0.49380235  0.88056938  0.99469742  1
  O  O348  1  0.99500758  0.37975428  0.49556431  1
  O  O349  1  1.00043221  0.38261004  0.99291409  1
  O  O350  1  0.99426052  0.88021719  0.49423396  1
  O  O351  1  0.99390939  0.87478763  0.99187239  1
  O  O352  1  0.49111876  0.50149475  0.38408050  1
  O  O353  1  0.49457823  0.49509876  0.88223057  1
  O  O354  1  0.49075869  1.00218994  0.38382685  1
  O  O355  1  0.49352426  0.99518013  0.88018695  1
  O  O356  1  0.99424859  0.49382550  0.38157453  1
  O  O357  1  0.99572914  0.49654241  0.87953035  1
  O  O358  1  0.99401030  0.99294642  0.37929131  1
  O  O359  1  0.99326724  0.99207318  0.87381249  1
  O  O360  1  0.00703925  0.00604268  0.12283319  1
  O  O361  1  0.00372222  0.00451606  0.61942631  1
  O  O362  1  0.00645654  0.50484791  0.11928307  1
  O  O363  1  0.00538793  0.50610720  0.61978377  1
  O  O364  1  0.49858001  0.00627392  0.11861892  1
  O  O365  1  0.49978107  0.00888798  0.61446070  1
  O  O366  1  0.49819396  0.50815875  0.11844702  1
  O  O367  1  0.50950771  0.50060860  0.61892123  1
  O  O368  1  0.24390338  0.38110965  0.24548731  1
  O  O369  1  0.24253269  0.38355663  0.75138845  1
  O  O370  1  0.24426754  0.88096499  0.24328732  1
  O  O371  1  0.24337143  0.88670592  0.74813238  1
  O  O372  1  0.74499817  0.37666497  0.24869486  1
  O  O373  1  0.75031107  0.38236861  0.74312447  1
  O  O374  1  0.74545518  0.87899122  0.24385524  1
  O  O375  1  0.74399294  0.87910276  0.74487799  1
  O  O376  1  0.25604052  0.11799369  0.24931979  1
  O  O377  1  0.24795742  0.11263422  0.75139229  1
  O  O378  1  0.25120123  0.61783087  0.25708625  1
  O  O379  1  0.25566128  0.61990850  0.75736005  1
  O  O380  1  0.75697781  0.11731489  0.25018800  1
  O  O381  1  0.75626699  0.11947157  0.75400549  1
  O  O382  1  0.76041560  0.62468371  0.25662407  1
  O  O383  1  0.75671323  0.61968936  0.75499873  1
  O  O384  1  0.37250600  0.11375229  0.36882038  1
  O  O385  1  0.37189994  0.11659914  0.87433319  1
  O  O386  1  0.36791850  0.61441822  0.37483910  1
  O  O387  1  0.36974847  0.62073727  0.87188482  1
  O  O388  1  0.87385727  0.11682216  0.36691904  1
  O  O389  1  0.87113016  0.11941010  0.86801723  1
  O  O390  1  0.87156309  0.61959267  0.36821748  1
  O  O391  1  0.87058319  0.61944287  0.86874691  1
  O  O392  1  0.12972037  0.38129605  0.13027074  1
  O  O393  1  0.12536527  0.38337166  0.63338623  1
  O  O394  1  0.13040778  0.87960173  0.12841856  1
  O  O395  1  0.12586005  0.88164517  0.63170679  1
  O  O396  1  0.62927835  0.37546392  0.12703611  1
  O  O397  1  0.63252069  0.38503237  0.62608897  1
  O  O398  1  0.63230907  0.87646891  0.13164764  1
  O  O399  1  0.63130041  0.87749372  0.63311731  1
  O  O400  1  0.11671703  0.25700261  0.24888514  1
  O  O401  1  0.11894519  0.25564848  0.75465058  1
  O  O402  1  0.12552631  0.75660803  0.25686229  1
  O  O403  1  0.12086429  0.75431517  0.75443928  1
  O  O404  1  0.61770506  0.24579588  0.26138274  1
  O  O405  1  0.62567942  0.25203414  0.76357849  1
  O  O406  1  0.62006769  0.75549423  0.25510353  1
  O  O407  1  0.62494566  0.76224508  0.75027933  1
  O  O408  1  0.37912747  0.24481276  0.24720510  1
  O  O409  1  0.37879922  0.24549611  0.74983160  1
  O  O410  1  0.38055328  0.75029241  0.24312312  1
  O  O411  1  0.37427947  0.74529609  0.74113858  1
  O  O412  1  0.87985576  0.24285886  0.24407016  1
  O  O413  1  0.88049057  0.24475208  0.74459347  1
  O  O414  1  0.87824701  0.73612845  0.24978674  1
  O  O415  1  0.88079948  0.74481352  0.74383915  1
  O  O416  1  0.38217531  0.50175133  0.49384759  1
  O  O417  1  0.38044547  0.49566650  0.99509776  1
  O  O418  1  0.38199609  1.00201640  0.49208796  1
  O  O419  1  0.37842390  0.99407377  0.99450927  1
  O  O420  1  0.88134001  0.49403404  0.49600077  1
  O  O421  1  0.88269404  0.50010173  0.99260281  1
  O  O422  1  0.88022183  0.99352870  0.49430506  1
  O  O423  1  0.87625089  0.99244769  0.99168333  1
  O  O424  1  0.12340800  0.00867962  0.00488565  1
  O  O425  1  0.11773716  -0.00045278  0.50578715  1
  O  O426  1  0.12074265  0.50652013  0.00523188  1
  O  O427  1  0.11962190  0.50515246  0.50500929  1
  O  O428  1  0.61591228  0.00193730  0.00138812  1
  O  O429  1  0.61500622  0.00576872  0.49850848  1
  O  O430  1  0.61755769  0.50734753  0.00040646  1
  O  O431  1  0.61841407  0.50068293  0.50832979  1
  O  O432  1  0.37004612  0.37091953  0.12195234  1
  O  O433  1  0.37051224  0.37223613  0.62247116  1
  O  O434  1  0.36861444  0.87048526  0.11874310  1
  O  O435  1  0.37336180  0.86346190  0.62347518  1
  O  O436  1  0.87317000  0.36480316  0.12120943  1
  O  O437  1  0.87141183  0.36938635  0.61965497  1
  O  O438  1  0.86912336  0.87276380  0.11777096  1
  O  O439  1  0.87052533  0.86894247  0.61913935  1
  O  O440  1  0.12709485  0.12860854  0.37788966  1
  O  O441  1  0.12360020  0.13081381  0.88379820  1
  O  O442  1  0.12946521  0.62892222  0.38079734  1
  O  O443  1  0.13088634  0.63101025  0.88027095  1
  O  O444  1  0.62528469  0.13500545  0.38195084  1
  O  O445  1  0.63203493  0.13329295  0.87582517  1
  O  O446  1  0.63267419  0.63294677  0.37688477  1
  O  O447  1  0.63224371  0.62566146  0.88117935  1
