# generated using pymatgen
data_V3Zn3O8
_symmetry_space_group_name_H-M   'P 1'
_cell_length_a   17.09123507
_cell_length_b   17.09168908
_cell_length_c   17.08987536
_cell_angle_alpha   89.98755739
_cell_angle_beta   89.99535976
_cell_angle_gamma   89.99285868
_symmetry_Int_Tables_number   1
_chemical_formula_structural   V3Zn3O8
_chemical_formula_sum   'V96 Zn96 O256'
_cell_volume   4992.26133177
_cell_formula_units_Z   32
loop_
 _symmetry_equiv_pos_site_id
 _symmetry_equiv_pos_as_xyz
  1  'x, y, z'
loop_
 _atom_site_type_symbol
 _atom_site_label
 _atom_site_symmetry_multiplicity
 _atom_site_fract_x
 _atom_site_fract_y
 _atom_site_fract_z
 _atom_site_occupancy
  V  V0  1  0.74943584  0.87571169  0.12494960  1
  V  V1  1  0.50039050  0.74950947  0.25087141  1
  V  V2  1  0.12456806  -0.00047142  0.62447324  1
  V  V3  1  0.87347992  0.12380035  0.24895090  1
  V  V4  1  0.37564383  0.75130798  0.62619532  1
  V  V5  1  0.12419472  0.24854992  0.37525580  1
  V  V6  1  0.75009708  0.62393679  0.37391947  1
  V  V7  1  0.00035090  0.12456561  0.62328825  1
  V  V8  1  0.49840004  0.25109956  0.25118910  1
  V  V9  1  0.00036526  0.49942277  -0.00073513  1
  V  V10  1  0.12608719  0.62526837  0.00103855  1
  V  V11  1  0.37264756  0.12503297  0.25111501  1
  V  V12  1  0.00026143  0.62577442  0.12547155  1
  V  V13  1  0.37397290  0.25062954  0.12592837  1
  V  V14  1  0.12464241  0.25081899  0.87322609  1
  V  V15  1  0.87517255  0.24900211  0.62305309  1
  V  V16  1  0.24975932  0.25121932  0.50129740  1
  V  V17  1  0.24949634  0.37523922  0.12552838  1
  V  V18  1  0.62584387  0.49911288  0.12524759  1
  V  V19  1  0.87603240  0.74936505  0.12452617  1
  V  V20  1  0.62318923  0.24901588  0.37580518  1
  V  V21  1  0.24969189  0.62531147  0.37609874  1
  V  V22  1  0.62603989  0.75050029  0.87411981  1
  V  V23  1  0.87368663  0.37318827  0.49838914  1
  V  V24  1  -0.00016233  0.74892001  0.24974304  1
  V  V25  1  0.75154442  0.62420224  0.87396795  1
  V  V26  1  0.74990828  0.12547606  0.87597011  1
  V  V27  1  0.49874688  0.12558566  0.62575025  1
  V  V28  1  0.50014243  0.24991197  0.74941889  1
  V  V29  1  0.49891110  -0.00000936  0.49976034  1
  V  V30  1  0.37528763  0.12674929  0.74993258  1
  V  V31  1  0.37513481  0.75070265  0.12575485  1
  V  V32  1  0.37692425  0.50106748  0.87694911  1
  V  V33  1  0.25173339  0.62648580  0.87655371  1
  V  V34  1  0.25043878  0.74969525  0.50113877  1
  V  V35  1  0.24898699  0.00030555  0.25167690  1
  V  V36  1  0.87553620  0.62408022  0.74985028  1
  V  V37  1  0.62525612  0.62438593  0.50019634  1
  V  V38  1  0.62409159  0.12527720  0.49907555  1
  V  V39  1  0.62614964  0.49975361  0.62524253  1
  V  V40  1  0.50077087  0.74985747  0.75058499  1
  V  V41  1  0.87337374  0.49926150  0.37362761  1
  V  V42  1  0.62530951  0.74987572  0.37555422  1
  V  V43  1  0.00088230  0.25173746  0.74916234  1
  V  V44  1  0.62546879  -0.00010687  0.62503205  1
  V  V45  1  0.00071492  0.74864373  0.74999682  1
  V  V46  1  0.62524633  0.24957999  0.87542887  1
  V  V47  1  0.12507422  0.50022337  0.12502490  1
  V  V48  1  -0.00091372  0.87444798  0.37537671  1
  V  V49  1  0.25002004  0.50052980  0.25153891  1
  V  V50  1  0.12428626  0.00031286  0.12476427  1
  V  V51  1  0.87598695  0.37490237  -0.00275013  1
  V  V52  1  0.25041813  0.87532115  0.62548001  1
  V  V53  1  0.00194131  0.50139609  0.50089771  1
  V  V54  1  0.00098469  0.87562337  0.87492332  1
  V  V55  1  0.62581038  0.37513667  0.74957865  1
  V  V56  1  0.50103164  0.62519614  0.12591722  1
  V  V57  1  0.12462129  0.87470526  0.25028396  1
  V  V58  1  0.87627854  -0.00000062  0.87468303  1
  V  V59  1  -0.00093709  0.24950757  0.24895959  1
  V  V60  1  0.74886679  -0.00195548  0.74865093  1
  V  V61  1  0.25034478  0.87464178  0.12574544  1
  V  V62  1  0.12607111  0.75100993  0.87470491  1
  V  V63  1  -0.00179814  0.37417763  0.37360064  1
  V  V64  1  0.87532863  0.75077016  0.62391934  1
  V  V65  1  0.50036274  0.49990913  0.00068822  1
  V  V66  1  0.37575389  0.00021962  0.87601955  1
  V  V67  1  0.37680659  0.62632325  0.75145543  1
  V  V68  1  0.50081748  0.12369005  0.12359592  1
  V  V69  1  0.74956282  0.49944366  0.24972391  1
  V  V70  1  0.37480963  0.62439593  0.25154553  1
  V  V71  1  0.24944810  0.49876204  0.74896602  1
  V  V72  1  0.37413594  -0.00022682  0.37561417  1
  V  V73  1  0.25036603  0.12526201  0.87489071  1
  V  V74  1  0.75160590  0.74940141  -0.00047627  1
  V  V75  1  0.62500227  0.87546672  0.24883806  1
  V  V76  1  0.24936289  0.25074877  -0.00019484  1
  V  V77  1  0.62638993  0.62432493  -0.00005832  1
  V  V78  1  0.49778373  0.37577396  0.37626939  1
  V  V79  1  0.87250940  -0.00043864  0.37365754  1
  V  V80  1  -0.00035068  -0.00026025  0.50001228  1
  V  V81  1  0.87374886  0.24921659  0.12360376  1
  V  V82  1  0.74978155  0.37493045  0.12460359  1
  V  V83  1  0.24956978  0.00060181  0.74914050  1
  V  V84  1  0.37564596  0.37661741  0.00076625  1
  V  V85  1  0.74916812  0.24888217  0.49915694  1
  V  V86  1  -0.00036759  0.12376685  0.12316182  1
  V  V87  1  0.49968185  0.87537308  0.37553819  1
  V  V88  1  0.75058380  0.75000620  0.50027499  1
  V  V89  1  0.12385654  0.37444508  0.24880711  1
  V  V90  1  0.12478212  0.12479118  0.00013873  1
  V  V91  1  0.25155344  0.75085155  0.00150452  1
  V  V92  1  0.49860011  0.50043861  0.50125914  1
  V  V93  1  0.50022840  0.87628593  0.87664274  1
  V  V94  1  0.75101632  0.49942538  0.74908228  1
  V  V95  1  0.12502440  0.74914092  0.37669127  1
  Zn  Zn96  1  0.74990944  0.37359973  0.62415111  1
  Zn  Zn97  1  0.37328030  0.25298065  0.62550688  1
  Zn  Zn98  1  0.74713107  0.12397618  0.37217152  1
  Zn  Zn99  1  0.12626612  0.37675627  0.74896787  1
  Zn  Zn100  1  0.12527607  0.50043356  0.62629581  1
  Zn  Zn101  1  0.12528153  0.12482182  0.49795590  1
  Zn  Zn102  1  0.37549471  0.87752789  0.00230696  1
  Zn  Zn103  1  0.12568556  0.62422409  0.50309276  1
  Zn  Zn104  1  0.37286635  0.50017783  0.37777853  1
  Zn  Zn105  1  0.87767805  0.49911688  0.87209356  1
  Zn  Zn106  1  0.87504540  0.62433191  0.24934309  1
  Zn  Zn107  1  0.62418370  0.12382540  0.00139012  1
  Zn  Zn108  1  0.24779928  0.12430643  0.37636339  1
  Zn  Zn109  1  0.74665187  0.00214195  0.24839855  1
  Zn  Zn110  1  0.87331739  0.87522806  0.50033959  1
  Zn  Zn111  1  0.74900531  0.24990437  0.00040193  1
  Zn  Zn112  1  0.50097718  0.37547431  0.87520936  1
  Zn  Zn113  1  0.00224961  0.37721889  0.87281716  1
  Zn  Zn114  1  0.62552802  0.87358968  0.74877285  1
  Zn  Zn115  1  0.74844684  0.87488571  0.62322001  1
  Zn  Zn116  1  0.24946653  0.37572981  0.62511228  1
  Zn  Zn117  1  0.00337176  0.62467926  0.62535577  1
  Zn  Zn118  1  0.50067775  0.00060889  0.00094944  1
  Zn  Zn119  1  0.62425655  0.37436783  0.24911430  1
  Zn  Zn120  1  0.00060130  -0.00029921  -0.00082494  1
  Zn  Zn121  1  0.37530094  0.87528907  0.50045106  1
  Zn  Zn122  1  0.87551676  0.12590909  0.74825274  1
  Zn  Zn123  1  0.37291251  0.37602071  0.50473210  1
  Zn  Zn124  1  0.12656284  0.87436880  0.74976110  1
  Zn  Zn125  1  0.62495513  0.00093664  0.12332886  1
  Zn  Zn126  1  0.50150365  0.62674728  0.62620989  1
  Zn  Zn127  1  0.87552840  0.87494582  0.00009855  1
  Zn  Zn128  1  0.18664778  0.18685618  0.18801667  1
  Zn  Zn129  1  0.18582894  0.18632530  0.68491337  1
  Zn  Zn130  1  0.18740776  0.68780951  0.18916596  1
  Zn  Zn131  1  0.18636821  0.68477042  0.68642671  1
  Zn  Zn132  1  0.68662962  0.18922110  0.18969988  1
  Zn  Zn133  1  0.68749645  0.18651177  0.68684364  1
  Zn  Zn134  1  0.68865626  0.68749802  0.18798488  1
  Zn  Zn135  1  0.68821734  0.68618903  0.68701047  1
  Zn  Zn136  1  0.31165749  0.31251416  0.31577585  1
  Zn  Zn137  1  0.31469354  0.31408308  0.81403301  1
  Zn  Zn138  1  0.31264510  0.81265171  0.31364060  1
  Zn  Zn139  1  0.31398611  0.81448301  0.81222016  1
  Zn  Zn140  1  0.81013084  0.31118546  0.31173758  1
  Zn  Zn141  1  0.81344795  0.31294406  0.81024070  1
  Zn  Zn142  1  0.81276040  0.81217318  0.31082520  1
  Zn  Zn143  1  0.81418730  0.81250776  0.81152004  1
  Zn  Zn144  1  0.18606580  0.43510829  0.43631672  1
  Zn  Zn145  1  0.18747957  0.43696536  0.93477044  1
  Zn  Zn146  1  0.18721457  0.93600106  0.43943318  1
  Zn  Zn147  1  0.18834026  0.93786950  0.93849194  1
  Zn  Zn148  1  0.68590695  0.43559066  0.43743295  1
  Zn  Zn149  1  0.68969476  0.43767226  0.93646626  1
  Zn  Zn150  1  0.68780206  0.93592729  0.43852651  1
  Zn  Zn151  1  0.68406938  0.93885787  0.94114845  1
  Zn  Zn152  1  0.31359423  0.06168735  0.06214609  1
  Zn  Zn153  1  0.31168950  0.06547990  0.56193435  1
  Zn  Zn154  1  0.31311256  0.56330547  0.06452048  1
  Zn  Zn155  1  0.31477804  0.56624232  0.56505352  1
  Zn  Zn156  1  0.81248829  0.06082376  0.06003387  1
  Zn  Zn157  1  0.81270800  0.06468997  0.56046441  1
  Zn  Zn158  1  0.81397506  0.56165350  0.06230535  1
  Zn  Zn159  1  0.81393521  0.56251974  0.56272448  1
  Zn  Zn160  1  0.43699163  0.43850658  0.18888143  1
  Zn  Zn161  1  0.43604795  0.43529912  0.68714875  1
  Zn  Zn162  1  0.43666867  0.93824839  0.18983004  1
  Zn  Zn163  1  0.43705777  0.93767819  0.68891467  1
  Zn  Zn164  1  0.93592910  0.43772947  0.18596393  1
  Zn  Zn165  1  0.93574910  0.43528428  0.68411996  1
  Zn  Zn166  1  0.93697621  0.93671513  0.18804985  1
  Zn  Zn167  1  0.93745902  0.93588672  0.68835881  1
  Zn  Zn168  1  0.06073662  0.06299300  0.31254517  1
  Zn  Zn169  1  0.06392830  0.06458668  0.80952950  1
  Zn  Zn170  1  0.06270604  0.56302750  0.31390225  1
  Zn  Zn171  1  0.06277583  0.56406561  0.81446306  1
  Zn  Zn172  1  0.56120696  0.06165039  0.31047624  1
  Zn  Zn173  1  0.56279397  0.06235706  0.81172138  1
  Zn  Zn174  1  0.56373806  0.56132396  0.31305276  1
  Zn  Zn175  1  0.56366864  0.56267447  0.81290113  1
  Zn  Zn176  1  0.43429566  0.18704281  0.43869903  1
  Zn  Zn177  1  0.43691709  0.18892878  0.93766928  1
  Zn  Zn178  1  0.43628526  0.68734800  0.43876201  1
  Zn  Zn179  1  0.43856472  0.68910155  0.93871682  1
  Zn  Zn180  1  0.93723817  0.18497948  0.43697070  1
  Zn  Zn181  1  0.93812873  0.18791153  0.93634102  1
  Zn  Zn182  1  0.93633083  0.68545314  0.43690517  1
  Zn  Zn183  1  0.93747450  0.68692528  0.93727263  1
  Zn  Zn184  1  0.06135015  0.31157705  0.06175260  1
  Zn  Zn185  1  0.06679687  0.31673317  0.56464623  1
  Zn  Zn186  1  0.06315739  0.81316382  0.06119629  1
  Zn  Zn187  1  0.06294426  0.81397311  0.56210891  1
  Zn  Zn188  1  0.56255292  0.31164576  0.06171522  1
  Zn  Zn189  1  0.56254818  0.31318000  0.56381813  1
  Zn  Zn190  1  0.56370779  0.81154042  0.06120668  1
  Zn  Zn191  1  0.56309824  0.81445571  0.56355905  1
  O  O192  1  0.11929228  0.12005218  0.11995396  1
  O  O193  1  0.11699321  0.11659303  0.62221057  1
  O  O194  1  0.12079039  0.61986361  0.12018797  1
  O  O195  1  0.12064410  0.61872148  0.62089597  1
  O  O196  1  0.61232971  0.12709871  0.12524233  1
  O  O197  1  0.61858168  0.11918186  0.61914392  1
  O  O198  1  0.62042946  0.61994359  0.11936111  1
  O  O199  1  0.62322932  0.61834090  0.61771875  1
  O  O200  1  0.38760020  0.37776935  0.37804064  1
  O  O201  1  0.37777524  0.38259517  0.88414096  1
  O  O202  1  0.38238628  0.88135939  0.37558814  1
  O  O203  1  0.38462153  0.88090300  0.87650037  1
  O  O204  1  0.87969848  0.37914352  0.37873027  1
  O  O205  1  0.87672746  0.37507754  0.88665995  1
  O  O206  1  0.88092092  0.88386342  0.37336636  1
  O  O207  1  0.88376453  0.88269326  0.87494697  1
  O  O208  1  0.25506698  -0.00035479  0.36880591  1
  O  O209  1  0.25479116  0.00601796  0.86976111  1
  O  O210  1  0.25032968  0.50582184  0.36861941  1
  O  O211  1  0.25729519  0.50747673  0.87054329  1
  O  O212  1  0.76156502  -0.00033903  0.37305774  1
  O  O213  1  0.75598634  0.00600409  0.86846052  1
  O  O214  1  0.75335608  0.50384482  0.36991751  1
  O  O215  1  0.75229338  0.50708710  0.86749570  1
  O  O216  1  0.24431225  0.49497098  0.13096883  1
  O  O217  1  0.25267207  0.50325813  0.63985095  1
  O  O218  1  0.24438841  0.99471911  0.13143866  1
  O  O219  1  0.24512457  0.99571036  0.62954088  1
  O  O220  1  0.74499218  0.49511189  0.12959854  1
  O  O221  1  0.74393650  0.49870082  0.63093314  1
  O  O222  1  0.74994241  0.98706654  0.12517524  1
  O  O223  1  0.74620181  1.00185927  0.63426692  1
  O  O224  1  0.00419586  0.36929530  0.25299853  1
  O  O225  1  0.00008404  0.36249828  0.75022408  1
  O  O226  1  0.00603860  0.86863924  0.25497302  1
  O  O227  1  0.00149085  0.86860031  0.76144308  1
  O  O228  1  0.49979041  0.37038549  0.25938224  1
  O  O229  1  0.50785634  0.36863652  0.75322394  1
  O  O230  1  0.50494795  0.86820112  0.25521400  1
  O  O231  1  0.50082505  0.86932206  0.76192013  1
  O  O232  1  0.49252485  0.13135711  0.24228431  1
  O  O233  1  0.49509734  0.12988919  0.74501528  1
  O  O234  1  0.49590824  0.62996634  0.24542640  1
  O  O235  1  0.49431477  0.63200779  0.75088542  1
  O  O236  1  0.99372814  0.13050535  0.24241724  1
  O  O237  1  0.99877367  0.13564577  0.74312127  1
  O  O238  1  0.99999733  0.63120632  0.24304273  1
  O  O239  1  0.99318649  0.63167390  0.75023875  1
  O  O240  1  0.36837536  0.25637851  0.00557024  1
  O  O241  1  0.36311709  0.25121940  0.50114228  1
  O  O242  1  0.36871283  0.75065854  0.00852006  1
  O  O243  1  0.36913181  0.75169930  0.50759362  1
  O  O244  1  0.87458121  0.25896776  0.00490765  1
  O  O245  1  0.86971438  0.25385325  0.50278529  1
  O  O246  1  0.86884921  0.75128989  0.00612974  1
  O  O247  1  0.86992288  0.74932165  0.50861500  1
  O  O248  1  0.13183922  0.25052103  0.49265826  1
  O  O249  1  0.13055006  0.24461054  0.99504128  1
  O  O250  1  0.13177633  0.74931381  0.49328353  1
  O  O251  1  0.13175720  0.74434153  0.99539637  1
  O  O252  1  0.62861294  0.24429172  0.49536903  1
  O  O253  1  0.62738389  0.24793382  0.98735511  1
  O  O254  1  0.62970723  0.74442339  0.49463353  1
  O  O255  1  0.63155474  0.74294200  0.99415351  1
  O  O256  1  0.49312578  0.24439833  0.13073629  1
  O  O257  1  0.50045295  0.24237008  0.63210982  1
  O  O258  1  0.49599689  0.74436824  0.13088927  1
  O  O259  1  0.49470304  0.75052638  0.63260728  1
  O  O260  1  0.99411857  0.24386638  0.12992467  1
  O  O261  1  0.99601616  0.24532292  0.63086823  1
  O  O262  1  0.99663254  0.74548263  0.12946583  1
  O  O263  1  0.99115630  0.75034334  0.63056934  1
  O  O264  1  0.00295901  0.25516879  0.36805686  1
  O  O265  1  0.00547823  0.24917161  0.86434479  1
  O  O266  1  0.00434839  0.75428953  0.36994604  1
  O  O267  1  0.00507172  0.75761345  0.87094826  1
  O  O268  1  0.50276873  0.25763079  0.37191249  1
  O  O269  1  0.51060205  0.24937425  0.86924190  1
  O  O270  1  0.50571142  0.75452940  0.37027192  1
  O  O271  1  0.50536109  0.75730346  0.87087667  1
  O  O272  1  0.24630837  0.13587383  0.49660031  1
  O  O273  1  0.24507913  0.13161818  0.99535025  1
  O  O274  1  0.24986574  0.63138150  0.49345029  1
  O  O275  1  0.24535939  0.63063982  0.99660835  1
  O  O276  1  0.74157100  0.13090720  0.49599697  1
  O  O277  1  0.74939627  0.12682628  0.98637746  1
  O  O278  1  0.74445043  0.62947044  0.49320611  1
  O  O279  1  0.74530249  0.62935681  0.99489111  1
  O  O280  1  0.25524697  0.37067468  0.00641269  1
  O  O281  1  0.25136969  0.36466282  0.49869948  1
  O  O282  1  0.25102517  0.86817356  0.00784112  1
  O  O283  1  0.25260784  0.86778348  0.50734879  1
  O  O284  1  0.76059533  0.37466811  0.00537064  1
  O  O285  1  0.75580608  0.36727477  0.49989549  1
  O  O286  1  0.75044630  0.86787665  0.00868888  1
  O  O287  1  0.75311176  0.86582864  0.50228517  1
  O  O288  1  0.12953119  0.49396095  0.24430280  1
  O  O289  1  0.13877056  0.50156318  0.75420918  1
  O  O290  1  0.12879107  0.99409269  0.24459586  1
  O  O291  1  0.13236227  0.99911062  0.74311904  1
  O  O292  1  0.63090976  0.49798226  0.24273863  1
  O  O293  1  0.63050488  0.49533659  0.74534239  1
  O  O294  1  0.62634687  0.99103017  0.24599965  1
  O  O295  1  0.63481474  1.00030659  0.74448242  1
  O  O296  1  0.36808810  0.00500425  0.25597817  1
  O  O297  1  0.36918369  0.00726866  0.75624314  1
  O  O298  1  0.36780520  0.50710910  0.25141237  1
  O  O299  1  0.37008478  0.50661588  0.75777870  1
  O  O300  1  0.87496741  0.00497532  0.25898392  1
  O  O301  1  0.86715351  0.00146566  0.75913453  1
  O  O302  1  0.86819687  0.50063437  0.25582490  1
  O  O303  1  0.86942604  0.50547115  0.74938884  1
  O  O304  1  0.11719628  0.36856173  0.36657274  1
  O  O305  1  0.12271041  0.36577931  0.87225239  1
  O  O306  1  0.11902763  0.86918731  0.36898980  1
  O  O307  1  0.11681940  0.87026547  0.87408283  1
  O  O308  1  0.61248513  0.36892092  0.37447368  1
  O  O309  1  0.62599627  0.36456237  0.86975028  1
  O  O310  1  0.61941790  0.86882701  0.36939796  1
  O  O311  1  0.61641412  0.86923437  0.87391099  1
  O  O312  1  0.38069238  0.13158264  0.13098395  1
  O  O313  1  0.38173462  0.12685646  0.63317612  1
  O  O314  1  0.38135471  0.63065353  0.13176835  1
  O  O315  1  0.37948488  0.63384412  0.63392198  1
  O  O316  1  0.87969203  0.12898989  0.12776998  1
  O  O317  1  0.88234166  0.13118187  0.62591823  1
  O  O318  1  0.88267393  0.63109257  0.12576941  1
  O  O319  1  0.87685397  0.63594450  0.63066017  1
  O  O320  1  0.25411377  0.25575636  0.11992206  1
  O  O321  1  0.24913287  0.25037525  0.61371353  1
  O  O322  1  0.25503276  0.75493237  0.12167143  1
  O  O323  1  0.25564336  0.75510335  0.62141766  1
  O  O324  1  0.75603013  0.25590768  0.12276488  1
  O  O325  1  0.75646604  0.24890546  0.61758963  1
  O  O326  1  0.75510761  0.75669524  0.11986344  1
  O  O327  1  0.75914359  0.74969305  0.61975722  1
  O  O328  1  0.24227211  0.24912389  0.38244620  1
  O  O329  1  0.24550377  0.24435082  0.88072340  1
  O  O330  1  0.24473414  0.74561257  0.38035315  1
  O  O331  1  0.24645208  0.74606548  0.88096478  1
  O  O332  1  0.74157615  0.24832262  0.38087486  1
  O  O333  1  0.74278627  0.24063095  0.87212041  1
  O  O334  1  0.74476103  0.74449002  0.37944675  1
  O  O335  1  0.74602832  0.74483564  0.87934191  1
  O  O336  1  0.00677583  0.12362798  0.00533424  1
  O  O337  1  0.00126026  0.11747226  0.50608456  1
  O  O338  1  0.00700774  0.62046343  0.00565378  1
  O  O339  1  0.00029808  0.61234197  0.49880597  1
  O  O340  1  0.49837997  0.12720655  0.01322402  1
  O  O341  1  0.50462842  0.11945537  0.50569667  1
  O  O342  1  0.50650573  0.62042018  0.00660354  1
  O  O343  1  0.50670535  0.61538996  0.49927796  1
  O  O344  1  0.50069790  0.38419582  0.49267201  1
  O  O345  1  0.49325646  0.38211097  0.99993976  1
  O  O346  1  0.49933021  0.88213981  0.49285515  1
  O  O347  1  0.49834008  0.87396906  0.98768528  1
  O  O348  1  0.99359039  0.38165184  0.49273404  1
  O  O349  1  0.99072565  0.38008179  1.00093348  1
  O  O350  1  0.99640878  0.88137875  0.49248158  1
  O  O351  1  0.99893816  0.87703257  0.98689707  1
  O  O352  1  0.50104223  0.49261352  0.38410007  1
  O  O353  1  0.49513126  0.49986890  0.88343829  1
  O  O354  1  0.49417628  0.99442744  0.37983888  1
  O  O355  1  0.49495391  0.99141565  0.87378313  1
  O  O356  1  0.99373153  0.49369440  0.38007537  1
  O  O357  1  0.99800297  0.49767869  0.88353815  1
  O  O358  1  0.99158572  0.99442250  0.37874671  1
  O  O359  1  0.99268539  0.99355745  0.87175263  1
  O  O360  1  0.00602007  0.00515956  0.12309419  1
  O  O361  1  0.00346133  0.00366053  0.62089131  1
  O  O362  1  0.00642480  0.50540046  0.11999529  1
  O  O363  1  -0.00248860  0.50049123  0.61121454  1
  O  O364  1  0.49805925  0.01284791  0.12614704  1
  O  O365  1  0.50504049  0.00550574  0.62057751  1
  O  O366  1  0.50541582  0.50598377  0.12049974  1
  O  O367  1  0.50656001  0.50088703  0.61541431  1
  O  O368  1  0.24405971  0.37990942  0.24481210  1
  O  O369  1  0.25149436  0.38899112  0.75373770  1
  O  O370  1  0.24356602  0.87973149  0.24506058  1
  O  O371  1  0.24946952  0.88280688  0.74418676  1
  O  O372  1  0.74795084  0.38125025  0.24260552  1
  O  O373  1  0.74405138  0.38129321  0.74778960  1
  O  O374  1  0.74386605  0.87372019  0.23922459  1
  O  O375  1  0.74889750  0.88819362  0.75039720  1
  O  O376  1  0.25528523  0.11810494  0.25056027  1
  O  O377  1  0.25496289  0.12064276  0.75584014  1
  O  O378  1  0.25492412  0.62002224  0.25533145  1
  O  O379  1  0.25722455  0.61907762  0.75814307  1
  O  O380  1  0.75747723  0.12220633  0.25187495  1
  O  O381  1  0.75139749  0.11528286  0.75948671  1
  O  O382  1  0.75089329  0.61786315  0.25624595  1
  O  O383  1  0.75563508  0.61923308  0.75537166  1
  O  O384  1  0.37393304  0.11755152  0.36720165  1
  O  O385  1  0.36937961  0.12074749  0.87006044  1
  O  O386  1  0.36827722  0.62438562  0.36803953  1
  O  O387  1  0.37063788  0.62107443  0.87210565  1
  O  O388  1  0.87522792  0.11433724  0.36782778  1
  O  O389  1  0.86739068  0.11708120  0.87255640  1
  O  O390  1  0.86708680  0.61745677  0.37255056  1
  O  O391  1  0.86858498  0.62427741  0.86807510  1
  O  O392  1  0.13001348  0.38001324  0.12937289  1
  O  O393  1  0.13114460  0.38331936  0.63136863  1
  O  O394  1  0.13010102  0.87990674  0.13069097  1
  O  O395  1  0.13187618  0.88144712  0.62794788  1
  O  O396  1  0.63114875  0.38128522  0.12475731  1
  O  O397  1  0.62744159  0.38163075  0.63173435  1
  O  O398  1  0.63428028  0.87256803  0.13010850  1
  O  O399  1  0.62818502  0.88404657  0.62888174  1
  O  O400  1  0.11836020  0.25568932  0.25325812  1
  O  O401  1  0.11615015  0.24942332  0.75484410  1
  O  O402  1  0.11973429  0.75575739  0.25588909  1
  O  O403  1  0.11943861  0.75065447  0.75786401  1
  O  O404  1  0.61594668  0.25270859  0.25752997  1
  O  O405  1  0.62111143  0.25396304  0.75757471  1
  O  O406  1  0.61933517  0.75426842  0.25601762  1
  O  O407  1  0.62010728  0.75064441  0.75697949  1
  O  O408  1  0.37845705  0.24567793  0.24497132  1
  O  O409  1  0.38230886  0.24328163  0.75214554  1
  O  O410  1  0.38103098  0.74423747  0.24532690  1
  O  O411  1  0.38085592  0.74497294  0.74661337  1
  O  O412  1  0.88031626  0.24467927  0.24370049  1
  O  O413  1  0.88393756  0.24871482  0.74325447  1
  O  O414  1  0.88252958  0.74787149  0.24285412  1
  O  O415  1  0.87942052  0.74457814  0.74254941  1
  O  O416  1  0.38779155  0.50103894  0.49932078  1
  O  O417  1  0.38054911  0.49641001  0.99730359  1
  O  O418  1  0.38149444  0.99960488  0.49382609  1
  O  O419  1  0.37841702  0.99783018  0.99192848  1
  O  O420  1  0.88112736  0.49381045  0.49296420  1
  O  O421  1  0.88139411  0.49004395  1.00023536  1
  O  O422  1  0.88008800  0.99917239  0.48956380  1
  O  O423  1  0.87710055  0.99762561  0.98538890  1
  O  O424  1  0.12488917  0.00745973  0.00672533  1
  O  O425  1  0.11735881  0.00029432  0.50635861  1
  O  O426  1  0.12169608  0.50549216  0.00604075  1
  O  O427  1  0.11140360  0.49939448  0.49698088  1
  O  O428  1  0.61871781  0.00617898  0.00502987  1
  O  O429  1  0.61909749  0.00550471  0.50445749  1
  O  O430  1  0.62072431  0.50543365  0.00513986  1
  O  O431  1  0.61762006  0.50453426  0.50442643  1
  O  O432  1  0.36887692  0.37032968  0.12082581  1
  O  O433  1  0.36903067  0.37051452  0.62253644  1
  O  O434  1  0.36864553  0.86819215  0.12618870  1
  O  O435  1  0.36860671  0.86914280  0.62461356  1
  O  O436  1  0.87038675  0.36938198  0.11623286  1
  O  O437  1  0.87220727  0.36614048  0.61552644  1
  O  O438  1  0.86641211  0.86886235  0.12334802  1
  O  O439  1  0.87222524  0.86214852  0.62515640  1
  O  O440  1  0.12516626  0.13353865  0.37546289  1
  O  O441  1  0.13132215  0.13027860  0.88050214  1
  O  O442  1  0.13214146  0.63226603  0.37615874  1
  O  O443  1  0.13192916  0.63190723  0.88264843  1
  O  O444  1  0.62267178  0.13118252  0.38114385  1
  O  O445  1  0.63358522  0.13357540  0.87353519  1
  O  O446  1  0.63038296  0.63055875  0.38039420  1
  O  O447  1  0.63166736  0.63048251  0.88101403  1
