# generated using pymatgen
data_V3Zn3O8
_symmetry_space_group_name_H-M   'P 1'
_cell_length_a   17.08764237
_cell_length_b   17.08773484
_cell_length_c   17.08833683
_cell_angle_alpha   90.00778820
_cell_angle_beta   90.00607475
_cell_angle_gamma   89.99603720
_symmetry_Int_Tables_number   1
_chemical_formula_structural   V3Zn3O8
_chemical_formula_sum   'V96 Zn96 O256'
_cell_volume   4989.60803766
_cell_formula_units_Z   32
loop_
 _symmetry_equiv_pos_site_id
 _symmetry_equiv_pos_as_xyz
  1  'x, y, z'
loop_
 _atom_site_type_symbol
 _atom_site_label
 _atom_site_symmetry_multiplicity
 _atom_site_fract_x
 _atom_site_fract_y
 _atom_site_fract_z
 _atom_site_occupancy
  V  V0  1  0.37476838  0.12560308  0.25030608  1
  V  V1  1  0.62499314  0.25035558  0.37483195  1
  V  V2  1  0.00079168  0.87449730  0.37519912  1
  V  V3  1  0.75038267  0.49998801  0.25070606  1
  V  V4  1  0.62548735  0.74979187  0.37575807  1
  V  V5  1  0.00093989  0.87443831  0.87509728  1
  V  V6  1  0.62477006  0.24943114  0.87359606  1
  V  V7  1  0.49978480  0.00053239  0.00031234  1
  V  V8  1  0.00028005  0.74934263  0.75016799  1
  V  V9  1  0.62307299  0.49947028  0.62543583  1
  V  V10  1  0.50100775  0.00078117  0.49962769  1
  V  V11  1  0.74948942  0.87451878  0.62588212  1
  V  V12  1  0.12457832  -0.00028009  0.12497640  1
  V  V13  1  0.87565709  -0.00145803  0.37564270  1
  V  V14  1  0.50014809  0.62542861  0.12542876  1
  V  V15  1  0.87498110  0.24941881  0.12472087  1
  V  V16  1  0.37492254  0.50063475  0.37568038  1
  V  V17  1  0.87470918  0.37542009  0.49932500  1
  V  V18  1  0.87451837  0.24975380  0.62384481  1
  V  V19  1  0.37432749  0.00179345  0.37396548  1
  V  V20  1  -0.00144226  0.49855870  -0.00102934  1
  V  V21  1  0.75028873  0.25003424  0.50016354  1
  V  V22  1  0.50025124  0.12635039  0.12460425  1
  V  V23  1  0.62485021  0.75022522  0.87562229  1
  V  V24  1  0.62569376  0.62555739  -0.00044290  1
  V  V25  1  0.62463462  0.87568415  0.74981983  1
  V  V26  1  0.24936286  0.24977706  0.49928155  1
  V  V27  1  0.37529453  0.49954628  0.87565517  1
  V  V28  1  0.87529875  0.75013556  0.62547332  1
  V  V29  1  0.87548104  0.49962650  0.37564063  1
  V  V30  1  0.62505531  -0.00075332  0.62445985  1
  V  V31  1  0.25016874  0.62403018  0.87620155  1
  V  V32  1  0.24778879  0.49825440  0.74991245  1
  V  V33  1  0.87497367  -0.00035725  0.87432947  1
  V  V34  1  0.24952230  0.37526526  0.62604936  1
  V  V35  1  -0.00062301  0.37541354  0.37544983  1
  V  V36  1  0.50083368  0.87610843  0.37466825  1
  V  V37  1  0.75067081  0.12347055  0.87470378  1
  V  V38  1  0.75043185  -0.00047372  0.24979457  1
  V  V39  1  0.37489159  0.37556690  0.50008723  1
  V  V40  1  0.24897015  0.87641254  0.62433525  1
  V  V41  1  0.87555349  0.37576569  -0.00089663  1
  V  V42  1  0.12516182  0.62475335  -0.00031864  1
  V  V43  1  0.62539585  0.12494747  -0.00025523  1
  V  V44  1  0.24986652  0.37590097  0.12605415  1
  V  V45  1  0.50154824  0.37371671  0.87289458  1
  V  V46  1  0.74984628  0.74939773  0.00031938  1
  V  V47  1  0.62288346  0.62522608  0.50080579  1
  V  V48  1  0.25053459  0.87594301  0.12525596  1
  V  V49  1  0.37455282  0.00037319  0.87507903  1
  V  V50  1  0.62629109  0.87467224  0.25027547  1
  V  V51  1  0.24860182  0.75037180  0.49887340  1
  V  V52  1  0.37657516  0.12630562  0.74878005  1
  V  V53  1  0.12438064  0.25051864  0.87477908  1
  V  V54  1  0.50053439  0.49980851  -0.00051372  1
  V  V55  1  0.00038177  0.12398621  0.12467505  1
  V  V56  1  0.75002376  0.12464197  0.37433919  1
  V  V57  1  0.74980458  0.75046262  0.50121586  1
  V  V58  1  0.62475005  0.50002196  0.12476715  1
  V  V59  1  0.12429931  0.25025978  0.37488866  1
  V  V60  1  0.37401774  0.25095793  0.12490237  1
  V  V61  1  0.12581915  0.50004456  0.12543104  1
  V  V62  1  -0.00075776  0.25075353  0.74997028  1
  V  V63  1  0.00009596  0.12485987  0.62394574  1
  V  V64  1  0.75050716  0.24967327  -0.00058045  1
  V  V65  1  0.24826556  0.00009832  0.75016278  1
  V  V66  1  0.24908146  0.24946540  0.00018171  1
  V  V67  1  0.12489349  0.12532069  0.49951635  1
  V  V68  1  0.87504666  0.62371535  0.25111398  1
  V  V69  1  0.25037168  0.50129802  0.24937268  1
  V  V70  1  0.37614981  0.75113587  0.12487328  1
  V  V71  1  0.00078933  0.75013126  0.25025817  1
  V  V72  1  0.74866431  0.49991955  0.75066250  1
  V  V73  1  0.62563471  0.00025872  0.12526972  1
  V  V74  1  0.50098481  0.75013276  0.24962356  1
  V  V75  1  0.24989809  0.62680084  0.37450694  1
  V  V76  1  0.49891423  0.37647424  0.37573662  1
  V  V77  1  0.49955716  0.87522470  0.87554478  1
  V  V78  1  0.37574923  0.24920442  0.62493105  1
  V  V79  1  0.62529036  0.12444550  0.50019771  1
  V  V80  1  0.75090453  0.87394773  0.12493380  1
  V  V81  1  0.00049248  0.62470855  0.12516223  1
  V  V82  1  0.74960164  0.37449001  0.12462162  1
  V  V83  1  0.12528885  0.87513178  0.24940850  1
  V  V84  1  0.00107987  -0.00046385  -0.00015501  1
  V  V85  1  0.87482213  0.12455883  0.24960630  1
  V  V86  1  0.87513654  0.62440572  0.74920303  1
  V  V87  1  0.37462801  0.87545294  0.00089694  1
  V  V88  1  0.49847545  0.75044944  0.75000416  1
  V  V89  1  0.00051597  -0.00073357  0.50035922  1
  V  V90  1  0.87492345  0.74948721  0.12454164  1
  V  V91  1  0.62455099  0.37545049  0.25007020  1
  V  V92  1  0.49962017  0.25127000  0.24927814  1
  V  V93  1  0.37519721  0.74895451  0.62620300  1
  V  V94  1  0.12512677  0.74915364  0.87493993  1
  V  V95  1  0.00002317  0.25028639  0.25021606  1
  Zn  Zn96  1  0.00085893  0.50309286  0.50262275  1
  Zn  Zn97  1  0.74961134  0.62524699  0.87562576  1
  Zn  Zn98  1  0.12426051  0.37549501  0.25057349  1
  Zn  Zn99  1  0.74998749  0.00027356  0.74956117  1
  Zn  Zn100  1  0.12304657  0.62122031  0.50140543  1
  Zn  Zn101  1  0.00643682  0.62378387  0.62299466  1
  Zn  Zn102  1  0.75069258  0.62461982  0.37587272  1
  Zn  Zn103  1  0.62638623  0.37125906  0.74717448  1
  Zn  Zn104  1  0.87347172  0.12475132  0.74875559  1
  Zn  Zn105  1  0.37556554  0.87685440  0.49823679  1
  Zn  Zn106  1  0.74913302  0.37365515  0.62482754  1
  Zn  Zn107  1  0.49748154  0.62410812  0.62732856  1
  Zn  Zn108  1  0.24887385  0.00194066  0.25000210  1
  Zn  Zn109  1  0.25039020  0.74996182  -0.00028918  1
  Zn  Zn110  1  0.87479241  0.49900869  0.87430749  1
  Zn  Zn111  1  0.12352147  0.37468430  0.74813465  1
  Zn  Zn112  1  0.37651234  0.62605703  0.24959230  1
  Zn  Zn113  1  0.49790973  0.50100171  0.50218969  1
  Zn  Zn114  1  0.37526721  0.62482325  0.75151992  1
  Zn  Zn115  1  0.12223202  0.49881086  0.62143491  1
  Zn  Zn116  1  0.12469290  0.75038264  0.37505786  1
  Zn  Zn117  1  0.87527398  0.87267948  0.00016638  1
  Zn  Zn118  1  0.12431992  0.87414633  0.75007924  1
  Zn  Zn119  1  0.50184222  0.12583978  0.62435564  1
  Zn  Zn120  1  0.50259215  0.24941851  0.74737211  1
  Zn  Zn121  1  -0.00206686  0.37606688  0.87374556  1
  Zn  Zn122  1  0.24939571  0.12508876  0.87613795  1
  Zn  Zn123  1  0.12485202  0.12435904  0.00053898  1
  Zn  Zn124  1  0.87631699  0.87382309  0.50134715  1
  Zn  Zn125  1  0.12396259  0.00052309  0.62488014  1
  Zn  Zn126  1  0.37587229  0.37463999  0.00021273  1
  Zn  Zn127  1  0.24888949  0.12557614  0.37369345  1
  Zn  Zn128  1  0.18671891  0.18636105  0.18891569  1
  Zn  Zn129  1  0.18675294  0.18779494  0.68607690  1
  Zn  Zn130  1  0.18859380  0.68912927  0.18713224  1
  Zn  Zn131  1  0.18623658  0.68365086  0.68913669  1
  Zn  Zn132  1  0.68766619  0.18772344  0.18762563  1
  Zn  Zn133  1  0.68894319  0.18493474  0.68830670  1
  Zn  Zn134  1  0.68843375  0.68642291  0.18772524  1
  Zn  Zn135  1  0.68715456  0.68719678  0.68750447  1
  Zn  Zn136  1  0.31066207  0.31393713  0.31281489  1
  Zn  Zn137  1  0.31364413  0.31325878  0.81330031  1
  Zn  Zn138  1  0.31383927  0.81483339  0.31022417  1
  Zn  Zn139  1  0.31127072  0.81240231  0.81307413  1
  Zn  Zn140  1  0.81299968  0.31308181  0.31264968  1
  Zn  Zn141  1  0.81283887  0.31387734  0.81195891  1
  Zn  Zn142  1  0.81359980  0.81098789  0.31377187  1
  Zn  Zn143  1  0.81198676  0.81297781  0.81253783  1
  Zn  Zn144  1  0.18604272  0.43754552  0.43786208  1
  Zn  Zn145  1  0.18595944  0.43555097  0.93768028  1
  Zn  Zn146  1  0.18668878  0.93824683  0.43671689  1
  Zn  Zn147  1  0.18697873  0.93599365  0.93821452  1
  Zn  Zn148  1  0.68863270  0.43791797  0.43812411  1
  Zn  Zn149  1  0.68775168  0.43719935  0.93558861  1
  Zn  Zn150  1  0.68881670  0.93642224  0.43891712  1
  Zn  Zn151  1  0.68847448  0.93617645  0.93824471  1
  Zn  Zn152  1  0.31111288  0.06330632  0.06378727  1
  Zn  Zn153  1  0.31268591  0.06419465  0.56112243  1
  Zn  Zn154  1  0.31409544  0.56303818  0.06138155  1
  Zn  Zn155  1  0.30945067  0.56270484  0.56239516  1
  Zn  Zn156  1  0.81412231  0.06155827  0.06040707  1
  Zn  Zn157  1  0.81314100  0.06176468  0.56232388  1
  Zn  Zn158  1  0.81278768  0.56248502  0.06299996  1
  Zn  Zn159  1  0.81170558  0.56230981  0.56312779  1
  Zn  Zn160  1  0.43514773  0.43818033  0.18811517  1
  Zn  Zn161  1  0.43595414  0.43731163  0.68868651  1
  Zn  Zn162  1  0.43808035  0.93773053  0.18841670  1
  Zn  Zn163  1  0.43731689  0.93734229  0.68634598  1
  Zn  Zn164  1  0.93777508  0.43690600  0.18752068  1
  Zn  Zn165  1  0.93669229  0.43729808  0.68377557  1
  Zn  Zn166  1  0.93792311  0.93619376  0.18766286  1
  Zn  Zn167  1  0.93778258  0.93603697  0.68826005  1
  Zn  Zn168  1  0.06248878  0.06205800  0.31272213  1
  Zn  Zn169  1  0.06248518  0.06538545  0.81308005  1
  Zn  Zn170  1  0.06345801  0.56187739  0.31432407  1
  Zn  Zn171  1  0.06166768  0.56227261  0.81303641  1
  Zn  Zn172  1  0.56199747  0.06321550  0.31215940  1
  Zn  Zn173  1  0.56274347  0.06148065  0.81193717  1
  Zn  Zn174  1  0.56195152  0.56279510  0.31339441  1
  Zn  Zn175  1  0.56110274  0.56503218  0.81186161  1
  Zn  Zn176  1  0.43794163  0.18767574  0.43802841  1
  Zn  Zn177  1  0.43629732  0.18768042  0.93633914  1
  Zn  Zn178  1  0.43663247  0.68836556  0.43855510  1
  Zn  Zn179  1  0.43677502  0.68721109  0.93845170  1
  Zn  Zn180  1  0.93795465  0.18746537  0.43745434  1
  Zn  Zn181  1  0.93790938  0.18602506  0.93767963  1
  Zn  Zn182  1  0.93798000  0.68675784  0.43837674  1
  Zn  Zn183  1  0.93688962  0.68564745  0.93606622  1
  Zn  Zn184  1  0.06298891  0.31404014  0.06329464  1
  Zn  Zn185  1  0.06277757  0.31478116  0.56212564  1
  Zn  Zn186  1  0.06295098  0.81297848  0.06102536  1
  Zn  Zn187  1  0.06252492  0.81130670  0.56348651  1
  Zn  Zn188  1  0.56293734  0.31292350  0.06048002  1
  Zn  Zn189  1  0.56089522  0.31270974  0.56221281  1
  Zn  Zn190  1  0.56282909  0.81275876  0.06246643  1
  Zn  Zn191  1  0.56150151  0.81414522  0.56205712  1
  O  O192  1  0.11728777  0.11794139  0.12511467  1
  O  O193  1  0.11815402  0.12420744  0.61731413  1
  O  O194  1  0.11988145  0.61996558  0.11978850  1
  O  O195  1  0.12587206  0.61942148  0.62089814  1
  O  O196  1  0.62014150  0.12011458  0.11983551  1
  O  O197  1  0.62469512  0.11771064  0.61750195  1
  O  O198  1  0.61972715  0.61930983  0.11974798  1
  O  O199  1  0.62294727  0.61791643  0.61656086  1
  O  O200  1  0.37950938  0.38054379  0.38043928  1
  O  O201  1  0.38565952  0.37969138  0.87736293  1
  O  O202  1  0.38254389  0.88589025  0.37377017  1
  O  O203  1  0.38036039  0.88074001  0.88046754  1
  O  O204  1  0.87965822  0.37941434  0.37949242  1
  O  O205  1  0.87626124  0.37700207  0.88440711  1
  O  O206  1  0.88191748  0.88140208  0.37583894  1
  O  O207  1  0.88105156  0.88359317  0.87672085  1
  O  O208  1  0.26314225  0.00139563  0.37371864  1
  O  O209  1  0.25568692  0.00063814  0.86584720  1
  O  O210  1  0.25546315  0.50854152  0.37003911  1
  O  O211  1  0.25502010  0.50217148  0.86946248  1
  O  O212  1  0.75476672  0.00468565  0.36906289  1
  O  O213  1  0.75905906  0.00389638  0.87652585  1
  O  O214  1  0.75624992  0.50034476  0.36725764  1
  O  O215  1  0.74942445  0.50329878  0.86295562  1
  O  O216  1  0.24595279  0.49614448  0.12915368  1
  O  O217  1  0.25286545  0.49334792  0.63620181  1
  O  O218  1  0.24359712  0.99385316  0.12642729  1
  O  O219  1  0.25196161  0.99175349  0.63214016  1
  O  O220  1  0.74402333  0.49363731  0.13050645  1
  O  O221  1  0.73956438  0.49971244  0.63362276  1
  O  O222  1  0.74521284  0.99530466  0.13015110  1
  O  O223  1  0.74353705  0.99291052  0.62553774  1
  O  O224  1  -0.00024415  0.36711737  0.25612656  1
  O  O225  1  0.00086372  0.36106506  0.75057907  1
  O  O226  1  0.00523063  0.86928332  0.25473906  1
  O  O227  1  0.00238509  0.86782211  0.75719711  1
  O  O228  1  0.50529260  0.37016858  0.25505805  1
  O  O229  1  0.50228331  0.37405663  0.76268906  1
  O  O230  1  0.50808096  0.87039253  0.25457349  1
  O  O231  1  0.50423241  0.87049017  0.75637806  1
  O  O232  1  0.49604233  0.13216985  0.24366552  1
  O  O233  1  0.48684144  0.12395085  0.74846604  1
  O  O234  1  0.50061197  0.63220538  0.24332620  1
  O  O235  1  0.49540605  0.63478863  0.74744047  1
  O  O236  1  0.99282256  0.13001785  0.24479250  1
  O  O237  1  0.99891041  0.13605734  0.74367172  1
  O  O238  1  0.99511855  0.62992458  0.24451915  1
  O  O239  1  0.98938016  0.63057867  0.74997242  1
  O  O240  1  0.36559194  0.25055620  0.00583288  1
  O  O241  1  0.36959616  0.25506479  0.50455499  1
  O  O242  1  0.37546438  0.75841834  0.00695947  1
  O  O243  1  0.36608812  0.75373121  0.50802635  1
  O  O244  1  0.86935672  0.25413270  0.00594821  1
  O  O245  1  0.86899797  0.25436339  0.50364260  1
  O  O246  1  0.86867603  0.74913139  0.00685006  1
  O  O247  1  0.86709370  0.75055182  0.50747645  1
  O  O248  1  0.12985603  0.24479757  0.49433901  1
  O  O249  1  0.13229893  0.24905301  0.99322115  1
  O  O250  1  0.14048272  0.75067951  0.49823014  1
  O  O251  1  0.12594213  0.74214141  0.99354965  1
  O  O252  1  0.63007267  0.24493384  0.49350885  1
  O  O253  1  0.63117342  0.24376482  0.99502618  1
  O  O254  1  0.62863390  0.74299044  0.49634425  1
  O  O255  1  0.62957777  0.74511204  0.99572321  1
  O  O256  1  0.49527140  0.24590328  0.12913709  1
  O  O257  1  0.49202997  0.24716011  0.62761074  1
  O  O258  1  0.49667255  0.74552429  0.13027479  1
  O  O259  1  0.48886737  0.75353596  0.62993488  1
  O  O260  1  0.99386072  0.24462984  0.12987472  1
  O  O261  1  0.99524968  0.24488934  0.63177558  1
  O  O262  1  0.99482087  0.74417322  0.12993859  1
  O  O263  1  0.99300735  0.74992836  0.63308454  1
  O  O264  1  0.00380566  0.25489089  0.36906417  1
  O  O265  1  0.00706625  0.24911788  0.86710037  1
  O  O266  1  0.00162386  0.75648130  0.36774058  1
  O  O267  1  0.00486348  0.75447566  0.87013253  1
  O  O268  1  0.50540033  0.25613445  0.36876630  1
  O  O269  1  0.50549626  0.25842022  0.87526627  1
  O  O270  1  0.50554876  0.75619460  0.37011696  1
  O  O271  1  0.50439139  0.75673464  0.87077223  1
  O  O272  1  0.24347257  0.13215927  0.49812750  1
  O  O273  1  0.24797572  0.13752830  0.99956625  1
  O  O274  1  0.25196450  0.63519097  0.49045963  1
  O  O275  1  0.24273518  0.62548816  0.99403000  1
  O  O276  1  0.74486410  0.12981619  0.49257656  1
  O  O277  1  0.74441039  0.13031057  0.99565046  1
  O  O278  1  0.73790222  0.63130463  0.49980128  1
  O  O279  1  0.74309620  0.63096349  0.99983653  1
  O  O280  1  0.25126871  0.36432093  0.00616116  1
  O  O281  1  0.25671463  0.36902686  0.50545448  1
  O  O282  1  0.25775229  0.87411731  0.00660951  1
  O  O283  1  0.25283214  0.86900517  0.50760004  1
  O  O284  1  0.75400164  0.36923818  0.00594180  1
  O  O285  1  0.75607659  0.36682122  0.49992542  1
  O  O286  1  0.75076560  0.86772737  0.00811482  1
  O  O287  1  0.75065392  0.86774869  0.50769221  1
  O  O288  1  0.13234287  0.49964624  0.24282037  1
  O  O289  1  0.13885367  0.49610272  0.75331413  1
  O  O290  1  0.12486272  0.99320253  0.24311587  1
  O  O291  1  0.13760741  1.00064689  0.74833003  1
  O  O292  1  0.62957802  0.49437687  0.24452471  1
  O  O293  1  0.63228090  0.50309706  0.74097433  1
  O  O294  1  0.63071502  0.99522716  0.24470101  1
  O  O295  1  0.62499007  0.99274682  0.74337672  1
  O  O296  1  0.37741345  0.00680207  0.25892838  1
  O  O297  1  0.36736524  0.00630327  0.75421590  1
  O  O298  1  0.36847585  0.50305317  0.25704305  1
  O  O299  1  0.36499319  0.50086269  0.75712863  1
  O  O300  1  0.86949773  0.00521598  0.25494267  1
  O  O301  1  0.87471912  0.00157417  0.76351736  1
  O  O302  1  0.86925113  0.50425823  0.25427446  1
  O  O303  1  0.86476294  0.50767376  0.74820061  1
  O  O304  1  0.11776922  0.36744930  0.37274569  1
  O  O305  1  0.12182019  0.36098109  0.87293699  1
  O  O306  1  0.11897987  0.87383002  0.36760572  1
  O  O307  1  0.11906200  0.86783318  0.87318795  1
  O  O308  1  0.61967307  0.36992963  0.36950972  1
  O  O309  1  0.61652565  0.36866491  0.87408883  1
  O  O310  1  0.62071497  0.87019264  0.36910210  1
  O  O311  1  0.61828577  0.87050738  0.87084979  1
  O  O312  1  0.38174934  0.13083915  0.12995562  1
  O  O313  1  0.37617160  0.13012227  0.63357488  1
  O  O314  1  0.38307357  0.63209729  0.12546822  1
  O  O315  1  0.37443458  0.63866321  0.62572729  1
  O  O316  1  0.87932508  0.12961563  0.13040848  1
  O  O317  1  0.88199967  0.13160105  0.62552058  1
  O  O318  1  0.88108877  0.62980097  0.13135657  1
  O  O319  1  0.87216052  0.63186028  0.63699047  1
  O  O320  1  0.25358840  0.25499424  0.11846309  1
  O  O321  1  0.25637238  0.25510357  0.61944292  1
  O  O322  1  0.25789721  0.75743488  0.12308634  1
  O  O323  1  0.25714495  0.75772988  0.61962123  1
  O  O324  1  0.75483244  0.25453558  0.11970675  1
  O  O325  1  0.75567034  0.24965736  0.61766108  1
  O  O326  1  0.75494142  0.75480974  0.12063452  1
  O  O327  1  0.75406242  0.75567818  0.62093574  1
  O  O328  1  0.24337423  0.24959105  0.38177481  1
  O  O329  1  0.24299391  0.24995891  0.88315272  1
  O  O330  1  0.25348026  0.74473007  0.38275503  1
  O  O331  1  0.24396200  0.74304008  0.87633705  1
  O  O332  1  0.74439695  0.24392899  0.37872638  1
  O  O333  1  0.74527069  0.24418106  0.88097029  1
  O  O334  1  0.74251875  0.74869148  0.38166539  1
  O  O335  1  0.74207910  0.75010058  0.88193146  1
  O  O336  1  0.00115329  0.11818822  0.00790491  1
  O  O337  1  0.00523571  0.11961612  0.50452481  1
  O  O338  1  0.00490909  0.61897363  0.00599120  1
  O  O339  1  0.00409246  0.62376335  0.50306485  1
  O  O340  1  0.50520139  0.12031266  0.00522453  1
  O  O341  1  0.50828216  0.11884059  0.50001975  1
  O  O342  1  0.50661577  0.61954814  0.00582251  1
  O  O343  1  0.51134836  0.62472294  0.50288900  1
  O  O344  1  0.49270273  0.37667118  0.49264965  1
  O  O345  1  0.50064776  0.38090588  0.98962186  1
  O  O346  1  0.49871569  0.88220532  0.49176893  1
  O  O347  1  0.49529089  0.88191622  0.99548150  1
  O  O348  1  0.99084631  0.37375636  0.49189182  1
  O  O349  1  0.99248765  0.38098272  1.00109014  1
  O  O350  1  0.99966831  0.88071978  0.49377512  1
  O  O351  1  0.99778919  0.88154180  0.99321355  1
  O  O352  1  0.49360375  0.49373228  0.37644201  1
  O  O353  1  0.49673460  0.49262763  0.87944828  1
  O  O354  1  0.49378516  0.99594942  0.37882300  1
  O  O355  1  0.49460841  0.99460866  0.88129806  1
  O  O356  1  0.99191439  0.49251965  0.37370390  1
  O  O357  1  0.99761138  0.49647126  0.88293641  1
  O  O358  1  0.99420510  0.99454874  0.37999192  1
  O  O359  1  0.99390356  0.99606137  0.87926241  1
  O  O360  1  0.00413566  0.00418616  0.11992556  1
  O  O361  1  0.00129538  0.00575228  0.61970890  1
  O  O362  1  0.00538177  0.50583595  0.12039061  1
  O  O363  1  0.00304900  0.50346263  0.62301585  1
  O  O364  1  0.50597794  0.00632849  0.12014977  1
  O  O365  1  0.50657674  0.00008886  0.61730855  1
  O  O366  1  0.50568571  0.50431075  0.12027374  1
  O  O367  1  0.50959750  0.50266250  0.62483180  1
  O  O368  1  0.24817820  0.38262117  0.24339982  1
  O  O369  1  0.25097740  0.38280458  0.74508689  1
  O  O370  1  0.24367673  0.87794476  0.24301562  1
  O  O371  1  0.25079766  0.88466474  0.74212511  1
  O  O372  1  0.74400874  0.37918311  0.24394212  1
  O  O373  1  0.74762745  0.38671845  0.74719684  1
  O  O374  1  0.74519625  0.88006428  0.24502898  1
  O  O375  1  0.74183712  0.87638638  0.74409794  1
  O  O376  1  0.25915710  0.12271872  0.25272959  1
  O  O377  1  0.25971474  0.11606579  0.74916536  1
  O  O378  1  0.25342833  0.62157288  0.25849691  1
  O  O379  1  0.25282315  0.61454000  0.75809330  1
  O  O380  1  0.75480959  0.11927581  0.25456539  1
  O  O381  1  0.75338634  0.12038040  0.75947126  1
  O  O382  1  0.75633091  0.61766711  0.25083665  1
  O  O383  1  0.75699129  0.61747437  0.75100823  1
  O  O384  1  0.37668971  0.11652459  0.36872683  1
  O  O385  1  0.37290853  0.11912849  0.86597808  1
  O  O386  1  0.36580360  0.62076812  0.37391977  1
  O  O387  1  0.36863870  0.61770721  0.87553123  1
  O  O388  1  0.86938366  0.11923695  0.36882710  1
  O  O389  1  0.86964929  0.11508683  0.87575599  1
  O  O390  1  0.87257733  0.61836150  0.36767369  1
  O  O391  1  0.87130818  0.62337421  0.86160358  1
  O  O392  1  0.13179387  0.38256682  0.12710431  1
  O  O393  1  0.13569785  0.37519689  0.62837550  1
  O  O394  1  0.13004502  0.88034968  0.12954237  1
  O  O395  1  0.13861804  0.87641159  0.62759966  1
  O  O396  1  0.62978054  0.37976878  0.13017714  1
  O  O397  1  0.62619468  0.38675827  0.62533534  1
  O  O398  1  0.63044614  0.88098968  0.13071720  1
  O  O399  1  0.62969913  0.87946509  0.63051923  1
  O  O400  1  0.11725895  0.25087969  0.25615942  1
  O  O401  1  0.11742575  0.24954659  0.75784642  1
  O  O402  1  0.11811640  0.75708181  0.25003616  1
  O  O403  1  0.11865221  0.74994159  0.75791645  1
  O  O404  1  0.61974462  0.25560100  0.25467435  1
  O  O405  1  0.62281078  0.25072905  0.75762783  1
  O  O406  1  0.62105773  0.75544413  0.25521440  1
  O  O407  1  0.61859879  0.75608696  0.75512535  1
  O  O408  1  0.38081383  0.24622031  0.24480031  1
  O  O409  1  0.37438221  0.23976473  0.74538669  1
  O  O410  1  0.38418375  0.75051899  0.24302042  1
  O  O411  1  0.37889984  0.75105036  0.74102515  1
  O  O412  1  0.87889886  0.24376981  0.24408179  1
  O  O413  1  0.88363749  0.24827477  0.74447105  1
  O  O414  1  0.88036546  0.74374399  0.24426987  1
  O  O415  1  0.87874229  0.74236177  0.74626052  1
  O  O416  1  0.37538177  0.49388988  0.49444020  1
  O  O417  1  0.38304938  0.49714742  0.99396452  1
  O  O418  1  0.38142405  1.00089180  0.48987089  1
  O  O419  1  0.38076814  0.99645205  0.99524379  1
  O  O420  1  0.87291941  0.49305608  0.49287311  1
  O  O421  1  0.88018511  0.49419406  0.99988514  1
  O  O422  1  0.88196224  0.99817069  0.49262777  1
  O  O423  1  0.88117109  0.99767460  0.99002399  1
  O  O424  1  0.11892141  0.00188925  0.00612232  1
  O  O425  1  0.11865891  0.00694025  0.50104048  1
  O  O426  1  0.11943222  0.50482633  0.00579909  1
  O  O427  1  0.12139896  0.50228832  0.50154540  1
  O  O428  1  0.61957923  0.00517294  0.00570503  1
  O  O429  1  0.62070664  0.00523791  0.50393781  1
  O  O430  1  0.62059118  0.50513226  0.00575231  1
  O  O431  1  0.62513185  0.50839744  0.50817702  1
  O  O432  1  0.36887359  0.36829131  0.12306061  1
  O  O433  1  0.36988775  0.36886919  0.61990912  1
  O  O434  1  0.37159217  0.87157337  0.12002893  1
  O  O435  1  0.36495986  0.86706779  0.62329262  1
  O  O436  1  0.86830678  0.36854802  0.12014828  1
  O  O437  1  0.87176414  0.36657207  0.61705458  1
  O  O438  1  0.86849967  0.86777269  0.12453960  1
  O  O439  1  0.86767459  0.86781365  0.62514352  1
  O  O440  1  0.12522653  0.13180317  0.38145875  1
  O  O441  1  0.12797347  0.13764698  0.87763322  1
  O  O442  1  0.14001547  0.62903112  0.37488447  1
  O  O443  1  0.13036537  0.62945492  0.88111921  1
  O  O444  1  0.63077958  0.13062041  0.37874930  1
  O  O445  1  0.62944279  0.12847984  0.88164125  1
  O  O446  1  0.62583853  0.63042993  0.38468655  1
  O  O447  1  0.62488519  0.63294358  0.88217433  1
