# generated using pymatgen
data_V3Zn3O8
_symmetry_space_group_name_H-M   'P 1'
_cell_length_a   17.08339873
_cell_length_b   17.08405938
_cell_length_c   17.08449560
_cell_angle_alpha   90.00510516
_cell_angle_beta   89.99350191
_cell_angle_gamma   90.00421434
_symmetry_Int_Tables_number   1
_chemical_formula_structural   V3Zn3O8
_chemical_formula_sum   'V96 Zn96 O256'
_cell_volume   4986.17486792
_cell_formula_units_Z   32
loop_
 _symmetry_equiv_pos_site_id
 _symmetry_equiv_pos_as_xyz
  1  'x, y, z'
loop_
 _atom_site_type_symbol
 _atom_site_label
 _atom_site_symmetry_multiplicity
 _atom_site_fract_x
 _atom_site_fract_y
 _atom_site_fract_z
 _atom_site_occupancy
  V  V0  1  0.25000652  0.24971316  -0.00123979  1
  V  V1  1  0.49961872  -0.00076459  -0.00058918  1
  V  V2  1  0.12256118  0.75252273  0.87398390  1
  V  V3  1  0.37572985  0.49957032  0.87633102  1
  V  V4  1  0.87644156  0.87547636  -0.00216586  1
  V  V5  1  0.25088962  0.12380116  0.37440777  1
  V  V6  1  0.24803091  0.00025300  0.74914980  1
  V  V7  1  0.87365173  0.37534791  0.49869305  1
  V  V8  1  0.75034451  0.62476408  0.87601982  1
  V  V9  1  -0.00019135  0.37540289  0.37525994  1
  V  V10  1  0.74944986  0.49955488  0.74971502  1
  V  V11  1  0.25065433  0.50024026  0.75029194  1
  V  V12  1  0.12464380  0.37524548  0.74920867  1
  V  V13  1  0.62572620  0.37582047  0.74938492  1
  V  V14  1  0.24843680  0.74882796  0.50066389  1
  V  V15  1  0.49938236  0.87500614  0.37661766  1
  V  V16  1  0.62480254  -0.00008052  0.12573352  1
  V  V17  1  0.62467289  0.74972690  0.37568866  1
  V  V18  1  0.75038023  0.25030290  0.00061621  1
  V  V19  1  -0.00003204  0.37684225  0.87317067  1
  V  V20  1  0.50062875  0.62412780  0.62515221  1
  V  V21  1  0.87468198  0.62459362  0.25011261  1
  V  V22  1  0.87424101  0.75165946  0.62460038  1
  V  V23  1  0.87378567  0.74930808  0.12476088  1
  V  V24  1  0.50039677  0.50038750  0.00025543  1
  V  V25  1  0.62594940  0.74942619  0.87595934  1
  V  V26  1  0.00065878  0.62524742  0.62380265  1
  V  V27  1  0.87492387  0.62579192  0.74949879  1
  V  V28  1  0.00032941  0.87471298  0.37363311  1
  V  V29  1  0.37402354  -0.00018908  0.37549822  1
  V  V30  1  0.37582249  0.87493885  0.00010090  1
  V  V31  1  0.37653867  0.24872357  0.12607115  1
  V  V32  1  0.62316022  0.37364793  0.25041069  1
  V  V33  1  0.25023968  0.37462404  0.12544070  1
  V  V34  1  0.87490916  0.12474190  0.24945668  1
  V  V35  1  0.00015259  0.00140284  0.49920584  1
  V  V36  1  0.12495742  0.62346490  0.00119769  1
  V  V37  1  0.37522893  0.24983365  0.62564722  1
  V  V38  1  0.25010584  0.62508813  0.87567132  1
  V  V39  1  0.74963441  0.25174622  0.50006770  1
  V  V40  1  0.12502696  -0.00051260  0.12454130  1
  V  V41  1  0.49987932  0.37396399  0.37357818  1
  V  V42  1  0.37507535  0.12541049  0.74909969  1
  V  V43  1  0.74951969  0.49933990  0.24896204  1
  V  V44  1  0.62390475  0.12438020  0.50079048  1
  V  V45  1  0.87516116  0.87497797  0.50060519  1
  V  V46  1  0.00058453  0.12533947  0.12455116  1
  V  V47  1  0.50088821  0.74951897  0.75143993  1
  V  V48  1  0.75047408  0.37400392  0.12471189  1
  V  V49  1  0.62607520  -0.00033871  0.62587086  1
  V  V50  1  0.62430278  0.62464505  0.49972691  1
  V  V51  1  -0.00049281  0.74989999  0.25059812  1
  V  V52  1  0.49936008  0.74963454  0.25031934  1
  V  V53  1  0.75128062  0.12474047  0.87422478  1
  V  V54  1  0.00054244  0.24963633  0.24955009  1
  V  V55  1  0.37495873  0.62542703  0.25070806  1
  V  V56  1  0.37439328  0.50042315  0.37409981  1
  V  V57  1  0.00073167  0.62305939  0.12551656  1
  V  V58  1  0.62525911  0.12438665  -0.00041988  1
  V  V59  1  0.49972942  0.24958836  0.74999935  1
  V  V60  1  0.24997820  0.37607029  0.62451541  1
  V  V61  1  0.74929199  0.12461823  0.37534902  1
  V  V62  1  0.62532301  0.87550180  0.25096808  1
  V  V63  1  0.24903941  0.87524979  0.62662397  1
  V  V64  1  0.74882311  0.62517371  0.37503854  1
  V  V65  1  0.12374859  0.12473162  0.49926866  1
  V  V66  1  0.87515746  -0.00014248  0.37445908  1
  V  V67  1  0.37518008  -0.00018359  0.87442147  1
  V  V68  1  0.37528338  0.37512056  0.49935048  1
  V  V69  1  0.87484277  0.12520503  0.75049931  1
  V  V70  1  0.62495006  0.50039495  0.12403300  1
  V  V71  1  0.87458412  0.49943375  0.37496390  1
  V  V72  1  0.24928273  0.87489874  0.12577810  1
  V  V73  1  0.87450570  0.25052140  0.12474661  1
  V  V74  1  0.74919727  -0.00026939  0.24978307  1
  V  V75  1  0.62462305  0.24906741  0.87415482  1
  V  V76  1  0.37486180  0.87440770  0.50085647  1
  V  V77  1  0.37449778  0.75020400  0.62649781  1
  V  V78  1  0.12475044  0.50193131  0.62356996  1
  V  V79  1  0.12579361  0.24991342  0.37410226  1
  V  V80  1  0.24962965  0.62550392  0.37620865  1
  V  V81  1  0.62663357  0.87532787  0.75016734  1
  V  V82  1  0.74987658  0.74878330  0.00051587  1
  V  V83  1  0.87624452  0.49964442  0.87474389  1
  V  V84  1  0.49916902  0.12509832  0.12500281  1
  V  V85  1  0.12456151  0.12541890  -0.00098907  1
  V  V86  1  0.12584204  0.49938997  0.12545098  1
  V  V87  1  0.25066693  0.74969842  0.00068370  1
  V  V88  1  0.25018441  0.25054122  0.49922026  1
  V  V89  1  0.37564979  0.62521881  0.75091820  1
  V  V90  1  0.12410296  0.87428217  0.24883600  1
  V  V91  1  0.00105497  0.25085109  0.74832026  1
  V  V92  1  0.50005377  0.50005863  0.50060475  1
  V  V93  1  -0.00064001  0.12597520  0.62373398  1
  V  V94  1  0.37546812  0.74944074  0.12597782  1
  V  V95  1  0.12647691  0.37474776  0.24962933  1
  Zn  Zn96  1  0.12238674  0.87641586  0.75002539  1
  Zn  Zn97  1  -0.00045753  0.49811624  0.00001583  1
  Zn  Zn98  1  0.12444456  0.74897889  0.37607541  1
  Zn  Zn99  1  0.00075429  0.87988266  0.87277683  1
  Zn  Zn100  1  0.62551462  0.50037711  0.62502444  1
  Zn  Zn101  1  0.24885259  0.12623478  0.87263317  1
  Zn  Zn102  1  0.75211408  -0.00071458  0.75182407  1
  Zn  Zn103  1  0.00028951  0.75527946  0.75024945  1
  Zn  Zn104  1  0.37561267  0.12293528  0.25069073  1
  Zn  Zn105  1  0.49919294  0.12460109  0.62455031  1
  Zn  Zn106  1  0.50014738  -0.00011354  0.50128311  1
  Zn  Zn107  1  0.37590437  0.37469149  -0.00123701  1
  Zn  Zn108  1  0.74889690  0.75095310  0.49995106  1
  Zn  Zn109  1  0.62536427  0.62630015  0.00247096  1
  Zn  Zn110  1  0.87478978  0.25296791  0.62415874  1
  Zn  Zn111  1  0.87680796  0.00045898  0.87629327  1
  Zn  Zn112  1  0.00011756  0.50005338  0.49906299  1
  Zn  Zn113  1  0.25091697  0.50031521  0.25007754  1
  Zn  Zn114  1  0.50121371  0.62553945  0.12585397  1
  Zn  Zn115  1  0.87653181  0.37605869  -0.00031573  1
  Zn  Zn116  1  0.12385805  0.62538759  0.49789331  1
  Zn  Zn117  1  0.12354047  -0.00119760  0.62512618  1
  Zn  Zn118  1  0.50040316  0.87419600  0.87614917  1
  Zn  Zn119  1  0.50070220  0.24778472  0.25104974  1
  Zn  Zn120  1  0.12550295  0.25153299  0.87375147  1
  Zn  Zn121  1  0.62094124  0.24882526  0.37358947  1
  Zn  Zn122  1  0.74964564  0.87470569  0.12490330  1
  Zn  Zn123  1  0.75071321  0.37805474  0.62332537  1
  Zn  Zn124  1  -0.00117876  -0.00049426  -0.00134177  1
  Zn  Zn125  1  0.24984913  -0.00025021  0.24971543  1
  Zn  Zn126  1  0.49820029  0.37417224  0.87550290  1
  Zn  Zn127  1  0.75144513  0.87522229  0.62389196  1
  Zn  Zn128  1  0.18991978  0.18523532  0.18811450  1
  Zn  Zn129  1  0.18652081  0.18711201  0.68520737  1
  Zn  Zn130  1  0.18778563  0.68715684  0.18946437  1
  Zn  Zn131  1  0.18712111  0.68782553  0.68859810  1
  Zn  Zn132  1  0.68592613  0.18788261  0.18770102  1
  Zn  Zn133  1  0.68921940  0.18860401  0.68634665  1
  Zn  Zn134  1  0.68679841  0.68703378  0.18700654  1
  Zn  Zn135  1  0.68821025  0.68666695  0.68736987  1
  Zn  Zn136  1  0.31332964  0.31207209  0.31115226  1
  Zn  Zn137  1  0.31333314  0.31411241  0.81357812  1
  Zn  Zn138  1  0.31066660  0.81185492  0.31313822  1
  Zn  Zn139  1  0.31148606  0.81399974  0.81389544  1
  Zn  Zn140  1  0.81064589  0.31173039  0.31316573  1
  Zn  Zn141  1  0.81280614  0.31189196  0.81269898  1
  Zn  Zn142  1  0.81163209  0.81223718  0.31281619  1
  Zn  Zn143  1  0.81180828  0.81129608  0.81280902  1
  Zn  Zn144  1  0.18702697  0.43992651  0.43779805  1
  Zn  Zn145  1  0.18692868  0.43693454  0.93814185  1
  Zn  Zn146  1  0.18658224  0.93588614  0.43786804  1
  Zn  Zn147  1  0.18972212  0.93837747  0.93791724  1
  Zn  Zn148  1  0.68521506  0.43810177  0.43522648  1
  Zn  Zn149  1  0.68776039  0.43700082  0.93690789  1
  Zn  Zn150  1  0.68948720  0.93628686  0.43874333  1
  Zn  Zn151  1  0.69063992  0.93749147  0.93668645  1
  Zn  Zn152  1  0.31164465  0.06186110  0.06247273  1
  Zn  Zn153  1  0.31124992  0.06281600  0.56243072  1
  Zn  Zn154  1  0.31324463  0.56263781  0.06362242  1
  Zn  Zn155  1  0.31304066  0.56329757  0.56194147  1
  Zn  Zn156  1  0.81162942  0.06156531  0.06271451  1
  Zn  Zn157  1  0.81237627  0.06247302  0.56458889  1
  Zn  Zn158  1  0.81356668  0.56112381  0.06075065  1
  Zn  Zn159  1  0.81077314  0.56198296  0.56198207  1
  Zn  Zn160  1  0.43761627  0.43693401  0.18653787  1
  Zn  Zn161  1  0.43869780  0.43683628  0.68816423  1
  Zn  Zn162  1  0.43770768  0.93701684  0.18840058  1
  Zn  Zn163  1  0.43909953  0.93791549  0.68759780  1
  Zn  Zn164  1  0.93842386  0.43691879  0.18782836  1
  Zn  Zn165  1  0.93579705  0.43823001  0.68533176  1
  Zn  Zn166  1  0.93779915  0.93734073  0.18415020  1
  Zn  Zn167  1  0.94095084  0.93876899  0.68891207  1
  Zn  Zn168  1  0.06342119  0.06144609  0.31130147  1
  Zn  Zn169  1  0.06013157  0.06288134  0.81551802  1
  Zn  Zn170  1  0.06406521  0.56179587  0.31253625  1
  Zn  Zn171  1  0.06213513  0.56422913  0.81048776  1
  Zn  Zn172  1  0.56017385  0.06252589  0.31262573  1
  Zn  Zn173  1  0.56102683  0.06270547  0.81252097  1
  Zn  Zn174  1  0.56157230  0.56160668  0.31211073  1
  Zn  Zn175  1  0.56346336  0.56280519  0.81508286  1
  Zn  Zn176  1  0.43829467  0.18751062  0.43817990  1
  Zn  Zn177  1  0.43761431  0.18535756  0.93572186  1
  Zn  Zn178  1  0.43670553  0.68754714  0.43811712  1
  Zn  Zn179  1  0.43930862  0.68658372  0.93811993  1
  Zn  Zn180  1  0.93661907  0.18864755  0.43637347  1
  Zn  Zn181  1  0.93845107  0.19126464  0.93600569  1
  Zn  Zn182  1  0.93687377  0.68790681  0.43817340  1
  Zn  Zn183  1  0.93868807  0.68662041  0.93888137  1
  Zn  Zn184  1  0.06189519  0.31386572  0.06154454  1
  Zn  Zn185  1  0.06136861  0.31305191  0.56193669  1
  Zn  Zn186  1  0.06089742  0.81096103  0.06211933  1
  Zn  Zn187  1  0.06375047  0.81370064  0.56224772  1
  Zn  Zn188  1  0.56263125  0.31422026  0.06178285  1
  Zn  Zn189  1  0.56191853  0.31252569  0.56396936  1
  Zn  Zn190  1  0.56263483  0.81320284  0.06373621  1
  Zn  Zn191  1  0.56146039  0.81166076  0.56292024  1
  O  O192  1  0.12066935  0.12057912  0.11823090  1
  O  O193  1  0.11794958  0.12369909  0.61607010  1
  O  O194  1  0.12063541  0.61969648  0.12132346  1
  O  O195  1  0.11584418  0.62087766  0.62537063  1
  O  O196  1  0.61960367  0.11938317  0.11875211  1
  O  O197  1  0.62597761  0.11722935  0.61693581  1
  O  O198  1  0.62249313  0.61597494  0.12356320  1
  O  O199  1  0.61759220  0.62465102  0.61892852  1
  O  O200  1  0.37910791  0.38007029  0.38044913  1
  O  O201  1  0.37735815  0.38378432  0.87789156  1
  O  O202  1  0.37870152  0.88153838  0.38107745  1
  O  O203  1  0.37696455  0.88110719  0.88226906  1
  O  O204  1  0.88005535  0.37998894  0.37811080  1
  O  O205  1  0.88279091  0.38158599  0.87333841  1
  O  O206  1  0.88055588  0.88078183  0.37956080  1
  O  O207  1  0.87513758  0.87422126  0.88639338  1
  O  O208  1  0.25938219  0.00426873  0.37619465  1
  O  O209  1  0.25651103  0.00152151  0.86512521  1
  O  O210  1  0.25742835  0.50670507  0.37421602  1
  O  O211  1  0.25489052  0.50574460  0.87011860  1
  O  O212  1  0.75603366  0.00535518  0.36969556  1
  O  O213  1  0.75367057  0.01006481  0.87193930  1
  O  O214  1  0.75466926  0.50544717  0.36772612  1
  O  O215  1  0.75605985  0.50514530  0.86942773  1
  O  O216  1  0.24439360  0.49257071  0.12657122  1
  O  O217  1  0.24624559  0.49539034  0.63075631  1
  O  O218  1  0.24384438  0.99244090  0.12609228  1
  O  O219  1  0.24998976  0.99449203  0.63406406  1
  O  O220  1  0.74573651  0.49374292  0.13005560  1
  O  O221  1  0.74600965  0.49922257  0.63390597  1
  O  O222  1  0.74221094  0.99961335  0.13288505  1
  O  O223  1  0.73802953  0.99805297  0.62848725  1
  O  O224  1  0.00625178  0.36818306  0.25537099  1
  O  O225  1  0.00541631  0.37104495  0.75303593  1
  O  O226  1  0.00350853  0.86947959  0.25390407  1
  O  O227  1  0.00515802  0.87250345  0.75490510  1
  O  O228  1  0.50588682  0.37404954  0.25585815  1
  O  O229  1  0.50917142  0.36935175  0.75191275  1
  O  O230  1  0.50561127  0.86961871  0.25709553  1
  O  O231  1  0.51086222  0.86847854  0.75100639  1
  O  O232  1  0.49672634  0.12717297  0.24121846  1
  O  O233  1  0.49349693  0.13171919  0.74734715  1
  O  O234  1  0.49277119  0.63225173  0.25028255  1
  O  O235  1  0.49490804  0.62963714  0.74552180  1
  O  O236  1  0.99503331  0.13076313  0.24487953  1
  O  O237  1  0.99355210  0.13079739  0.74480910  1
  O  O238  1  0.99378429  0.62959602  0.24546266  1
  O  O239  1  0.99394161  0.62780772  0.73855569  1
  O  O240  1  0.36626018  0.24858653  0.00801734  1
  O  O241  1  0.36927917  0.25570556  0.50519885  1
  O  O242  1  0.37028945  0.75448597  0.00520452  1
  O  O243  1  0.36940565  0.75496314  0.50728869  1
  O  O244  1  0.86813354  0.25096134  0.00743064  1
  O  O245  1  0.86437552  0.25548428  0.49809143  1
  O  O246  1  0.86982753  0.75562929  0.00525116  1
  O  O247  1  0.87475794  0.75595975  0.50932280  1
  O  O248  1  0.13077067  0.24554046  0.49332057  1
  O  O249  1  0.13468498  0.24181644  1.00238111  1
  O  O250  1  0.13331352  0.74751163  0.49774147  1
  O  O251  1  0.13133536  0.74341850  0.99408646  1
  O  O252  1  0.63221385  0.24088697  0.49988772  1
  O  O253  1  0.62997988  0.24396011  0.99481391  1
  O  O254  1  0.62512169  0.74314334  0.49327218  1
  O  O255  1  0.63118248  0.75006923  0.99432808  1
  O  O256  1  0.49020485  0.24446283  0.12162825  1
  O  O257  1  0.49232964  0.24886203  0.63169113  1
  O  O258  1  0.49326590  0.74959437  0.13237788  1
  O  O259  1  0.49381385  0.74389863  0.63155926  1
  O  O260  1  0.99493145  0.24545961  0.13128414  1
  O  O261  1  0.99805815  0.24395769  0.63041861  1
  O  O262  1  0.99386557  0.74248410  0.13121322  1
  O  O263  1  0.99088195  0.74256989  0.62509004  1
  O  O264  1  0.00595805  0.25496858  0.36862043  1
  O  O265  1  0.00297004  0.25906374  0.86649391  1
  O  O266  1  -0.00062491  0.75661725  0.36823081  1
  O  O267  1  0.01279657  0.74865167  0.87427319  1
  O  O268  1  0.50016259  0.25799927  0.37239721  1
  O  O269  1  0.50695677  0.25059207  0.86884589  1
  O  O270  1  0.50452940  0.75555935  0.37001993  1
  O  O271  1  0.50710922  0.75053928  0.86850441  1
  O  O272  1  0.24413943  0.13161216  0.49453263  1
  O  O273  1  0.24105288  0.13364763  1.00101954  1
  O  O274  1  0.25046461  0.63169799  0.49394844  1
  O  O275  1  0.24517103  0.63053752  0.99514196  1
  O  O276  1  0.74330973  0.13145158  0.49529436  1
  O  O277  1  0.74414104  0.13093325  0.99530083  1
  O  O278  1  0.74271047  0.62608792  0.49210219  1
  O  O279  1  0.74971642  0.63124184  0.99325590  1
  O  O280  1  0.24979733  0.36410241  0.00636200  1
  O  O281  1  0.25568361  0.36997984  0.50469402  1
  O  O282  1  0.25638036  0.86910344  0.00636869  1
  O  O283  1  0.25586530  0.86923861  0.50645377  1
  O  O284  1  0.75094157  0.36758094  0.00669664  1
  O  O285  1  0.75316785  0.36624165  0.49729590  1
  O  O286  1  0.75893890  0.86752824  0.00185410  1
  O  O287  1  0.75917374  0.87175748  0.50290775  1
  O  O288  1  0.12749993  0.49215141  0.24370452  1
  O  O289  1  0.13196829  0.49585326  0.74362653  1
  O  O290  1  0.12593733  0.99243995  0.24251886  1
  O  O291  1  0.13795722  1.00179251  0.74981505  1
  O  O292  1  0.63045792  0.49410019  0.24448299  1
  O  O293  1  0.62976290  0.49068070  0.75161850  1
  O  O294  1  0.62941436  0.99527506  0.24606238  1
  O  O295  1  0.62491291  0.99215945  0.74291738  1
  O  O296  1  0.37300244  -0.00120365  0.26366212  1
  O  O297  1  0.36780456  0.00477175  0.75347799  1
  O  O298  1  0.37420712  0.50655639  0.25648770  1
  O  O299  1  0.37007864  0.50566936  0.75536432  1
  O  O300  1  0.87001925  0.00548406  0.25441880  1
  O  O301  1  0.87408251  0.01414634  0.75078768  1
  O  O302  1  0.86882442  0.50503098  0.25469345  1
  O  O303  1  0.86898212  0.50625211  0.75469115  1
  O  O304  1  0.12066491  0.36902131  0.37003301  1
  O  O305  1  0.11858660  0.37543096  0.86654903  1
  O  O306  1  0.11732796  0.87381289  0.36756098  1
  O  O307  1  0.12631308  0.86248396  0.87728113  1
  O  O308  1  0.61714000  0.37382345  0.36811493  1
  O  O309  1  0.62460836  0.36797010  0.86402190  1
  O  O310  1  0.61947911  0.87046380  0.37096356  1
  O  O311  1  0.62450022  0.86941656  0.86551938  1
  O  O312  1  0.38009459  0.13281242  0.12422433  1
  O  O313  1  0.37593745  0.13221039  0.62989860  1
  O  O314  1  0.37592355  0.63264318  0.13241509  1
  O  O315  1  0.38045017  0.63068790  0.63168661  1
  O  O316  1  0.88006937  0.13050204  0.13072879  1
  O  O317  1  0.88033705  0.12769687  0.63370991  1
  O  O318  1  0.88021647  0.62881541  0.13125487  1
  O  O319  1  0.88184232  0.63197585  0.62877644  1
  O  O320  1  0.25748760  0.25307615  0.11722883  1
  O  O321  1  0.25494085  0.25683789  0.61864570  1
  O  O322  1  0.25533984  0.75504644  0.11950088  1
  O  O323  1  0.25655568  0.75470994  0.62188118  1
  O  O324  1  0.75493790  0.25433524  0.12031438  1
  O  O325  1  0.75143199  0.25201562  0.61020427  1
  O  O326  1  0.75658726  0.75058415  0.11948363  1
  O  O327  1  0.76340772  0.74958485  0.62307134  1
  O  O328  1  0.24554868  0.24496261  0.38031770  1
  O  O329  1  0.24884069  0.24904445  0.88707886  1
  O  O330  1  0.24999950  0.74304307  0.38284331  1
  O  O331  1  0.24371867  0.74413080  0.88125247  1
  O  O332  1  0.74723521  0.24321407  0.38490599  1
  O  O333  1  0.74421817  0.24422550  0.88098244  1
  O  O334  1  0.74284887  0.74264380  0.37510773  1
  O  O335  1  0.74515587  0.74331698  0.88049170  1
  O  O336  1  0.01078606  0.12923847  0.00662362  1
  O  O337  1  0.00395257  0.12102727  0.50272235  1
  O  O338  1  0.00719589  0.62280245  0.00834627  1
  O  O339  1  -0.00001657  0.62332703  0.51232529  1
  O  O340  1  0.50610953  0.11856096  0.00482863  1
  O  O341  1  0.51272256  0.12382109  0.50199650  1
  O  O342  1  0.50235223  0.61300867  0.00268091  1
  O  O343  1  0.50398201  0.61969318  0.50520860  1
  O  O344  1  0.49420404  0.37980800  0.49526589  1
  O  O345  1  0.49905140  0.38711908  0.99697822  1
  O  O346  1  0.49274565  0.87546415  0.49393920  1
  O  O347  1  0.49342045  0.88168462  0.99946237  1
  O  O348  1  0.99257554  0.37526037  0.49199990  1
  O  O349  1  0.99842007  0.37681318  0.98967824  1
  O  O350  1  0.99460550  0.88165669  0.49377669  1
  O  O351  1  0.98786197  0.87391857  0.99905461  1
  O  O352  1  0.49353349  0.49427204  0.38127385  1
  O  O353  1  0.49422140  0.50016659  0.88410233  1
  O  O354  1  0.49042652  0.99378342  0.37767018  1
  O  O355  1  0.49346796  0.99840767  0.88185309  1
  O  O356  1  0.99264894  0.49315619  0.37498034  1
  O  O357  1  0.99425773  0.49407864  0.87314617  1
  O  O358  1  0.99338321  0.99527574  0.37894355  1
  O  O359  1  0.99538835  0.99811878  0.88232542  1
  O  O360  1  0.00662281  0.00796771  0.12181470  1
  O  O361  1  0.00126517  0.00810770  0.61654753  1
  O  O362  1  0.00714938  0.50564761  0.12492909  1
  O  O363  1  0.00506267  0.51033084  0.62445853  1
  O  O364  1  0.50472933  0.00490196  0.11938020  1
  O  O365  1  0.51298458  0.00213348  0.62265549  1
  O  O366  1  0.50550421  0.50034345  0.11597916  1
  O  O367  1  0.50026927  0.50686799  0.61862389  1
  O  O368  1  0.24343775  0.37484489  0.24324302  1
  O  O369  1  0.24531258  0.38092919  0.74370981  1
  O  O370  1  0.24251626  0.87482379  0.24315425  1
  O  O371  1  0.25039744  0.88541998  0.74488020  1
  O  O372  1  0.74431845  0.38016342  0.24491261  1
  O  O373  1  0.74083862  0.37917420  0.74921045  1
  O  O374  1  0.74321276  0.88229000  0.25018024  1
  O  O375  1  0.73766036  0.87595150  0.74770142  1
  O  O376  1  0.25349338  0.12083683  0.25872606  1
  O  O377  1  0.25582596  0.11686827  0.74899620  1
  O  O378  1  0.25731060  0.62458481  0.25808632  1
  O  O379  1  0.25653318  0.61924192  0.75535034  1
  O  O380  1  0.75480024  0.11981855  0.25552712  1
  O  O381  1  0.75938848  0.12720363  0.75511954  1
  O  O382  1  0.75539535  0.61874600  0.25502835  1
  O  O383  1  0.75538457  0.61990516  0.75629601  1
  O  O384  1  0.37008331  0.11520066  0.37711361  1
  O  O385  1  0.37160388  0.11793820  0.86769201  1
  O  O386  1  0.36968248  0.61986769  0.37056044  1
  O  O387  1  0.36908019  0.62034457  0.86972146  1
  O  O388  1  0.86986826  0.11930684  0.36876595  1
  O  O389  1  0.87004576  0.12775571  0.86545292  1
  O  O390  1  0.86949992  0.61983527  0.36922396  1
  O  O391  1  0.87052815  0.62066217  0.86864196  1
  O  O392  1  0.13013033  0.37899111  0.13064957  1
  O  O393  1  0.13078101  0.38092441  0.62938846  1
  O  O394  1  0.12941770  0.87936010  0.12838786  1
  O  O395  1  0.13356108  0.87842079  0.62811595  1
  O  O396  1  0.63120085  0.38023551  0.13038841  1
  O  O397  1  0.62649882  0.37665897  0.63772832  1
  O  O398  1  0.62627477  0.88213329  0.13312282  1
  O  O399  1  0.62576564  0.88149391  0.63240646  1
  O  O400  1  0.12044422  0.25417151  0.25474265  1
  O  O401  1  0.12009306  0.25720447  0.75003714  1
  O  O402  1  0.11652821  0.75652480  0.25022238  1
  O  O403  1  0.12632750  0.75130377  0.76298948  1
  O  O404  1  0.62253215  0.25776474  0.25217593  1
  O  O405  1  0.62088966  0.25646552  0.75404728  1
  O  O406  1  0.61940863  0.75544597  0.25612701  1
  O  O407  1  0.62112647  0.75730493  0.75425205  1
  O  O408  1  0.37565997  0.24711303  0.23629902  1
  O  O409  1  0.37883178  0.24576642  0.74504205  1
  O  O410  1  0.38027978  0.74605664  0.24565886  1
  O  O411  1  0.38002049  0.74482240  0.74642605  1
  O  O412  1  0.87997406  0.24381495  0.24539336  1
  O  O413  1  0.88091694  0.24071863  0.74770053  1
  O  O414  1  0.87952231  0.74409816  0.24501927  1
  O  O415  1  0.87589775  0.74448866  0.74057556  1
  O  O416  1  0.38028685  0.49411780  0.49474196  1
  O  O417  1  0.38339840  0.49932904  0.99535771  1
  O  O418  1  0.37585244  0.99395346  0.49163058  1
  O  O419  1  0.37948346  0.99483769  0.99509693  1
  O  O420  1  0.87424930  0.49355567  0.49162740  1
  O  O421  1  0.87795921  0.49703284  0.99054023  1
  O  O422  1  0.88004125  0.99606305  0.49413698  1
  O  O423  1  0.87491138  0.98847705  1.00080447  1
  O  O424  1  0.12659901  0.01095079  0.00575846  1
  O  O425  1  0.11780953  0.00727325  0.49910236  1
  O  O426  1  0.12473984  0.50656715  0.00728964  1
  O  O427  1  0.12163014  0.50312825  0.50844725  1
  O  O428  1  0.62020878  0.00483740  0.00524684  1
  O  O429  1  0.62632363  0.00799920  0.50793142  1
  O  O430  1  0.61708039  0.50052304  0.00484992  1
  O  O431  1  0.61723827  0.50636762  0.50057429  1
  O  O432  1  0.36962587  0.36468153  0.12216038  1
  O  O433  1  0.36904951  0.37033863  0.61963167  1
  O  O434  1  0.36957154  0.86941397  0.12005414  1
  O  O435  1  0.37022686  0.86927866  0.62102327  1
  O  O436  1  0.86851213  0.36788905  0.12558354  1
  O  O437  1  0.87122499  0.37307941  0.61529304  1
  O  O438  1  0.87279397  0.86769145  0.11650661  1
  O  O439  1  0.87626158  0.86673040  0.62050641  1
  O  O440  1  0.12980614  0.13083717  0.37941069  1
  O  O441  1  0.12722599  0.12918175  0.88737175  1
  O  O442  1  0.13346153  0.62729198  0.37669705  1
  O  O443  1  0.13115327  0.63151544  0.88022519  1
  O  O444  1  0.63034792  0.12350312  0.38546414  1
  O  O445  1  0.63033320  0.13002649  0.87993444  1
  O  O446  1  0.62898426  0.62996534  0.37942015  1
  O  O447  1  0.63312798  0.63202145  0.87645888  1
