# generated using pymatgen
data_V3Zn3O8
_symmetry_space_group_name_H-M   'P 1'
_cell_length_a   17.08531618
_cell_length_b   17.08633301
_cell_length_c   17.08692991
_cell_angle_alpha   89.99104461
_cell_angle_beta   90.01041785
_cell_angle_gamma   89.98916012
_symmetry_Int_Tables_number   1
_chemical_formula_structural   V3Zn3O8
_chemical_formula_sum   'V96 Zn96 O256'
_cell_volume   4988.10864780
_cell_formula_units_Z   32
loop_
 _symmetry_equiv_pos_site_id
 _symmetry_equiv_pos_as_xyz
  1  'x, y, z'
loop_
 _atom_site_type_symbol
 _atom_site_label
 _atom_site_symmetry_multiplicity
 _atom_site_fract_x
 _atom_site_fract_y
 _atom_site_fract_z
 _atom_site_occupancy
  V  V0  1  0.49697143  0.37730761  0.37586814  1
  V  V1  1  0.50076369  0.87461676  0.37566565  1
  V  V2  1  0.24906472  0.37396492  0.62446056  1
  V  V3  1  0.25002306  0.74900259  0.50017126  1
  V  V4  1  0.24864034  0.50073419  0.75085956  1
  V  V5  1  0.74708770  0.37442219  0.62474428  1
  V  V6  1  0.12574206  0.50035777  0.12439107  1
  V  V7  1  0.12466613  0.12441985  0.49885127  1
  V  V8  1  0.12433253  0.00115495  0.62296205  1
  V  V9  1  0.12696861  0.87420112  0.25004198  1
  V  V10  1  0.62759393  0.75111690  0.87719769  1
  V  V11  1  0.37461523  0.62288193  0.25233493  1
  V  V12  1  0.12478790  0.24993845  0.87429197  1
  V  V13  1  0.62441050  0.12471021  0.49997933  1
  V  V14  1  0.25222271  0.75137622  0.00036131  1
  V  V15  1  0.87312006  0.24893978  0.62459032  1
  V  V16  1  0.50019986  0.50044867  -0.00122538  1
  V  V17  1  0.62568784  0.50011533  0.12463090  1
  V  V18  1  -0.00090546  0.37509068  0.37515149  1
  V  V19  1  0.75072698  0.74951893  0.00095128  1
  V  V20  1  0.75069772  0.50101475  0.75158475  1
  V  V21  1  0.37485971  0.87371587  0.50004393  1
  V  V22  1  0.37295549  0.25132582  0.62463050  1
  V  V23  1  0.62601547  0.00054910  0.12656418  1
  V  V24  1  0.62312093  0.49931007  0.62530459  1
  V  V25  1  0.75081304  0.12412881  0.87536127  1
  V  V26  1  0.50163502  0.62583995  0.12556419  1
  V  V27  1  0.49948872  0.24970869  0.75038511  1
  V  V28  1  0.25032637  0.12474221  0.37334698  1
  V  V29  1  0.37498653  0.62559075  0.74999684  1
  V  V30  1  0.62485650  0.74885648  0.37620877  1
  V  V31  1  0.50018279  0.24993360  0.24809124  1
  V  V32  1  -0.00351169  0.62570797  0.62552308  1
  V  V33  1  0.12548325  0.75101403  0.87487083  1
  V  V34  1  0.87445010  0.12441128  0.74991700  1
  V  V35  1  0.50072267  0.74956675  0.24993141  1
  V  V36  1  0.12616750  -0.00082384  0.12451566  1
  V  V37  1  0.12630335  0.74840246  0.37583418  1
  V  V38  1  0.00150145  0.74954946  0.25150926  1
  V  V39  1  0.87453814  0.37435209  0.49770029  1
  V  V40  1  0.74895683  0.24941406  0.49994221  1
  V  V41  1  -0.00218901  0.37654697  0.87438699  1
  V  V42  1  0.00043588  0.87652792  0.87499052  1
  V  V43  1  0.12490272  0.62499394  0.50010947  1
  V  V44  1  0.62377350  -0.00068088  0.62582415  1
  V  V45  1  -0.00030103  0.75033124  0.74940283  1
  V  V46  1  0.49961763  0.62370908  0.62609407  1
  V  V47  1  0.37535796  0.50069842  0.87629031  1
  V  V48  1  0.24858040  0.12579619  0.87418898  1
  V  V49  1  0.62555405  0.87566783  0.75011705  1
  V  V50  1  0.62314962  0.62366105  0.50035789  1
  V  V51  1  0.75053658  0.12444256  0.37484083  1
  V  V52  1  0.12494724  0.62587562  0.00057976  1
  V  V53  1  0.37418019  0.12470055  0.74884779  1
  V  V54  1  0.75035954  0.62344271  0.37568283  1
  V  V55  1  0.00052633  0.24999678  0.24901383  1
  V  V56  1  0.87672667  0.75114190  0.12620273  1
  V  V57  1  0.12530436  0.87561895  0.74959569  1
  V  V58  1  0.87549059  0.25125655  0.12483724  1
  V  V59  1  0.00211326  0.62536468  0.12547752  1
  V  V60  1  0.12571441  0.24885978  0.37383739  1
  V  V61  1  0.25049006  0.87427852  0.62418161  1
  V  V62  1  0.12329051  0.49996424  0.62443323  1
  V  V63  1  0.62551181  0.12486548  0.00029211  1
  V  V64  1  0.37431743  0.25003144  0.12274565  1
  V  V65  1  0.37546687  0.87388518  0.00060384  1
  V  V66  1  0.12298653  0.37527443  0.74952988  1
  V  V67  1  0.62595380  0.37516999  0.24817478  1
  V  V68  1  0.12524553  0.37498039  0.24852467  1
  V  V69  1  0.00121717  0.12486850  0.12444901  1
  V  V70  1  -0.00197677  0.25076628  0.74869285  1
  V  V71  1  0.62671491  0.87555443  0.25128292  1
  V  V72  1  0.24924799  0.24989399  -0.00144487  1
  V  V73  1  0.49857078  0.12517842  0.62423939  1
  V  V74  1  0.62232006  0.25071349  0.87417674  1
  V  V75  1  0.37508006  0.00009462  0.87474200  1
  V  V76  1  0.75019419  0.87360914  0.62563879  1
  V  V77  1  0.00000902  0.87517725  0.37656063  1
  V  V78  1  0.37518555  0.00026698  0.37381073  1
  V  V79  1  0.37543873  0.12362763  0.24952713  1
  V  V80  1  0.25008406  -0.00028170  0.74923341  1
  V  V81  1  0.24952632  0.37496316  0.12375055  1
  V  V82  1  0.50061452  -0.00038684  0.00006420  1
  V  V83  1  0.87818413  0.87796865  0.00089042  1
  V  V84  1  0.87540662  0.87487483  0.50082497  1
  V  V85  1  0.50142205  0.87545302  0.87504250  1
  V  V86  1  0.24901023  0.62545738  0.87502700  1
  V  V87  1  0.87541070  0.37727640  -0.00087519  1
  V  V88  1  0.50036540  0.12555590  0.12446677  1
  V  V89  1  0.87510696  0.12455005  0.25051132  1
  V  V90  1  0.75065853  0.00022475  0.25139316  1
  V  V91  1  0.75063292  0.37564011  0.12501269  1
  V  V92  1  0.49937251  -0.00040481  0.49977635  1
  V  V93  1  0.62443070  0.24991714  0.37429049  1
  V  V94  1  0.50016652  0.74947524  0.75083305  1
  V  V95  1  0.87515552  0.62546240  0.25209252  1
  Zn  Zn96  1  0.87763069  0.00171332  0.87587307  1
  Zn  Zn97  1  0.25297714  0.87445514  0.12646522  1
  Zn  Zn98  1  -0.00222428  0.49999763  0.49853012  1
  Zn  Zn99  1  0.12318224  0.12386108  -0.00125804  1
  Zn  Zn100  1  0.25001838  0.62072719  0.37577128  1
  Zn  Zn101  1  0.87405243  0.62736660  0.75318582  1
  Zn  Zn102  1  0.37493946  0.75146293  0.12594295  1
  Zn  Zn103  1  0.87701596  0.00040946  0.37534881  1
  Zn  Zn104  1  0.49793292  0.37546593  0.87416444  1
  Zn  Zn105  1  0.25078490  0.25178839  0.49850630  1
  Zn  Zn106  1  0.75229428  0.62464259  0.87433185  1
  Zn  Zn107  1  0.00110835  0.00323784  -0.00222821  1
  Zn  Zn108  1  0.25088354  0.49974101  0.25091162  1
  Zn  Zn109  1  0.62777609  0.62548802  -0.00024135  1
  Zn  Zn110  1  0.75241746  0.87645512  0.12765374  1
  Zn  Zn111  1  0.87504896  0.50318756  0.87429745  1
  Zn  Zn112  1  0.74895937  0.25081290  0.00041748  1
  Zn  Zn113  1  -0.00027379  0.50298165  -0.00265514  1
  Zn  Zn114  1  0.25219729  -0.00278481  0.24854387  1
  Zn  Zn115  1  0.37502896  0.74873565  0.62504669  1
  Zn  Zn116  1  -0.00032164  0.00075104  0.49971836  1
  Zn  Zn117  1  0.75178655  0.50000510  0.24910375  1
  Zn  Zn118  1  0.75088948  -0.00124350  0.75147014  1
  Zn  Zn119  1  -0.00085778  0.12418143  0.62240733  1
  Zn  Zn120  1  0.62251449  0.37559513  0.75026018  1
  Zn  Zn121  1  0.87307897  0.74943019  0.62763051  1
  Zn  Zn122  1  0.37448242  0.37507572  -0.00142106  1
  Zn  Zn123  1  0.74944135  0.74849414  0.50218071  1
  Zn  Zn124  1  0.37191981  0.37592699  0.49974117  1
  Zn  Zn125  1  0.36995053  0.49784732  0.37782236  1
  Zn  Zn126  1  0.87587296  0.49939368  0.37469525  1
  Zn  Zn127  1  0.49579497  0.49894283  0.50175482  1
  Zn  Zn128  1  0.18886537  0.18607953  0.18671391  1
  Zn  Zn129  1  0.18628550  0.18768306  0.68618112  1
  Zn  Zn130  1  0.19078760  0.68851802  0.18673655  1
  Zn  Zn131  1  0.18602599  0.68785972  0.68592827  1
  Zn  Zn132  1  0.68923659  0.18908292  0.18752755  1
  Zn  Zn133  1  0.68701619  0.18673356  0.68803479  1
  Zn  Zn134  1  0.68845332  0.68777342  0.18725057  1
  Zn  Zn135  1  0.68537914  0.68645855  0.68838481  1
  Zn  Zn136  1  0.31159643  0.31088562  0.30947399  1
  Zn  Zn137  1  0.31268904  0.31477105  0.81224329  1
  Zn  Zn138  1  0.31202849  0.80988347  0.31275493  1
  Zn  Zn139  1  0.31349989  0.81246191  0.81298356  1
  Zn  Zn140  1  0.81227967  0.31178714  0.31158916  1
  Zn  Zn141  1  0.80980488  0.31357377  0.81228053  1
  Zn  Zn142  1  0.81244610  0.81103841  0.31517165  1
  Zn  Zn143  1  0.81517140  0.81219523  0.81372491  1
  Zn  Zn144  1  0.18732010  0.43879752  0.43748139  1
  Zn  Zn145  1  0.18624776  0.43734263  0.93846120  1
  Zn  Zn146  1  0.18851444  0.93788553  0.43637646  1
  Zn  Zn147  1  0.18836769  0.93765234  0.93886892  1
  Zn  Zn148  1  0.68489474  0.43837392  0.43805431  1
  Zn  Zn149  1  0.68767192  0.43697389  0.93806795  1
  Zn  Zn150  1  0.68876347  0.93825191  0.43842820  1
  Zn  Zn151  1  0.68979167  0.93714911  0.93932515  1
  Zn  Zn152  1  0.31061977  0.06253181  0.06110515  1
  Zn  Zn153  1  0.31023959  0.06303759  0.56005305  1
  Zn  Zn154  1  0.31362842  0.56408931  0.06520335  1
  Zn  Zn155  1  0.31355340  0.56008580  0.56165317  1
  Zn  Zn156  1  0.81225845  0.06348484  0.06426307  1
  Zn  Zn157  1  0.81105243  0.05955691  0.56258008  1
  Zn  Zn158  1  0.81428879  0.56295188  0.06493813  1
  Zn  Zn159  1  0.81178149  0.55912528  0.56180566  1
  Zn  Zn160  1  0.43682003  0.43775140  0.18627386  1
  Zn  Zn161  1  0.43662214  0.43615603  0.68988591  1
  Zn  Zn162  1  0.43906910  0.93658880  0.18695419  1
  Zn  Zn163  1  0.43697058  0.93626908  0.68688324  1
  Zn  Zn164  1  0.93847252  0.44079772  0.18786401  1
  Zn  Zn165  1  0.93442327  0.43785799  0.68504553  1
  Zn  Zn166  1  0.94036082  0.93865974  0.18847313  1
  Zn  Zn167  1  0.93863588  0.94001141  0.68673649  1
  Zn  Zn168  1  0.06241716  0.05976057  0.31179650  1
  Zn  Zn169  1  0.06137100  0.06220207  0.81135508  1
  Zn  Zn170  1  0.06310614  0.56007685  0.31312306  1
  Zn  Zn171  1  0.06087473  0.56221199  0.81266205  1
  Zn  Zn172  1  0.56249355  0.06236459  0.31243246  1
  Zn  Zn173  1  0.56250042  0.06274093  0.81158630  1
  Zn  Zn174  1  0.56315482  0.56061240  0.31132126  1
  Zn  Zn175  1  0.56663706  0.56554208  0.81422236  1
  Zn  Zn176  1  0.43572276  0.19020688  0.43802125  1
  Zn  Zn177  1  0.43602202  0.18586585  0.93802235  1
  Zn  Zn178  1  0.43686485  0.68631663  0.43792002  1
  Zn  Zn179  1  0.43823074  0.68675133  0.93770928  1
  Zn  Zn180  1  0.93871676  0.18793106  0.43706832  1
  Zn  Zn181  1  0.93879353  0.19069970  0.93887286  1
  Zn  Zn182  1  0.93666984  0.69017752  0.43996188  1
  Zn  Zn183  1  0.93662006  0.68772165  0.93603224  1
  Zn  Zn184  1  0.06242751  0.31293986  0.06062009  1
  Zn  Zn185  1  0.06133997  0.31012188  0.56076117  1
  Zn  Zn186  1  0.06399258  0.81259090  0.06310851  1
  Zn  Zn187  1  0.06267883  0.81185489  0.56247323  1
  Zn  Zn188  1  0.56243078  0.31435275  0.06024995  1
  Zn  Zn189  1  0.56096706  0.31259564  0.56192164  1
  Zn  Zn190  1  0.56356789  0.81383145  0.06516638  1
  Zn  Zn191  1  0.56235549  0.80951181  0.56309035  1
  O  O192  1  0.11980254  0.11565276  0.12489803  1
  O  O193  1  0.12492652  0.11950558  0.61674549  1
  O  O194  1  0.12118931  0.62112850  0.12007608  1
  O  O195  1  0.11612109  0.62021468  0.62044931  1
  O  O196  1  0.62001401  0.12106292  0.12002990  1
  O  O197  1  0.61894324  0.11980061  0.61952882  1
  O  O198  1  0.61947250  0.61882827  0.12329688  1
  O  O199  1  0.61892286  0.61945615  0.61997566  1
  O  O200  1  0.38674416  0.37253410  0.37220769  1
  O  O201  1  0.37685052  0.38468110  0.87775424  1
  O  O202  1  0.38166013  0.87995767  0.38020526  1
  O  O203  1  0.38206613  0.88149344  0.87928241  1
  O  O204  1  0.88061098  0.37315694  0.38022517  1
  O  O205  1  0.87864698  0.37430225  0.88416713  1
  O  O206  1  0.88025227  0.87449914  0.38513761  1
  O  O207  1  0.88119646  0.87716265  0.88495978  1
  O  O208  1  0.25835611  0.00614808  0.37238385  1
  O  O209  1  0.25538496  0.00515041  0.86862465  1
  O  O210  1  0.25164027  0.50290753  0.36872198  1
  O  O211  1  0.25357478  0.50664017  0.87028771  1
  O  O212  1  0.75101167  0.00754143  0.36923878  1
  O  O213  1  0.75130209  0.01346039  0.87392086  1
  O  O214  1  0.74896114  0.51298531  0.37305356  1
  O  O215  1  0.74973845  0.50013571  0.86408219  1
  O  O216  1  0.24336966  0.49323942  0.12593090  1
  O  O217  1  0.24271758  0.49493972  0.63266024  1
  O  O218  1  0.23921852  0.99815838  0.12643589  1
  O  O219  1  0.24528214  0.99412895  0.63046173  1
  O  O220  1  0.74350274  0.49378872  0.12563047  1
  O  O221  1  0.74305024  0.49380204  0.63177089  1
  O  O222  1  0.74320334  0.99962198  0.13288044  1
  O  O223  1  0.74215119  0.98917414  0.62658330  1
  O  O224  1  0.00510002  0.36863360  0.25390999  1
  O  O225  1  0.00317782  0.36990102  0.75384366  1
  O  O226  1  0.00577922  0.86812769  0.25651177  1
  O  O227  1  0.00640527  0.87066421  0.75449509  1
  O  O228  1  0.50597257  0.36839112  0.25499262  1
  O  O229  1  0.50313582  0.36563506  0.75435921  1
  O  O230  1  0.50679514  0.87043137  0.25693784  1
  O  O231  1  0.50535022  0.87031275  0.75570249  1
  O  O232  1  0.49597847  0.13046547  0.24390658  1
  O  O233  1  0.49345610  0.12868090  0.74358624  1
  O  O234  1  0.49485197  0.63020817  0.24581813  1
  O  O235  1  0.49535053  0.63057994  0.74660619  1
  O  O236  1  0.99467004  0.13076410  0.24495722  1
  O  O237  1  0.98880037  0.13213404  0.75010757  1
  O  O238  1  0.99557842  0.63134919  0.24581643  1
  O  O239  1  1.00114737  0.63111426  0.73997373  1
  O  O240  1  0.36842066  0.25062776  0.00529257  1
  O  O241  1  0.37178006  0.25278730  0.50927981  1
  O  O242  1  0.37024884  0.75631053  -0.00070916  1
  O  O243  1  0.36889550  0.75663545  0.50147605  1
  O  O244  1  0.87368773  0.26153186  0.00624432  1
  O  O245  1  0.86743305  0.25330996  0.50510073  1
  O  O246  1  0.86954753  0.75946949  0.00552449  1
  O  O247  1  0.87156230  0.76310945  0.50526446  1
  O  O248  1  0.12599961  0.24125569  0.49213810  1
  O  O249  1  0.13099848  0.24845589  0.99178165  1
  O  O250  1  0.13061612  0.74533723  0.49510202  1
  O  O251  1  0.13151698  0.74588881  0.99372310  1
  O  O252  1  0.62966192  0.24307664  0.49478396  1
  O  O253  1  0.62465014  0.24285788  0.99086656  1
  O  O254  1  0.62588153  0.74240804  0.49331102  1
  O  O255  1  0.63623361  0.75337966  0.99666465  1
  O  O256  1  0.49544576  0.24484815  0.12823693  1
  O  O257  1  0.49451438  0.24340429  0.63032443  1
  O  O258  1  0.50084138  0.74374733  0.13235437  1
  O  O259  1  0.49908109  0.74305868  0.63362135  1
  O  O260  1  0.99535312  0.24544701  0.13039737  1
  O  O261  1  0.99113289  0.24753132  0.63156522  1
  O  O262  1  0.99670230  0.74462033  0.13201434  1
  O  O263  1  1.00136217  0.74083018  0.63146766  1
  O  O264  1  0.00589616  0.25477845  0.36732836  1
  O  O265  1  0.00488068  0.25675478  0.86795846  1
  O  O266  1  0.00624351  0.75542842  0.37040203  1
  O  O267  1  0.00709820  0.75632700  0.86928519  1
  O  O268  1  0.50551186  0.25621808  0.36809480  1
  O  O269  1  0.50837791  0.24660454  0.86996859  1
  O  O270  1  0.50593749  0.75586646  0.37019321  1
  O  O271  1  0.50705507  0.75643853  0.87111023  1
  O  O272  1  0.24196728  0.12691098  0.49182199  1
  O  O273  1  0.24781726  0.13147312  0.99121431  1
  O  O274  1  0.24268616  0.63147133  0.50122024  1
  O  O275  1  0.24523859  0.63102972  0.99402314  1
  O  O276  1  0.74380156  0.12939086  0.49533713  1
  O  O277  1  0.74516374  0.12767216  0.99146114  1
  O  O278  1  0.74369160  0.62598369  0.49243150  1
  O  O279  1  0.75219296  0.63998533  1.00131236  1
  O  O280  1  0.25065577  0.36770740  0.00577898  1
  O  O281  1  0.24909212  0.37192117  0.50967365  1
  O  O282  1  0.25821880  0.86854462  -0.00103067  1
  O  O283  1  0.25550515  0.86961909  0.50493724  1
  O  O284  1  0.75890054  0.37253692  0.00558773  1
  O  O285  1  0.75313427  0.36784876  0.50385973  1
  O  O286  1  0.76056727  0.86747958  0.00259259  1
  O  O287  1  0.75631514  0.87405757  0.50894460  1
  O  O288  1  0.12548755  0.49263589  0.24147191  1
  O  O289  1  0.12953683  0.49474186  0.74500921  1
  O  O290  1  0.12681621  0.99307434  0.24050256  1
  O  O291  1  0.13128494  0.99496765  0.74401369  1
  O  O292  1  0.62664104  0.49238955  0.24154191  1
  O  O293  1  0.63398948  0.49880508  0.74451191  1
  O  O294  1  0.63026558  0.99565287  0.24598917  1
  O  O295  1  0.62556967  0.99370258  0.74340055  1
  O  O296  1  0.37699130  0.00605036  0.25629521  1
  O  O297  1  0.37006768  0.00476442  0.75508315  1
  O  O298  1  0.37556949  0.51140054  0.25079697  1
  O  O299  1  0.36791819  0.50650994  0.75654178  1
  O  O300  1  0.86886878  0.00688169  0.25077787  1
  O  O301  1  0.87297468  0.01230919  0.75254792  1
  O  O302  1  0.87211113  0.50963258  0.25320136  1
  O  O303  1  0.86141356  0.50023131  0.74913551  1
  O  O304  1  0.11935158  0.36798086  0.36846926  1
  O  O305  1  0.11893162  0.36993220  0.86840054  1
  O  O306  1  0.12016621  0.86843181  0.37052213  1
  O  O307  1  0.12113243  0.87033273  0.86899352  1
  O  O308  1  0.61812876  0.36845797  0.36882091  1
  O  O309  1  0.62389036  0.35986475  0.87515515  1
  O  O310  1  0.62002321  0.86989217  0.37138720  1
  O  O311  1  0.62057398  0.87203509  0.87020977  1
  O  O312  1  0.38127760  0.12936093  0.12897375  1
  O  O313  1  0.37934449  0.12914937  0.62984457  1
  O  O314  1  0.38335954  0.62758485  0.13499383  1
  O  O315  1  0.38096472  0.62559912  0.63341974  1
  O  O316  1  0.88030695  0.13132038  0.13069898  1
  O  O317  1  0.87220861  0.13011818  0.63406995  1
  O  O318  1  0.88182566  0.63200233  0.13125910  1
  O  O319  1  0.88608920  0.62655881  0.62485256  1
  O  O320  1  0.25486176  0.25394763  0.11822424  1
  O  O321  1  0.25570850  0.25666498  0.62628337  1
  O  O322  1  0.25301142  0.75317659  0.11475273  1
  O  O323  1  0.25091966  0.75726058  0.61912260  1
  O  O324  1  0.75725164  0.25679909  0.12310158  1
  O  O325  1  0.75290492  0.25400879  0.61916403  1
  O  O326  1  0.75732006  0.75371889  0.11779592  1
  O  O327  1  0.74863557  0.76275048  0.62498494  1
  O  O328  1  0.24306773  0.24265529  0.37405835  1
  O  O329  1  0.24454957  0.24513274  0.87774667  1
  O  O330  1  0.24317713  0.74679288  0.38296933  1
  O  O331  1  0.24453098  0.74479076  0.87934509  1
  O  O332  1  0.74331215  0.24414943  0.38013699  1
  O  O333  1  0.74006712  0.23950502  0.87476795  1
  O  O334  1  0.74334159  0.73903852  0.37713266  1
  O  O335  1  0.74570614  0.75253036  0.88568125  1
  O  O336  1  0.00186511  0.12396669  0.00814487  1
  O  O337  1  0.00952367  0.12284423  0.50038943  1
  O  O338  1  0.00739342  0.62722845  0.00726439  1
  O  O339  1  0.00534317  0.62609204  0.51032901  1
  O  O340  1  0.50540746  0.11842212  0.00499672  1
  O  O341  1  0.50484227  0.11969715  0.50460467  1
  O  O342  1  0.50170815  0.61564341  0.00598664  1
  O  O343  1  0.50564832  0.62334839  0.50752705  1
  O  O344  1  0.49898025  0.37397604  0.48698745  1
  O  O345  1  0.49790044  0.38861965  0.99796803  1
  O  O346  1  0.49559042  0.88004050  0.49546986  1
  O  O347  1  0.49673689  0.88084643  0.99398050  1
  O  O348  1  0.99227288  0.37313386  0.49305994  1
  O  O349  1  0.99046782  0.37589039  0.99362738  1
  O  O350  1  0.99108812  0.87502863  0.49590214  1
  O  O351  1  0.99108152  0.87336003  0.99436511  1
  O  O352  1  0.50081191  0.48584066  0.37453247  1
  O  O353  1  0.49584839  0.50201398  0.88364943  1
  O  O354  1  0.49568801  0.99476650  0.38103520  1
  O  O355  1  0.49517887  0.99572303  0.88021965  1
  O  O356  1  0.99778712  0.49024171  0.37757711  1
  O  O357  1  0.99679498  0.49166827  0.87668370  1
  O  O358  1  0.99742928  0.99026181  0.37728290  1
  O  O359  1  0.99855967  0.99251358  0.87783975  1
  O  O360  1  0.01037993  0.00613266  0.12431425  1
  O  O361  1  0.00916767  0.00388847  0.62220601  1
  O  O362  1  0.00733922  0.50834821  0.12231236  1
  O  O363  1  0.00497489  0.50955122  0.62519246  1
  O  O364  1  0.50646143  0.00644284  0.11949020  1
  O  O365  1  0.50387824  0.00532879  0.61921610  1
  O  O366  1  0.50555377  0.50480471  0.11683633  1
  O  O367  1  0.50623749  0.50613449  0.62781141  1
  O  O368  1  0.24233318  0.37372518  0.24074201  1
  O  O369  1  0.24214692  0.38151368  0.74559345  1
  O  O370  1  0.24284673  0.87594330  0.24783944  1
  O  O371  1  0.24526433  0.88045157  0.74516311  1
  O  O372  1  0.74366558  0.37578001  0.24342634  1
  O  O373  1  0.74602879  0.38228224  0.74314992  1
  O  O374  1  0.74435230  0.88120245  0.25107911  1
  O  O375  1  0.74492726  0.87656331  0.74240789  1
  O  O376  1  0.25850438  0.12274594  0.25530583  1
  O  O377  1  0.25516478  0.11899417  0.75428445  1
  O  O378  1  0.26269324  0.62534497  0.25092031  1
  O  O379  1  0.25328638  0.62040923  0.75561800  1
  O  O380  1  0.75501695  0.12076849  0.25563811  1
  O  O381  1  0.75780409  0.12439874  0.75796637  1
  O  O382  1  0.75590790  0.62593382  0.25966674  1
  O  O383  1  0.75155067  0.61390657  0.74845275  1
  O  O384  1  0.37163402  0.12028238  0.36936397  1
  O  O385  1  0.36922959  0.11901302  0.86837248  1
  O  O386  1  0.37631821  0.62271986  0.36344547  1
  O  O387  1  0.36854432  0.62015147  0.86941569  1
  O  O388  1  0.86808800  0.12501829  0.36861458  1
  O  O389  1  0.86648687  0.12819774  0.86795013  1
  O  O390  1  0.86576808  0.62682002  0.37185788  1
  O  O391  1  0.87101918  0.62118311  0.87180117  1
  O  O392  1  0.12913327  0.37978916  0.12895847  1
  O  O393  1  0.12762062  0.37939966  0.63117195  1
  O  O394  1  0.12495422  0.88365150  0.13131317  1
  O  O395  1  0.13090910  0.88047908  0.63025539  1
  O  O396  1  0.63048218  0.37925182  0.12867262  1
  O  O397  1  0.63019320  0.38014311  0.62568085  1
  O  O398  1  0.62679164  0.88337554  0.13344239  1
  O  O399  1  0.63127657  0.87946610  0.62941015  1
  O  O400  1  0.11927670  0.25459357  0.25348815  1
  O  O401  1  0.11829426  0.25580667  0.75433241  1
  O  O402  1  0.12008989  0.75394642  0.25555502  1
  O  O403  1  0.12081216  0.75667094  0.75573567  1
  O  O404  1  0.61944109  0.25469752  0.25453542  1
  O  O405  1  0.61820278  0.24689393  0.75943386  1
  O  O406  1  0.62046459  0.75556520  0.25654225  1
  O  O407  1  0.61975930  0.75676922  0.75672821  1
  O  O408  1  0.38142587  0.24272943  0.24211119  1
  O  O409  1  0.37964170  0.24304109  0.74565357  1
  O  O410  1  0.38345182  0.74171601  0.24976852  1
  O  O411  1  0.38215889  0.74354935  0.75035275  1
  O  O412  1  0.88091473  0.24424247  0.24400256  1
  O  O413  1  0.87712869  0.24295676  0.74476962  1
  O  O414  1  0.88173336  0.74575542  0.24574704  1
  O  O415  1  0.88422891  0.74895548  0.74708884  1
  O  O416  1  0.37904571  0.49397322  0.49605345  1
  O  O417  1  0.38448990  0.50159044  0.99496670  1
  O  O418  1  0.38070170  0.99447737  0.49407915  1
  O  O419  1  0.38121477  0.99558212  0.99352275  1
  O  O420  1  0.87645844  0.48934815  0.49671794  1
  O  O421  1  0.87653438  0.48770663  1.00025692  1
  O  O422  1  0.87592882  0.98742354  0.49842930  1
  O  O423  1  0.87621258  0.98847849  1.00096176  1
  O  O424  1  0.12308294  0.00091528  0.01104333  1
  O  O425  1  0.12571239  0.00729460  0.50518004  1
  O  O426  1  0.12332858  0.50831133  0.00582943  1
  O  O427  1  0.12121104  0.50677129  0.50808396  1
  O  O428  1  0.62025713  0.00512907  0.00561033  1
  O  O429  1  0.61848506  0.00536718  0.50552603  1
  O  O430  1  0.61663884  0.50170154  0.00507077  1
  O  O431  1  0.62132497  0.50632346  0.50766416  1
  O  O432  1  0.36857633  0.36727696  0.12312478  1
  O  O433  1  0.36673245  0.36820423  0.62764557  1
  O  O434  1  0.37524498  0.87327637  0.11613511  1
  O  O435  1  0.36882738  0.87374407  0.61794465  1
  O  O436  1  0.87159947  0.37105636  0.11833951  1
  O  O437  1  0.86713529  0.36771532  0.61839015  1
  O  O438  1  0.87689111  0.86936968  0.11721833  1
  O  O439  1  0.86601556  0.87601884  0.61915747  1
  O  O440  1  0.13022116  0.12896448  0.37848572  1
  O  O441  1  0.13109533  0.13192413  0.87352832  1
  O  O442  1  0.12363252  0.63189438  0.38224492  1
  O  O443  1  0.12972643  0.63129327  0.87999705  1
  O  O444  1  0.62939225  0.13039629  0.38035509  1
  O  O445  1  0.63161303  0.13102161  0.87936821  1
  O  O446  1  0.63127196  0.62910880  0.37925377  1
  O  O447  1  0.63103770  0.63600295  0.88005373  1
