# generated using pymatgen
data_V3Zn3O8
_symmetry_space_group_name_H-M   'P 1'
_cell_length_a   17.09113577
_cell_length_b   17.08959334
_cell_length_c   17.08937221
_cell_angle_alpha   90.00639228
_cell_angle_beta   89.99155586
_cell_angle_gamma   89.99887644
_symmetry_Int_Tables_number   1
_chemical_formula_structural   V3Zn3O8
_chemical_formula_sum   'V96 Zn96 O256'
_cell_volume   4991.47332163
_cell_formula_units_Z   32
loop_
 _symmetry_equiv_pos_site_id
 _symmetry_equiv_pos_as_xyz
  1  'x, y, z'
loop_
 _atom_site_type_symbol
 _atom_site_label
 _atom_site_symmetry_multiplicity
 _atom_site_fract_x
 _atom_site_fract_y
 _atom_site_fract_z
 _atom_site_occupancy
  V  V0  1  0.25053256  0.49925516  0.24995998  1
  V  V1  1  0.62433746  0.00019377  0.62444739  1
  V  V2  1  0.37236710  0.87408260  0.50019935  1
  V  V3  1  0.87402367  0.87676399  0.49771607  1
  V  V4  1  -0.00116698  -0.00192036  -0.00177782  1
  V  V5  1  0.62529947  -0.00086203  0.12523030  1
  V  V6  1  -0.00215312  0.87612838  0.37380862  1
  V  V7  1  0.62472142  0.12591774  0.49940637  1
  V  V8  1  0.37417799  0.62444608  0.25058153  1
  V  V9  1  0.25004654  0.12450119  0.37499504  1
  V  V10  1  0.37633457  0.50107101  0.87427243  1
  V  V11  1  0.87512408  0.24992437  0.12666258  1
  V  V12  1  0.25180171  0.62497746  0.87442368  1
  V  V13  1  0.37603777  0.24977569  0.62565516  1
  V  V14  1  0.74952445  0.25121032  0.50145142  1
  V  V15  1  0.74979151  0.12409735  0.37405963  1
  V  V16  1  0.12597855  0.49928566  0.12597605  1
  V  V17  1  0.87630009  0.12495209  0.74997537  1
  V  V18  1  0.00084574  0.50215637  0.50157519  1
  V  V19  1  0.62469802  0.62539908  0.50028649  1
  V  V20  1  0.75102470  0.00163295  0.74922205  1
  V  V21  1  -0.00141734  0.00084233  0.49867461  1
  V  V22  1  0.75002528  0.37564656  0.12606355  1
  V  V23  1  0.74917072  0.87647606  0.62322043  1
  V  V24  1  0.87629939  0.37383905  0.00067107  1
  V  V25  1  0.87486627  0.74977992  0.12417242  1
  V  V26  1  0.12300332  0.87348766  0.75049021  1
  V  V27  1  0.00043415  0.25030869  0.25120758  1
  V  V28  1  0.12380227  0.87573467  0.24884712  1
  V  V29  1  0.62648669  0.49974911  0.62594402  1
  V  V30  1  0.75177664  0.12446614  0.87423339  1
  V  V31  1  0.37468182  0.50062661  0.37454138  1
  V  V32  1  -0.00023362  0.75021845  0.24894938  1
  V  V33  1  0.49888677  0.12514128  0.62561357  1
  V  V34  1  0.87414427  0.12592912  0.25027152  1
  V  V35  1  0.62505617  0.24995789  0.87481702  1
  V  V36  1  0.37376374  0.25046620  0.12260883  1
  V  V37  1  0.00176323  0.49898227  0.00121895  1
  V  V38  1  0.50093041  0.50057030  -0.00043460  1
  V  V39  1  0.75011933  0.49983784  0.25008424  1
  V  V40  1  0.62343125  0.75103578  0.37429652  1
  V  V41  1  0.37362627  0.00039201  0.37444119  1
  V  V42  1  0.12752849  0.12593084  -0.00092219  1
  V  V43  1  0.87435180  0.37526315  0.50212678  1
  V  V44  1  0.37571133  0.37482450  0.50105930  1
  V  V45  1  0.50112510  0.25077560  0.25028113  1
  V  V46  1  -0.00021002  0.12572953  0.62548017  1
  V  V47  1  0.75089834  0.24921095  0.00043175  1
  V  V48  1  0.50006874  0.50030202  0.49986089  1
  V  V49  1  0.37438502  0.74985494  0.12474323  1
  V  V50  1  0.12539757  0.25042225  0.37519654  1
  V  V51  1  0.25093282  0.00153737  0.75252088  1
  V  V52  1  0.75124080  0.62369459  0.87527877  1
  V  V53  1  0.50053053  0.37512394  0.37413861  1
  V  V54  1  0.75067131  0.74892276  0.00044145  1
  V  V55  1  0.24887761  0.87353267  0.62376162  1
  V  V56  1  0.12447402  0.12569512  0.50027451  1
  V  V57  1  0.62603848  0.50011319  0.12536187  1
  V  V58  1  0.37661842  0.62560561  0.74956485  1
  V  V59  1  0.62542168  0.75068247  0.87341736  1
  V  V60  1  0.12588279  0.50124838  0.62572511  1
  V  V61  1  0.37413690  0.74969254  0.62466129  1
  V  V62  1  0.50008844  0.62518755  0.12501643  1
  V  V63  1  0.12695070  0.37513892  0.75076622  1
  V  V64  1  0.62487217  0.87455262  0.74966226  1
  V  V65  1  0.49856100  0.87523000  0.37423250  1
  V  V66  1  0.50020143  0.24895584  0.75043803  1
  V  V67  1  0.37547657  0.37499872  -0.00021492  1
  V  V68  1  0.62559058  0.62518993  -0.00032026  1
  V  V69  1  0.50185692  0.37435647  0.87457504  1
  V  V70  1  0.74962925  0.62584445  0.37494873  1
  V  V71  1  0.62564653  0.12404758  -0.00045017  1
  V  V72  1  0.00105143  0.62374305  0.12524761  1
  V  V73  1  0.12623053  0.37444758  0.25094686  1
  V  V74  1  0.74915470  0.75133389  0.49884982  1
  V  V75  1  0.37586321  0.87608155  -0.00197695  1
  V  V76  1  0.12439396  -0.00043398  0.12561392  1
  V  V77  1  0.24849560  -0.00001479  0.25054418  1
  V  V78  1  0.25080190  0.74975529  -0.00028511  1
  V  V79  1  0.49862507  0.00053264  0.49953037  1
  V  V80  1  0.49962190  0.62618774  0.62511882  1
  V  V81  1  0.12420489  -0.00068870  0.62484250  1
  V  V82  1  0.87511486  0.62466829  0.25021639  1
  V  V83  1  0.12551150  0.74751983  0.37665798  1
  V  V84  1  0.49912869  0.75061871  0.25055437  1
  V  V85  1  0.87511995  0.49962319  0.87503602  1
  V  V86  1  0.87517794  0.50101956  0.37650189  1
  V  V87  1  0.74875893  0.87477296  0.12549333  1
  V  V88  1  0.25099731  0.25028623  0.50096731  1
  V  V89  1  0.00078472  0.24938187  0.75038629  1
  V  V90  1  0.12267270  0.74982741  0.87482713  1
  V  V91  1  0.50048582  0.12496407  0.12438924  1
  V  V92  1  0.75016583  0.49898501  0.75034023  1
  V  V93  1  0.49964232  -0.00110371  -0.00079204  1
  V  V94  1  0.87584598  0.74888732  0.62692926  1
  V  V95  1  0.00140673  0.37445662  0.87548643  1
  Zn  Zn96  1  0.25290011  0.12774240  0.87533942  1
  Zn  Zn97  1  0.00070412  0.62747523  0.62867140  1
  Zn  Zn98  1  0.37452018  0.12390005  0.24914441  1
  Zn  Zn99  1  0.87550881  -0.00284142  0.87478820  1
  Zn  Zn100  1  0.87675444  0.62439683  0.75008285  1
  Zn  Zn101  1  0.25254491  0.37522420  0.62624003  1
  Zn  Zn102  1  0.24821042  0.74675063  0.50039839  1
  Zn  Zn103  1  0.24934804  0.87468773  0.12498125  1
  Zn  Zn104  1  0.00145302  0.37532314  0.37617794  1
  Zn  Zn105  1  0.24938411  0.62428023  0.37713257  1
  Zn  Zn106  1  0.24962578  0.37441917  0.12328974  1
  Zn  Zn107  1  0.62686150  0.37361277  0.74851616  1
  Zn  Zn108  1  0.87543417  0.87501466  -0.00187939  1
  Zn  Zn109  1  0.62593490  0.37631332  0.25141445  1
  Zn  Zn110  1  0.50026266  0.75227720  0.75024571  1
  Zn  Zn111  1  -0.00565104  0.87285912  0.87370216  1
  Zn  Zn112  1  0.74958775  0.00008534  0.24908832  1
  Zn  Zn113  1  0.25232396  0.49974849  0.74909149  1
  Zn  Zn114  1  0.87451584  -0.00015535  0.37164860  1
  Zn  Zn115  1  0.12668912  0.62523562  0.50155180  1
  Zn  Zn116  1  0.62335513  0.87739394  0.25057671  1
  Zn  Zn117  1  0.37709183  0.00135055  0.87377661  1
  Zn  Zn118  1  0.87565586  0.25065541  0.62580020  1
  Zn  Zn119  1  -0.00111659  0.12477922  0.12529674  1
  Zn  Zn120  1  0.24930321  0.25121974  -0.00264633  1
  Zn  Zn121  1  0.74888716  0.37507570  0.62759329  1
  Zn  Zn122  1  0.50074616  0.87541185  0.87223371  1
  Zn  Zn123  1  -0.00216545  0.74905163  0.75123139  1
  Zn  Zn124  1  0.62381261  0.25236406  0.37472853  1
  Zn  Zn125  1  0.37432611  0.12472557  0.75296870  1
  Zn  Zn126  1  0.12638978  0.62413586  0.00008036  1
  Zn  Zn127  1  0.12834566  0.24997085  0.87692282  1
  Zn  Zn128  1  0.18684724  0.18544990  0.18648727  1
  Zn  Zn129  1  0.18796097  0.18799577  0.68674511  1
  Zn  Zn130  1  0.18824698  0.68626506  0.18818487  1
  Zn  Zn131  1  0.18880938  0.68617085  0.68929039  1
  Zn  Zn132  1  0.68648912  0.18802867  0.18697418  1
  Zn  Zn133  1  0.68672992  0.18698104  0.68735974  1
  Zn  Zn134  1  0.68632816  0.68804044  0.18859774  1
  Zn  Zn135  1  0.68959416  0.68679814  0.68891546  1
  Zn  Zn136  1  0.31310079  0.31332244  0.31218140  1
  Zn  Zn137  1  0.31224997  0.31097349  0.81417350  1
  Zn  Zn138  1  0.31018633  0.81343055  0.31209355  1
  Zn  Zn139  1  0.31127950  0.81264316  0.81157271  1
  Zn  Zn140  1  0.81361748  0.31314834  0.31458701  1
  Zn  Zn141  1  0.81357501  0.31244949  0.81248739  1
  Zn  Zn142  1  0.81195199  0.81220749  0.31030865  1
  Zn  Zn143  1  0.81051354  0.81491986  0.81296883  1
  Zn  Zn144  1  0.18959089  0.43590697  0.43740370  1
  Zn  Zn145  1  0.19041948  0.43801665  0.93804062  1
  Zn  Zn146  1  0.18585285  0.93609628  0.43680712  1
  Zn  Zn147  1  0.18679161  0.93616732  0.93745556  1
  Zn  Zn148  1  0.68647848  0.43753577  0.43701504  1
  Zn  Zn149  1  0.68810051  0.43624215  0.93773923  1
  Zn  Zn150  1  0.68555193  0.93878890  0.43648130  1
  Zn  Zn151  1  0.68795171  0.93712865  0.93679039  1
  Zn  Zn152  1  0.31147710  0.06170820  0.06443637  1
  Zn  Zn153  1  0.31192194  0.06250207  0.56440226  1
  Zn  Zn154  1  0.31200868  0.56232426  0.06224403  1
  Zn  Zn155  1  0.31003660  0.56413590  0.56130459  1
  Zn  Zn156  1  0.81343906  0.06209872  0.06312176  1
  Zn  Zn157  1  0.81433945  0.06352088  0.56260236  1
  Zn  Zn158  1  0.81399817  0.56189879  0.06242734  1
  Zn  Zn159  1  0.81089498  0.56362614  0.56382271  1
  Zn  Zn160  1  0.43770660  0.43680101  0.18722759  1
  Zn  Zn161  1  0.44034223  0.43686174  0.68859251  1
  Zn  Zn162  1  0.43606962  0.93723577  0.18655435  1
  Zn  Zn163  1  0.43676149  0.93601987  0.68690406  1
  Zn  Zn164  1  0.93901727  0.43584152  0.18878274  1
  Zn  Zn165  1  0.93853153  0.43719768  0.68839808  1
  Zn  Zn166  1  0.93557274  0.93953810  0.18598870  1
  Zn  Zn167  1  0.93770848  0.93620999  0.68783245  1
  Zn  Zn168  1  0.06134620  0.06386727  0.31262128  1
  Zn  Zn169  1  0.06400237  0.06206630  0.81480593  1
  Zn  Zn170  1  0.06225977  0.56178952  0.31227369  1
  Zn  Zn171  1  0.06015847  0.56519211  0.81118559  1
  Zn  Zn172  1  0.56328244  0.06296196  0.31086700  1
  Zn  Zn173  1  0.56237391  0.06163599  0.81301836  1
  Zn  Zn174  1  0.56211241  0.56325415  0.31205802  1
  Zn  Zn175  1  0.56348458  0.56336719  0.81086154  1
  Zn  Zn176  1  0.43630319  0.18725229  0.43703342  1
  Zn  Zn177  1  0.43635168  0.18486385  0.93546894  1
  Zn  Zn178  1  0.43598339  0.68766260  0.43796093  1
  Zn  Zn179  1  0.43953848  0.68953441  0.93581556  1
  Zn  Zn180  1  0.93701576  0.18846195  0.43630189  1
  Zn  Zn181  1  0.94012899  0.18573307  0.93639327  1
  Zn  Zn182  1  0.93820678  0.68822962  0.43914381  1
  Zn  Zn183  1  0.93763610  0.68521101  0.93956211  1
  Zn  Zn184  1  0.06268039  0.31140437  0.06564983  1
  Zn  Zn185  1  0.06242819  0.31359198  0.56432489  1
  Zn  Zn186  1  0.06296521  0.81322586  0.06102774  1
  Zn  Zn187  1  0.06037965  0.81492167  0.56116615  1
  Zn  Zn188  1  0.56321197  0.31313649  0.06207189  1
  Zn  Zn189  1  0.56297399  0.31354615  0.56366399  1
  Zn  Zn190  1  0.56249377  0.81226821  0.06158552  1
  Zn  Zn191  1  0.56038362  0.81284746  0.56212285  1
  O  O192  1  0.12203450  0.11791467  0.11694079  1
  O  O193  1  0.11923187  0.11925631  0.61883089  1
  O  O194  1  0.11806232  0.61802899  0.12498367  1
  O  O195  1  0.12273834  0.61332553  0.62500721  1
  O  O196  1  0.62053589  0.11987119  0.11832878  1
  O  O197  1  0.61942721  0.11919892  0.61854175  1
  O  O198  1  0.61998266  0.62016683  0.11932898  1
  O  O199  1  0.62056512  0.62079983  0.61862774  1
  O  O200  1  0.38152203  0.38082051  0.38088094  1
  O  O201  1  0.38277446  0.38088090  0.88028259  1
  O  O202  1  0.37919301  0.88059460  0.38040488  1
  O  O203  1  0.37656906  0.87545970  0.88748024  1
  O  O204  1  0.87579974  0.38191736  0.38720120  1
  O  O205  1  0.88139334  0.37956283  0.88215707  1
  O  O206  1  0.87967653  0.87543231  0.37970385  1
  O  O207  1  0.87578409  0.87865170  0.88015886  1
  O  O208  1  0.25369053  0.00504840  0.37071751  1
  O  O209  1  0.24925503  -0.00160692  0.86140625  1
  O  O210  1  0.25731726  0.50026026  0.36802401  1
  O  O211  1  0.25905634  0.50707435  0.87389741  1
  O  O212  1  0.75043484  0.01324566  0.37455559  1
  O  O213  1  0.74988614  0.00791836  0.86773475  1
  O  O214  1  0.75541779  0.50672293  0.37079994  1
  O  O215  1  0.75535584  0.50407929  0.87123819  1
  O  O216  1  0.24440037  0.49883169  0.13199210  1
  O  O217  1  0.23838691  0.49645965  0.62630725  1
  O  O218  1  0.24254401  0.99799260  0.13324536  1
  O  O219  1  0.24318124  0.99411990  0.63153866  1
  O  O220  1  0.74602546  0.49549257  0.13045067  1
  O  O221  1  0.74436272  0.49997788  0.63190692  1
  O  O222  1  0.74412389  0.99020426  0.12358189  1
  O  O223  1  0.74368140  0.99621913  0.62821617  1
  O  O224  1  0.00667411  0.36862389  0.25424573  1
  O  O225  1  0.00799174  0.37005380  0.75518916  1
  O  O226  1  0.00352216  0.86944369  0.25398370  1
  O  O227  1  0.00831357  0.87145892  0.75248281  1
  O  O228  1  0.50101628  0.36659119  0.25498611  1
  O  O229  1  0.50367601  0.36763279  0.75758278  1
  O  O230  1  0.49948487  0.86826337  0.25657873  1
  O  O231  1  0.50937745  0.87377746  0.75043034  1
  O  O232  1  0.49828757  0.13462829  0.24376955  1
  O  O233  1  0.49972869  0.13057354  0.74267304  1
  O  O234  1  0.49404096  0.63041999  0.24413405  1
  O  O235  1  0.49455686  0.62720761  0.74221779  1
  O  O236  1  0.99246328  0.13235078  0.24952804  1
  O  O237  1  0.99696090  0.12921021  0.74506505  1
  O  O238  1  0.99342912  0.62988757  0.24492373  1
  O  O239  1  0.99346571  0.63086481  0.74627340  1
  O  O240  1  0.37863566  0.25547649  0.01001479  1
  O  O241  1  0.37105407  0.25528608  0.50529742  1
  O  O242  1  0.37161236  0.75699629  0.00480847  1
  O  O243  1  0.37301950  0.75713778  0.50581772  1
  O  O244  1  0.87060221  0.25445635  0.00561113  1
  O  O245  1  0.86712319  0.25876765  0.49986825  1
  O  O246  1  0.86799520  0.74925195  0.00776372  1
  O  O247  1  0.86840711  0.75650420  0.50578877  1
  O  O248  1  0.13030804  0.24527666  0.49593663  1
  O  O249  1  0.12569856  0.23881123  1.00230202  1
  O  O250  1  0.12203805  0.74968383  0.48793187  1
  O  O251  1  0.13182274  0.74883619  0.99121931  1
  O  O252  1  0.63372293  0.24473926  0.49897861  1
  O  O253  1  0.63115861  0.24370260  0.99563197  1
  O  O254  1  0.62964094  0.74518780  0.49422285  1
  O  O255  1  0.63085866  0.74336850  0.99514361  1
  O  O256  1  0.49355369  0.24577933  0.13118024  1
  O  O257  1  0.49602674  0.24431485  0.62987286  1
  O  O258  1  0.49480588  0.74400945  0.13009357  1
  O  O259  1  0.49298863  0.74309266  0.62481251  1
  O  O260  1  0.99178847  0.24900941  0.13329012  1
  O  O261  1  0.99940161  0.24316638  0.63141574  1
  O  O262  1  0.99529804  0.74434275  0.12981636  1
  O  O263  1  0.98657957  0.75088668  0.62302386  1
  O  O264  1  0.00787008  0.25143344  0.36976825  1
  O  O265  1  0.00387352  0.25730206  0.86870805  1
  O  O266  1  0.00541747  0.75542795  0.36873801  1
  O  O267  1  0.01202711  0.74969508  0.87689865  1
  O  O268  1  0.49898381  0.25489310  0.36556066  1
  O  O269  1  0.50589904  0.25422866  0.87056509  1
  O  O270  1  0.50387230  0.75553520  0.37039231  1
  O  O271  1  0.51036399  0.75294739  0.87217603  1
  O  O272  1  0.24374700  0.12989078  0.49526336  1
  O  O273  1  0.23807000  0.12360671  1.00032961  1
  O  O274  1  0.24430246  0.62875234  0.49427874  1
  O  O275  1  0.24997736  0.63196592  0.99252741  1
  O  O276  1  0.74661516  0.13263617  0.49289332  1
  O  O277  1  0.74524750  0.13027011  0.99523460  1
  O  O278  1  0.74421011  0.63115772  0.49349203  1
  O  O279  1  0.74455118  0.62895629  0.99588891  1
  O  O280  1  0.26009941  0.37291043  0.00342204  1
  O  O281  1  0.25811936  0.36765153  0.50166565  1
  O  O282  1  0.25976655  0.86913527  0.00157104  1
  O  O283  1  0.25486904  0.87405972  0.50644713  1
  O  O284  1  0.75674437  0.36898405  0.00577621  1
  O  O285  1  0.75750771  0.36748369  0.49945598  1
  O  O286  1  0.74957897  0.86814904  0.01128305  1
  O  O287  1  0.75365045  0.87087481  0.50358023  1
  O  O288  1  0.12999762  0.49428211  0.24615789  1
  O  O289  1  0.12331800  0.49109839  0.74188791  1
  O  O290  1  0.12802599  0.99522471  0.24585902  1
  O  O291  1  0.13111941  0.99390558  0.74383680  1
  O  O292  1  0.63213485  0.50087789  0.24308600  1
  O  O293  1  0.63262786  0.49901091  0.74439404  1
  O  O294  1  0.62800089  0.99815180  0.24108413  1
  O  O295  1  0.63149276  0.99589621  0.74276309  1
  O  O296  1  0.36817480  0.00104354  0.25653342  1
  O  O297  1  0.36271084  -0.00103740  0.74907591  1
  O  O298  1  0.37117028  0.50466958  0.25452416  1
  O  O299  1  0.37608583  0.50641125  0.75663085  1
  O  O300  1  0.87038571  0.00942397  0.25172140  1
  O  O301  1  0.86819456  0.00679906  0.74948294  1
  O  O302  1  0.87026297  0.50521819  0.25611688  1
  O  O303  1  0.86847584  0.49896854  0.75733209  1
  O  O304  1  0.12445257  0.36747057  0.36924042  1
  O  O305  1  0.11950527  0.37720796  0.86529000  1
  O  O306  1  0.11724749  0.86729505  0.36916187  1
  O  O307  1  0.12568697  0.86320074  0.86916683  1
  O  O308  1  0.61685851  0.37273397  0.37188966  1
  O  O309  1  0.61893795  0.36698529  0.87642892  1
  O  O310  1  0.61714329  0.86901660  0.37425206  1
  O  O311  1  0.62711874  0.86796375  0.86755508  1
  O  O312  1  0.38217542  0.13422638  0.12523429  1
  O  O313  1  0.38231789  0.13158946  0.62570066  1
  O  O314  1  0.38148464  0.63004835  0.13023599  1
  O  O315  1  0.38011207  0.62964241  0.62945120  1
  O  O316  1  0.87405695  0.13321597  0.13268431  1
  O  O317  1  0.88261183  0.12703557  0.63126955  1
  O  O318  1  0.88044141  0.62930302  0.13131314  1
  O  O319  1  0.87400360  0.63831383  0.62439177  1
  O  O320  1  0.26439058  0.25017158  0.12473416  1
  O  O321  1  0.25706808  0.25140564  0.61802506  1
  O  O322  1  0.25692733  0.75076772  0.11876189  1
  O  O323  1  0.25532206  0.75653474  0.62381603  1
  O  O324  1  0.75481207  0.25574161  0.11963248  1
  O  O325  1  0.75202593  0.25025613  0.61182923  1
  O  O326  1  0.75392496  0.75561717  0.12065672  1
  O  O327  1  0.75586485  0.75635238  0.61767967  1
  O  O328  1  0.24603345  0.24430695  0.38089375  1
  O  O329  1  0.24577905  0.24627292  0.87961674  1
  O  O330  1  0.23642218  0.75010107  0.37524103  1
  O  O331  1  0.24280139  0.74465953  0.87986257  1
  O  O332  1  0.74842045  0.24232911  0.38484192  1
  O  O333  1  0.74561533  0.24433905  0.88150929  1
  O  O334  1  0.74420284  0.74515988  0.37938860  1
  O  O335  1  0.74514847  0.74335844  0.88111671  1
  O  O336  1  0.00904257  0.11619109  0.00204687  1
  O  O337  1  0.00508446  0.12090765  0.50471961  1
  O  O338  1  0.00198051  0.61635558  0.00825319  1
  O  O339  1  0.00095620  0.61198671  0.50320246  1
  O  O340  1  0.50677108  0.11924959  0.00540025  1
  O  O341  1  0.50517768  0.12001433  0.50453534  1
  O  O342  1  0.50596612  0.62005871  0.00560978  1
  O  O343  1  0.50550222  0.61952023  0.50480850  1
  O  O344  1  0.49503302  0.38070680  0.49419901  1
  O  O345  1  0.49585089  0.38134370  0.99449280  1
  O  O346  1  0.49304169  0.88139890  0.49422777  1
  O  O347  1  0.49098342  0.88008688  1.00007838  1
  O  O348  1  0.99136870  0.38398758  0.49933771  1
  O  O349  1  0.99518398  0.37924229  0.99590939  1
  O  O350  1  0.99318420  0.88206195  0.49326177  1
  O  O351  1  0.99898053  0.88576539  0.99849215  1
  O  O352  1  0.49470309  0.49565823  0.38017254  1
  O  O353  1  0.49665490  0.49566055  0.88105282  1
  O  O354  1  0.49436157  0.99577749  0.38009049  1
  O  O355  1  0.49927920  0.99605522  0.88394170  1
  O  O356  1  0.99397157  0.49893410  0.38530252  1
  O  O357  1  0.99506134  0.49416047  0.88114641  1
  O  O358  1  0.99848747  0.99398702  0.38106988  1
  O  O359  1  0.99981956  0.99731977  0.88631023  1
  O  O360  1  0.00596923  0.00151175  0.11595230  1
  O  O361  1  0.00540703  0.00521798  0.61863852  1
  O  O362  1  0.00544610  0.50414863  0.12130064  1
  O  O363  1  0.00782954  0.49955274  0.61697924  1
  O  O364  1  0.50518385  0.00539617  0.11959811  1
  O  O365  1  0.50485618  0.00496646  0.61837619  1
  O  O366  1  0.50548306  0.50586316  0.11955371  1
  O  O367  1  0.50579844  0.50644335  0.61858550  1
  O  O368  1  0.24454872  0.38111854  0.24764131  1
  O  O369  1  0.23861086  0.37764131  0.74877156  1
  O  O370  1  0.24163837  0.88254521  0.24905337  1
  O  O371  1  0.24311745  0.88208358  0.74338487  1
  O  O372  1  0.74975410  0.38165233  0.24467158  1
  O  O373  1  0.74797311  0.38256974  0.74864637  1
  O  O374  1  0.74680727  0.87470429  0.23748535  1
  O  O375  1  0.74412800  0.88245816  0.74169572  1
  O  O376  1  0.25090031  0.11845247  0.25762287  1
  O  O377  1  0.24924338  0.11223581  0.74847947  1
  O  O378  1  0.25740434  0.61776060  0.25255733  1
  O  O379  1  0.25878589  0.62213963  0.75694207  1
  O  O380  1  0.75411338  0.12788876  0.26000098  1
  O  O381  1  0.75579920  0.12086932  0.75403374  1
  O  O382  1  0.75573796  0.62024026  0.25542959  1
  O  O383  1  0.75300014  0.61687070  0.75784447  1
  O  O384  1  0.36781788  0.11784802  0.37435302  1
  O  O385  1  0.37061620  0.11855089  0.87123128  1
  O  O386  1  0.37572479  0.61796346  0.36770438  1
  O  O387  1  0.37229451  0.62080468  0.86970756  1
  O  O388  1  0.86432978  0.12580599  0.36972777  1
  O  O389  1  0.86871270  0.12323772  0.86783379  1
  O  O390  1  0.86923618  0.62135281  0.37021217  1
  O  O391  1  0.86804415  0.61696902  0.87641831  1
  O  O392  1  0.12665620  0.38137933  0.13300398  1
  O  O393  1  0.12491015  0.38365755  0.63456085  1
  O  O394  1  0.12615998  0.88074570  0.13210627  1
  O  O395  1  0.12888636  0.88003876  0.62996114  1
  O  O396  1  0.63233464  0.38237804  0.12537907  1
  O  O397  1  0.62748636  0.38442170  0.62630455  1
  O  O398  1  0.63335465  0.87910246  0.12554249  1
  O  O399  1  0.63035173  0.88091569  0.62750355  1
  O  O400  1  0.12095336  0.25418617  0.25525754  1
  O  O401  1  0.11961127  0.26074481  0.74893973  1
  O  O402  1  0.11855476  0.75513329  0.25651956  1
  O  O403  1  0.12557572  0.75545311  0.75941703  1
  O  O404  1  0.61186829  0.25254560  0.24941757  1
  O  O405  1  0.61928737  0.25034209  0.75705172  1
  O  O406  1  0.61681416  0.75030513  0.25713762  1
  O  O407  1  0.62637545  0.75675393  0.75518531  1
  O  O408  1  0.38520435  0.24991660  0.24098478  1
  O  O409  1  0.38238547  0.24909755  0.74310385  1
  O  O410  1  0.37962551  0.74506821  0.24521630  1
  O  O411  1  0.37658931  0.74440426  0.74285551  1
  O  O412  1  0.87983843  0.24619447  0.24638046  1
  O  O413  1  0.88231922  0.24398866  0.74780709  1
  O  O414  1  0.88041009  0.74350083  0.24437438  1
  O  O415  1  0.87214329  0.75127206  0.73679129  1
  O  O416  1  0.38129771  0.49505074  0.49503006  1
  O  O417  1  0.38269271  0.49587281  0.99486372  1
  O  O418  1  0.37922625  0.99433124  0.49484391  1
  O  O419  1  0.38022284  0.98981636  1.00217018  1
  O  O420  1  0.88090410  0.49406529  0.49714387  1
  O  O421  1  0.88102129  0.49271944  0.99594811  1
  O  O422  1  0.88075122  0.99428559  0.49749189  1
  O  O423  1  0.88681416  1.00041777  0.99973760  1
  O  O424  1  0.11849268  0.00531622  0.00510800  1
  O  O425  1  0.11878744  0.00561024  0.50485554  1
  O  O426  1  0.11902391  0.50051934  0.00708680  1
  O  O427  1  0.11604285  0.49634692  0.50800391  1
  O  O428  1  0.62009911  0.00517548  0.00557734  1
  O  O429  1  0.61834797  0.00580987  0.50511469  1
  O  O430  1  0.62063420  0.50587973  0.00546832  1
  O  O431  1  0.62004175  0.50685336  0.50435601  1
  O  O432  1  0.37699891  0.36553799  0.11845295  1
  O  O433  1  0.37618136  0.36874244  0.61838380  1
  O  O434  1  0.37402547  0.86810244  0.11476327  1
  O  O435  1  0.36906848  0.86939944  0.61886328  1
  O  O436  1  0.86940684  0.37018114  0.12025225  1
  O  O437  1  0.87290179  0.37394650  0.61227485  1
  O  O438  1  0.86474612  0.86809844  0.12378620  1
  O  O439  1  0.86823623  0.86868303  0.61772274  1
  O  O440  1  0.13060740  0.13064007  0.38134091  1
  O  O441  1  0.12743604  0.12656076  0.88715224  1
  O  O442  1  0.12342665  0.63717378  0.37475090  1
  O  O443  1  0.13189847  0.63406366  0.87529956  1
  O  O444  1  0.63367651  0.12773650  0.38091514  1
  O  O445  1  0.63156785  0.13070034  0.88075776  1
  O  O446  1  0.62985618  0.63068322  0.38077521  1
  O  O447  1  0.63135016  0.62960082  0.88114164  1
