# generated using pymatgen
data_V3Zn3O8
_symmetry_space_group_name_H-M   'P 1'
_cell_length_a   17.08438177
_cell_length_b   17.08527191
_cell_length_c   17.08536432
_cell_angle_alpha   90.00747410
_cell_angle_beta   90.00268713
_cell_angle_gamma   89.98449541
_symmetry_Int_Tables_number   1
_chemical_formula_structural   V3Zn3O8
_chemical_formula_sum   'V96 Zn96 O256'
_cell_volume   4987.06910978
_cell_formula_units_Z   32
loop_
 _symmetry_equiv_pos_site_id
 _symmetry_equiv_pos_as_xyz
  1  'x, y, z'
loop_
 _atom_site_type_symbol
 _atom_site_label
 _atom_site_symmetry_multiplicity
 _atom_site_fract_x
 _atom_site_fract_y
 _atom_site_fract_z
 _atom_site_occupancy
  V  V0  1  0.50066365  0.37390198  0.37446610  1
  V  V1  1  0.12513261  0.12510640  0.49961790  1
  V  V2  1  0.49990181  0.50008761  0.50000891  1
  V  V3  1  0.37497191  0.37380008  0.49914622  1
  V  V4  1  0.62419071  0.62472368  0.49947125  1
  V  V5  1  0.87478193  0.74965650  0.62520172  1
  V  V6  1  -0.00161339  0.87688159  0.87594636  1
  V  V7  1  0.37318998  0.87351789  0.50131212  1
  V  V8  1  0.62495954  0.87353114  0.24978159  1
  V  V9  1  0.87402394  0.87619327  0.00055842  1
  V  V10  1  -0.00241041  0.49701364  0.49965014  1
  V  V11  1  -0.00026624  0.24967445  0.74911968  1
  V  V12  1  0.24925618  0.75054159  0.00077724  1
  V  V13  1  0.37669951  0.12512641  0.74964121  1
  V  V14  1  0.12549657  0.62564740  0.50079251  1
  V  V15  1  0.24908889  0.87553858  0.12572045  1
  V  V16  1  0.25024801  0.24857641  0.49962905  1
  V  V17  1  0.74974729  0.74874391  0.50032464  1
  V  V18  1  0.12564836  0.50162606  0.12495607  1
  V  V19  1  0.12603574  0.49940208  0.62555613  1
  V  V20  1  0.00040552  0.62624560  0.12537412  1
  V  V21  1  0.62525624  0.37413697  0.75041458  1
  V  V22  1  0.12554625  0.74971309  0.37766562  1
  V  V23  1  0.87558906  0.62588394  0.24972603  1
  V  V24  1  0.12648044  0.24938755  0.87538228  1
  V  V25  1  0.37438783  -0.00055615  0.87475297  1
  V  V26  1  0.37407767  0.87437348  0.00044565  1
  V  V27  1  0.74948775  0.25006041  0.49993364  1
  V  V28  1  0.37553943  0.62489085  0.75054037  1
  V  V29  1  0.49933406  0.87429270  0.87484243  1
  V  V30  1  0.74968301  0.37360369  0.62504064  1
  V  V31  1  0.87408552  0.12428856  0.25115661  1
  V  V32  1  0.12429124  0.75067921  0.87555428  1
  V  V33  1  0.37452878  -0.00046871  0.37453144  1
  V  V34  1  0.87387286  0.24968611  0.62340839  1
  V  V35  1  -0.00064799  0.00075481  0.00016264  1
  V  V36  1  0.24955618  0.12524332  0.37577169  1
  V  V37  1  0.12462383  0.62599285  0.00142687  1
  V  V38  1  0.00199683  0.25282755  0.24884811  1
  V  V39  1  0.12441987  0.37532825  0.24994757  1
  V  V40  1  0.50032383  0.37499334  0.87553842  1
  V  V41  1  0.75024582  0.75071051  -0.00051282  1
  V  V42  1  0.62418725  0.12374414  0.49875708  1
  V  V43  1  0.25043755  0.37472462  0.62571052  1
  V  V44  1  0.74949260  0.62403318  0.37545486  1
  V  V45  1  0.00038326  0.37690828  0.87453479  1
  V  V46  1  0.37576797  0.24981110  0.12458548  1
  V  V47  1  -0.00062686  0.87587950  0.37592551  1
  V  V48  1  0.12451207  -0.00016928  0.62616396  1
  V  V49  1  0.62293766  -0.00012221  0.62414632  1
  V  V50  1  0.49877587  0.62457324  0.62439106  1
  V  V51  1  0.12443887  0.00065673  0.12484486  1
  V  V52  1  0.87656035  0.25164743  0.12410435  1
  V  V53  1  0.87337559  0.12430991  0.74970005  1
  V  V54  1  0.25000206  0.50021876  0.25147712  1
  V  V55  1  0.25056333  0.62473686  0.87502778  1
  V  V56  1  0.49940047  0.24942739  0.75069091  1
  V  V57  1  0.49948526  0.74857494  0.74938372  1
  V  V58  1  0.62513878  0.74952561  0.87445107  1
  V  V59  1  0.49982384  0.12385445  0.12481224  1
  V  V60  1  0.00034521  0.62525258  0.62702198  1
  V  V61  1  -0.00102861  0.12510434  0.62391660  1
  V  V62  1  0.24976089  0.12564094  0.87496791  1
  V  V63  1  0.50003821  0.87386017  0.37428700  1
  V  V64  1  0.24922241  0.00075509  0.24959981  1
  V  V65  1  0.75033181  0.50063930  0.25025514  1
  V  V66  1  0.37439912  0.74899376  0.12657553  1
  V  V67  1  -0.00196061  0.00015433  0.49956440  1
  V  V68  1  0.62653895  0.24924375  0.87715619  1
  V  V69  1  0.00169031  0.12592972  0.12339295  1
  V  V70  1  0.62574120  0.37406273  0.25042292  1
  V  V71  1  0.37531016  0.37488101  0.00064937  1
  V  V72  1  0.75140793  0.37548782  0.12487989  1
  V  V73  1  0.87666817  0.37650847  -0.00110423  1
  V  V74  1  0.74997151  0.00079211  0.75146632  1
  V  V75  1  0.62536234  0.62434298  0.00028550  1
  V  V76  1  0.62428977  0.87480503  0.74911405  1
  V  V77  1  0.75138433  0.50003797  0.75034428  1
  V  V78  1  0.37418030  0.49997194  0.37402925  1
  V  V79  1  0.50167312  0.50036719  0.00098557  1
  V  V80  1  0.75028566  0.24951494  -0.00045537  1
  V  V81  1  0.12374589  0.87530170  0.25179303  1
  V  V82  1  0.37511903  0.12495836  0.24912016  1
  V  V83  1  0.12442628  0.87656769  0.75011627  1
  V  V84  1  0.25160567  0.37519759  0.12474533  1
  V  V85  1  0.62439416  -0.00082584  0.12419854  1
  V  V86  1  0.87402369  0.87441052  0.49913969  1
  V  V87  1  0.62580761  0.50044138  0.12440840  1
  V  V88  1  0.37459263  0.62480194  0.24979085  1
  V  V89  1  0.74942064  0.87461199  0.12440893  1
  V  V90  1  0.49969925  -0.00026206  0.00040363  1
  V  V91  1  0.62524640  0.24941015  0.37459324  1
  V  V92  1  0.75099354  0.62466789  0.87403393  1
  V  V93  1  -0.00078147  0.75036751  0.75011292  1
  V  V94  1  0.24910586  -0.00047480  0.74998485  1
  V  V95  1  0.37539884  0.50047232  0.87544613  1
  Zn  Zn96  1  0.37641392  0.24765838  0.62512094  1
  Zn  Zn97  1  0.49941635  -0.00018000  0.50074250  1
  Zn  Zn98  1  0.87615240  0.75115337  0.12507984  1
  Zn  Zn99  1  0.37257778  0.75049022  0.62559984  1
  Zn  Zn100  1  0.12656835  0.37677832  0.75039153  1
  Zn  Zn101  1  -0.00077306  0.75100326  0.25042065  1
  Zn  Zn102  1  0.87387043  0.37390289  0.49687986  1
  Zn  Zn103  1  0.25016386  0.62497804  0.37775736  1
  Zn  Zn104  1  0.87782973  0.50297734  0.87546818  1
  Zn  Zn105  1  0.87472058  0.49731962  0.37617668  1
  Zn  Zn106  1  0.75039568  0.12524864  0.87819499  1
  Zn  Zn107  1  -0.00128099  0.37466470  0.37428718  1
  Zn  Zn108  1  0.87409923  0.00256307  0.87634372  1
  Zn  Zn109  1  0.75185806  -0.00090642  0.25080346  1
  Zn  Zn110  1  0.49851105  0.12724662  0.62474685  1
  Zn  Zn111  1  0.25028673  0.87380954  0.62564641  1
  Zn  Zn112  1  0.50120971  0.24852188  0.24971297  1
  Zn  Zn113  1  0.62467394  0.74949954  0.37482090  1
  Zn  Zn114  1  0.62392058  0.49861764  0.62432531  1
  Zn  Zn115  1  0.87611759  0.62534786  0.75166653  1
  Zn  Zn116  1  0.12620647  0.12480602  -0.00011890  1
  Zn  Zn117  1  0.87273234  -0.00003070  0.37474959  1
  Zn  Zn118  1  -0.00012931  0.50273851  -0.00179892  1
  Zn  Zn119  1  0.12429685  0.25155225  0.37444170  1
  Zn  Zn120  1  0.25044087  0.49997423  0.75020516  1
  Zn  Zn121  1  0.74947257  0.12315605  0.37220047  1
  Zn  Zn122  1  0.49924923  0.74750811  0.24856198  1
  Zn  Zn123  1  0.74884588  0.87261888  0.62366884  1
  Zn  Zn124  1  0.24992584  0.74826484  0.50466271  1
  Zn  Zn125  1  0.25071536  0.24918617  -0.00035304  1
  Zn  Zn126  1  0.62700203  0.12452766  0.00078985  1
  Zn  Zn127  1  0.50065886  0.62603312  0.12620179  1
  Zn  Zn128  1  0.18828018  0.18886886  0.18646971  1
  Zn  Zn129  1  0.18770116  0.18759282  0.68798141  1
  Zn  Zn130  1  0.18806034  0.68804931  0.19103289  1
  Zn  Zn131  1  0.18902779  0.68909895  0.68719229  1
  Zn  Zn132  1  0.68775684  0.18767769  0.18586567  1
  Zn  Zn133  1  0.68607660  0.18675351  0.68762664  1
  Zn  Zn134  1  0.68849481  0.68874908  0.18636479  1
  Zn  Zn135  1  0.68634402  0.68535805  0.68538260  1
  Zn  Zn136  1  0.31217673  0.31115736  0.31164572  1
  Zn  Zn137  1  0.31381990  0.31238315  0.81175611  1
  Zn  Zn138  1  0.31078808  0.81116760  0.31327914  1
  Zn  Zn139  1  0.31166725  0.81164277  0.81186219  1
  Zn  Zn140  1  0.81403070  0.31214678  0.31503874  1
  Zn  Zn141  1  0.81327933  0.31173751  0.81243488  1
  Zn  Zn142  1  0.81139543  0.81068056  0.31409182  1
  Zn  Zn143  1  0.81301356  0.81417828  0.81252166  1
  Zn  Zn144  1  0.18570486  0.43665578  0.43697986  1
  Zn  Zn145  1  0.18836611  0.43872199  0.93954437  1
  Zn  Zn146  1  0.18783661  0.93827734  0.43881172  1
  Zn  Zn147  1  0.18600609  0.93845732  0.93741816  1
  Zn  Zn148  1  0.68740326  0.43795181  0.43744884  1
  Zn  Zn149  1  0.68903608  0.43688299  0.93667737  1
  Zn  Zn150  1  0.69140109  0.93877710  0.43479716  1
  Zn  Zn151  1  0.68627722  0.93753402  0.93705146  1
  Zn  Zn152  1  0.31194864  0.06346154  0.06100388  1
  Zn  Zn153  1  0.31259957  0.06068608  0.56379795  1
  Zn  Zn154  1  0.31267691  0.56256144  0.06309527  1
  Zn  Zn155  1  0.31295658  0.56262573  0.56174414  1
  Zn  Zn156  1  0.81201617  0.06224430  0.06516844  1
  Zn  Zn157  1  0.81047253  0.06171965  0.56235273  1
  Zn  Zn158  1  0.81434076  0.56188450  0.06138975  1
  Zn  Zn159  1  0.81302862  0.56321340  0.56536338  1
  Zn  Zn160  1  0.43932661  0.43774136  0.18801988  1
  Zn  Zn161  1  0.43654728  0.43811891  0.68739237  1
  Zn  Zn162  1  0.43744786  0.93709361  0.18771005  1
  Zn  Zn163  1  0.43777000  0.93773494  0.68721237  1
  Zn  Zn164  1  0.93897424  0.44035807  0.18623647  1
  Zn  Zn165  1  0.93626281  0.43572912  0.68665710  1
  Zn  Zn166  1  0.93809376  0.93801795  0.18671525  1
  Zn  Zn167  1  0.93612071  0.93613729  0.68579099  1
  Zn  Zn168  1  0.06083258  0.06383852  0.31303384  1
  Zn  Zn169  1  0.06107240  0.06325849  0.81278102  1
  Zn  Zn170  1  0.06185261  0.56255929  0.31399697  1
  Zn  Zn171  1  0.06625451  0.56280807  0.81042647  1
  Zn  Zn172  1  0.56191983  0.06000711  0.31135164  1
  Zn  Zn173  1  0.56317575  0.06490342  0.81485881  1
  Zn  Zn174  1  0.56175495  0.56234850  0.31200419  1
  Zn  Zn175  1  0.56361343  0.56182776  0.81253616  1
  Zn  Zn176  1  0.43796553  0.18819166  0.43724778  1
  Zn  Zn177  1  0.43813969  0.18711857  0.93814167  1
  Zn  Zn178  1  0.43721841  0.68826045  0.43594374  1
  Zn  Zn179  1  0.43796016  0.68670061  0.93844268  1
  Zn  Zn180  1  0.93874131  0.19013394  0.43499954  1
  Zn  Zn181  1  0.93656590  0.18703746  0.93666012  1
  Zn  Zn182  1  0.93775011  0.68591380  0.43771085  1
  Zn  Zn183  1  0.93609098  0.68899473  0.93761956  1
  Zn  Zn184  1  0.06393661  0.31413477  0.06142072  1
  Zn  Zn185  1  0.06417946  0.31216197  0.56191163  1
  Zn  Zn186  1  0.06035589  0.81264214  0.06401446  1
  Zn  Zn187  1  0.06107852  0.81343712  0.56346578  1
  Zn  Zn188  1  0.56297040  0.31168074  0.06357331  1
  Zn  Zn189  1  0.56245341  0.31191049  0.56432230  1
  Zn  Zn190  1  0.56094743  0.81098725  0.06298070  1
  Zn  Zn191  1  0.56132989  0.81067543  0.56221055  1
  O  O192  1  0.11975976  0.11873137  0.12355379  1
  O  O193  1  0.11859020  0.11972111  0.62025850  1
  O  O194  1  0.12093527  0.62149700  0.12135498  1
  O  O195  1  0.11960404  0.61967619  0.62057543  1
  O  O196  1  0.61782586  0.11733085  0.12471810  1
  O  O197  1  0.62377470  0.11669089  0.61623130  1
  O  O198  1  0.62522553  0.61820075  0.11797089  1
  O  O199  1  0.61649990  0.62176835  0.61786539  1
  O  O200  1  0.38029977  0.37957652  0.37955603  1
  O  O201  1  0.38082215  0.38056400  0.88055775  1
  O  O202  1  0.38126583  0.87958708  0.37997559  1
  O  O203  1  0.37973187  0.87983308  0.88069115  1
  O  O204  1  0.87965899  0.37984136  0.37887923  1
  O  O205  1  0.88706620  0.37358789  0.87923362  1
  O  O206  1  0.88226067  0.87434059  0.38117930  1
  O  O207  1  0.88121074  0.87839825  0.88197581  1
  O  O208  1  0.25453528  0.00557391  0.36883490  1
  O  O209  1  0.25477422  0.00503423  0.86991806  1
  O  O210  1  0.25680612  0.49955016  0.36869857  1
  O  O211  1  0.25710909  0.50680997  0.87485415  1
  O  O212  1  0.75534606  0.00526401  0.36862853  1
  O  O213  1  0.74911815  0.00142010  0.86206418  1
  O  O214  1  0.75086215  0.50656135  0.36767049  1
  O  O215  1  0.75100396  0.50463564  0.86545126  1
  O  O216  1  0.24520603  0.49482304  0.13117502  1
  O  O217  1  0.24489348  0.48942274  0.62323696  1
  O  O218  1  0.24479063  0.99483602  0.12993128  1
  O  O219  1  0.24194184  0.99841154  0.63296843  1
  O  O220  1  0.74515915  0.49423049  0.12992605  1
  O  O221  1  0.74815659  0.49400046  0.63496755  1
  O  O222  1  0.74205635  0.99193639  0.12677937  1
  O  O223  1  0.73900213  0.99827592  0.63423229  1
  O  O224  1  0.00715761  0.37027238  0.24727795  1
  O  O225  1  0.00143608  0.36813103  0.75842104  1
  O  O226  1  0.00638164  0.87430383  0.25702913  1
  O  O227  1  0.00490945  0.87065427  0.75590395  1
  O  O228  1  0.50779768  0.37382067  0.25675772  1
  O  O229  1  0.50488807  0.37082482  0.75678907  1
  O  O230  1  0.50719682  0.87427346  0.25746032  1
  O  O231  1  0.50460435  0.86938854  0.75593031  1
  O  O232  1  0.49236433  0.12405308  0.24305327  1
  O  O233  1  0.49406765  0.13150985  0.75091201  1
  O  O234  1  0.49109956  0.62676446  0.24753146  1
  O  O235  1  0.49579010  0.62927601  0.74580833  1
  O  O236  1  0.99393196  0.13164747  0.24289164  1
  O  O237  1  0.99391901  0.12968013  0.74316793  1
  O  O238  1  0.99065251  0.62500450  0.24511557  1
  O  O239  1  1.00002862  0.63234132  0.74486334  1
  O  O240  1  0.37471924  0.25767451  0.00586720  1
  O  O241  1  0.36871771  0.25584188  0.50148020  1
  O  O242  1  0.36835770  0.75545980  0.00485863  1
  O  O243  1  0.37345239  0.76203310  0.49927405  1
  O  O244  1  0.87093964  0.25658019  0.00553396  1
  O  O245  1  0.86772126  0.24836003  0.50675010  1
  O  O246  1  0.86725678  0.75800268  0.00106899  1
  O  O247  1  0.87033796  0.75390678  0.50558438  1
  O  O248  1  0.13173282  0.24175831  0.49866145  1
  O  O249  1  0.12643111  0.24875416  0.98639942  1
  O  O250  1  0.12333598  0.74495081  0.49239391  1
  O  O251  1  0.13051560  0.74657498  0.99519117  1
  O  O252  1  0.62914062  0.24181829  0.49566970  1
  O  O253  1  0.63259847  0.25041432  0.99484937  1
  O  O254  1  0.63129787  0.74274274  0.49884829  1
  O  O255  1  0.62993871  0.74518366  0.99352802  1
  O  O256  1  0.49393937  0.24273449  0.12661998  1
  O  O257  1  0.49759161  0.24868062  0.63505193  1
  O  O258  1  0.48991705  0.74766637  0.12664741  1
  O  O259  1  0.49756792  0.74289086  0.63246713  1
  O  O260  1  0.99551016  0.24612908  0.12860050  1
  O  O261  1  0.99512339  0.24425908  0.62946086  1
  O  O262  1  0.99782684  0.74193113  0.12990517  1
  O  O263  1  0.99523686  0.74471750  0.63089104  1
  O  O264  1  0.00432323  0.25280125  0.36485523  1
  O  O265  1  0.00762813  0.25712524  0.86954981  1
  O  O266  1  0.01056964  0.75600814  0.37509340  1
  O  O267  1  0.00577347  0.75669258  0.87059231  1
  O  O268  1  0.50705771  0.25663902  0.37327690  1
  O  O269  1  0.50572845  0.25659028  0.87106850  1
  O  O270  1  0.50143590  0.76317441  0.37142424  1
  O  O271  1  0.50584688  0.75497801  0.87030823  1
  O  O272  1  0.24520924  0.12851442  0.49539353  1
  O  O273  1  0.24763466  0.12772185  0.99053147  1
  O  O274  1  0.24090439  0.62675761  0.49773633  1
  O  O275  1  0.24485831  0.63164751  0.99523556  1
  O  O276  1  0.73830849  0.13039942  0.49962580  1
  O  O277  1  0.74902697  0.13383431  1.00011877  1
  O  O278  1  0.74480448  0.62824450  0.49545875  1
  O  O279  1  0.74482204  0.63002073  0.99399831  1
  O  O280  1  0.25788548  0.37447089  0.00718429  1
  O  O281  1  0.25464915  0.36939078  0.50686227  1
  O  O282  1  0.25442217  0.87010590  0.00548186  1
  O  O283  1  0.26206497  0.87524162  0.50053036  1
  O  O284  1  0.75677123  0.37029631  0.00553794  1
  O  O285  1  0.74879724  0.36793743  0.50739190  1
  O  O286  1  0.75383175  0.87014056  0.00396848  1
  O  O287  1  0.75587708  0.86739449  0.50068582  1
  O  O288  1  0.13022157  0.49592724  0.24438670  1
  O  O289  1  0.12976815  0.49688578  0.74083426  1
  O  O290  1  0.13006877  0.99517068  0.24484698  1
  O  O291  1  0.12910035  0.99599632  0.74564590  1
  O  O292  1  0.63104361  0.49443431  0.24440842  1
  O  O293  1  0.63526518  0.49318511  0.75007119  1
  O  O294  1  0.62479204  0.98782552  0.24317929  1
  O  O295  1  0.63083912  0.99643375  0.74348236  1
  O  O296  1  0.36808879  0.00453610  0.25434879  1
  O  O297  1  0.37008487  0.00387536  0.75659736  1
  O  O298  1  0.36980460  0.50445992  0.25475111  1
  O  O299  1  0.37462248  0.50690196  0.75846115  1
  O  O300  1  0.87630830  0.01321254  0.24929594  1
  O  O301  1  0.86405017  0.00430635  0.74757714  1
  O  O302  1  0.86867292  0.51103335  0.24861634  1
  O  O303  1  0.86265596  0.50055288  0.75191813  1
  O  O304  1  0.12251082  0.37294848  0.36495440  1
  O  O305  1  0.11780726  0.36728409  0.87425910  1
  O  O306  1  0.11955066  0.86911723  0.37216139  1
  O  O307  1  0.11852664  0.86989409  0.87042272  1
  O  O308  1  0.62006716  0.36952998  0.36976940  1
  O  O309  1  0.61928128  0.36949399  0.87025090  1
  O  O310  1  0.61671091  0.87578833  0.36679495  1
  O  O311  1  0.61830421  0.86908383  0.86916359  1
  O  O312  1  0.37949148  0.12907147  0.12986191  1
  O  O313  1  0.37796666  0.12525171  0.63350186  1
  O  O314  1  0.37487858  0.63112133  0.13167527  1
  O  O315  1  0.38169476  0.62560218  0.63176151  1
  O  O316  1  0.88207719  0.13200264  0.13208229  1
  O  O317  1  0.87976550  0.13027909  0.62972013  1
  O  O318  1  0.88058170  0.62621157  0.13351828  1
  O  O319  1  0.88261049  0.63243360  0.62832921  1
  O  O320  1  0.25744216  0.25718933  0.12267091  1
  O  O321  1  0.25101378  0.25895431  0.61922713  1
  O  O322  1  0.25354637  0.75642831  0.11987893  1
  O  O323  1  0.25443323  0.75637065  0.62288190  1
  O  O324  1  0.75680136  0.25740065  0.11980956  1
  O  O325  1  0.75424680  0.25393368  0.62047694  1
  O  O326  1  0.75049641  0.75707046  0.11607268  1
  O  O327  1  0.75608434  0.74986461  0.61872583  1
  O  O328  1  0.24892886  0.24238298  0.38136954  1
  O  O329  1  0.24110679  0.24572114  0.87398819  1
  O  O330  1  0.23550185  0.75025444  0.37876470  1
  O  O331  1  0.24378289  0.74532793  0.88148837  1
  O  O332  1  0.74247682  0.24718005  0.38176652  1
  O  O333  1  0.74424457  0.25082200  0.88179806  1
  O  O334  1  0.74780127  0.74153288  0.38280122  1
  O  O335  1  0.74355449  0.74571110  0.87903564  1
  O  O336  1  0.00095602  0.11944327  0.00646597  1
  O  O337  1  0.00462854  0.12052375  0.50531497  1
  O  O338  1  0.00726924  0.62600159  0.00617754  1
  O  O339  1  0.00538696  0.61692750  0.50736508  1
  O  O340  1  0.49995837  0.11649043  0.00682502  1
  O  O341  1  0.51247313  0.12209943  0.50099146  1
  O  O342  1  0.50771465  0.61784369  0.00062060  1
  O  O343  1  0.50371657  0.61977898  0.50399153  1
  O  O344  1  0.49511526  0.37938556  0.49448787  1
  O  O345  1  0.49550134  0.38097960  0.99499396  1
  O  O346  1  0.49291046  0.87670058  0.49032143  1
  O  O347  1  0.49344508  0.87931231  0.99397056  1
  O  O348  1  0.99949228  0.38621350  0.50141684  1
  O  O349  1  0.99570069  0.37566044  0.98933237  1
  O  O350  1  0.99400482  0.88098055  0.49534926  1
  O  O351  1  0.99418725  0.88067164  0.99580774  1
  O  O352  1  0.49411911  0.49305531  0.38023831  1
  O  O353  1  0.49593987  0.49423023  0.88118518  1
  O  O354  1  0.49348223  0.98846674  0.37501916  1
  O  O355  1  0.49430759  0.99356514  0.87963387  1
  O  O356  1  0.99906999  0.50002668  0.38846714  1
  O  O357  1  1.00149128  0.48840449  0.87443999  1
  O  O358  1  0.99840288  0.99391336  0.38256089  1
  O  O359  1  0.99896619  0.99416382  0.88158715  1
  O  O360  1  0.00626909  0.00564667  0.11963602  1
  O  O361  1  0.00453671  0.00617946  0.61986344  1
  O  O362  1  0.00831589  0.50864113  0.12200400  1
  O  O363  1  0.00576210  0.50415903  0.61963188  1
  O  O364  1  0.50365749  0.00359774  0.11908713  1
  O  O365  1  0.51353655  0.00231616  0.62460422  1
  O  O366  1  0.50815402  0.50060574  0.11798094  1
  O  O367  1  0.50063775  0.50561502  0.61771484  1
  O  O368  1  0.24516662  0.38055796  0.24364217  1
  O  O369  1  0.25052105  0.37640849  0.73764986  1
  O  O370  1  0.24400964  0.88170881  0.24533970  1
  O  O371  1  0.24238691  0.88249423  0.75173695  1
  O  O372  1  0.74570906  0.38057531  0.24402557  1
  O  O373  1  0.74520222  0.38141830  0.74601624  1
  O  O374  1  0.74055730  0.87402338  0.24424258  1
  O  O375  1  0.74278629  0.88418070  0.74794693  1
  O  O376  1  0.25525042  0.11927912  0.25482393  1
  O  O377  1  0.25571772  0.11887049  0.75585710  1
  O  O378  1  0.25641012  0.61727292  0.25310633  1
  O  O379  1  0.25693220  0.62451210  0.75804319  1
  O  O380  1  0.76295996  0.12483367  0.24756142  1
  O  O381  1  0.75440508  0.11537473  0.74945629  1
  O  O382  1  0.75662522  0.62048195  0.25409244  1
  O  O383  1  0.74927458  0.61543276  0.75498080  1
  O  O384  1  0.36994288  0.11886974  0.36984041  1
  O  O385  1  0.36998296  0.11833397  0.87008278  1
  O  O386  1  0.37342773  0.61801552  0.36845792  1
  O  O387  1  0.37017144  0.61977154  0.87136497  1
  O  O388  1  0.87515410  0.12616087  0.36136520  1
  O  O389  1  0.87229808  0.12257043  0.86533052  1
  O  O390  1  0.86943947  0.62237518  0.36585830  1
  O  O391  1  0.86718866  0.62363629  0.87174960  1
  O  O392  1  0.13160789  0.38165317  0.12906705  1
  O  O393  1  0.13579408  0.37937865  0.62490141  1
  O  O394  1  0.13000653  0.88040169  0.13145936  1
  O  O395  1  0.12368080  0.88288552  0.63247236  1
  O  O396  1  0.63207726  0.38020308  0.13027289  1
  O  O397  1  0.63168859  0.37568943  0.63318485  1
  O  O398  1  0.62805127  0.87906982  0.13175072  1
  O  O399  1  0.62498695  0.88366228  0.63032861  1
  O  O400  1  0.11935803  0.25758996  0.24834739  1
  O  O401  1  0.11904920  0.25112013  0.75980836  1
  O  O402  1  0.12421903  0.75683876  0.26081297  1
  O  O403  1  0.11887069  0.75625794  0.75655481  1
  O  O404  1  0.62460570  0.25644224  0.25600334  1
  O  O405  1  0.62028438  0.25529519  0.75675691  1
  O  O406  1  0.62270973  0.76243918  0.25056325  1
  O  O407  1  0.61965667  0.75467232  0.75512141  1
  O  O408  1  0.37679101  0.24242655  0.24299430  1
  O  O409  1  0.38199346  0.24265603  0.75072572  1
  O  O410  1  0.37294824  0.74335873  0.24418299  1
  O  O411  1  0.38290790  0.74312873  0.75197229  1
  O  O412  1  0.88106394  0.24416861  0.24257666  1
  O  O413  1  0.87972831  0.24396422  0.74319228  1
  O  O414  1  0.87503537  0.73692497  0.24883202  1
  O  O415  1  0.88181295  0.75069667  0.74361633  1
  O  O416  1  0.38062900  0.49389624  0.49310387  1
  O  O417  1  0.38139873  0.49493181  0.99527948  1
  O  O418  1  0.37760929  0.99177183  0.49316163  1
  O  O419  1  0.37941971  0.99294027  0.99443169  1
  O  O420  1  0.88672134  0.49938352  0.50190570  1
  O  O421  1  0.87859841  0.49212274  0.99595465  1
  O  O422  1  0.88066939  0.99387239  0.50022414  1
  O  O423  1  0.88114773  0.99402495  0.99971035  1
  O  O424  1  0.11789573  0.00050385  0.00740053  1
  O  O425  1  0.11877085  0.00554990  0.50624477  1
  O  O426  1  0.12513611  0.50883686  0.00703180  1
  O  O427  1  0.11692540  0.50524153  0.50616782  1
  O  O428  1  0.61699271  -0.00087580  0.00636407  1
  O  O429  1  0.62646828  0.00655908  0.50811931  1
  O  O430  1  0.62174961  0.50440644  0.00463953  1
  O  O431  1  0.61711976  0.50623981  0.50074505  1
  O  O432  1  0.37125980  0.37038694  0.12046715  1
  O  O433  1  0.36531269  0.37451052  0.61796145  1
  O  O434  1  0.36789169  0.87052060  0.12003581  1
  O  O435  1  0.37620675  0.87554979  0.61316636  1
  O  O436  1  0.87102467  0.37115139  0.11941480  1
  O  O437  1  0.86752862  0.36607196  0.62343828  1
  O  O438  1  0.86805838  0.87394659  0.11914221  1
  O  O439  1  0.87313583  0.86724595  0.61716729  1
  O  O440  1  0.13229749  0.12518929  0.38162546  1
  O  O441  1  0.12975047  0.13457538  0.87457892  1
  O  O442  1  0.12429943  0.63476167  0.38129411  1
  O  O443  1  0.13023286  0.63139647  0.88110378  1
  O  O444  1  0.62437071  0.12905915  0.38288088  1
  O  O445  1  0.62799816  0.13381918  0.87970425  1
  O  O446  1  0.63068378  0.62672632  0.38073684  1
  O  O447  1  0.63077658  0.63066035  0.88047969  1
