# generated using pymatgen
data_V3Zn3O8
_symmetry_space_group_name_H-M   'P 1'
_cell_length_a   17.09091727
_cell_length_b   17.09002084
_cell_length_c   17.09059014
_cell_angle_alpha   89.98719503
_cell_angle_beta   90.01227683
_cell_angle_gamma   90.00213360
_symmetry_Int_Tables_number   1
_chemical_formula_structural   V3Zn3O8
_chemical_formula_sum   'V96 Zn96 O256'
_cell_volume   4991.88994825
_cell_formula_units_Z   32
loop_
 _symmetry_equiv_pos_site_id
 _symmetry_equiv_pos_as_xyz
  1  'x, y, z'
loop_
 _atom_site_type_symbol
 _atom_site_label
 _atom_site_symmetry_multiplicity
 _atom_site_fract_x
 _atom_site_fract_y
 _atom_site_fract_z
 _atom_site_occupancy
  V  V0  1  0.24957112  0.25139034  0.50103103  1
  V  V1  1  0.25053892  0.87402577  0.12533291  1
  V  V2  1  0.74971703  0.87480277  0.12472311  1
  V  V3  1  0.25096681  0.62496933  0.37460233  1
  V  V4  1  0.37517501  0.75186180  0.62521590  1
  V  V5  1  0.75140241  0.75007394  0.00056071  1
  V  V6  1  0.62619491  0.49998582  0.12468489  1
  V  V7  1  0.62610622  0.37575519  0.74969091  1
  V  V8  1  -0.00081925  0.24935599  0.24915330  1
  V  V9  1  0.87560543  0.74986912  0.62490696  1
  V  V10  1  0.24984329  0.37589709  0.62493763  1
  V  V11  1  0.12599724  0.37482670  0.24864542  1
  V  V12  1  -0.00089433  -0.00151706  -0.00066670  1
  V  V13  1  0.12363255  0.87457766  0.75052481  1
  V  V14  1  0.62357124  0.12486929  0.50054968  1
  V  V15  1  0.25184824  0.62428777  0.87548479  1
  V  V16  1  0.50051991  0.37518475  0.87493233  1
  V  V17  1  0.37485099  0.25015604  0.12498235  1
  V  V18  1  0.50016543  -0.00014317  0.00063705  1
  V  V19  1  0.12495409  0.37490760  0.75013338  1
  V  V20  1  0.49917689  0.25053055  0.74976391  1
  V  V21  1  -0.00019513  0.25066750  0.75035987  1
  V  V22  1  0.50002313  0.87529867  0.87558566  1
  V  V23  1  0.74833052  0.74940872  0.49736607  1
  V  V24  1  0.87474145  0.37491923  0.49889503  1
  V  V25  1  0.24963126  0.00080889  0.25105398  1
  V  V26  1  0.37495561  0.87465145  0.00131292  1
  V  V27  1  -0.00005061  0.12452753  0.12528216  1
  V  V28  1  -0.00034801  0.37425196  0.37447213  1
  V  V29  1  0.50199308  0.62582137  0.62456409  1
  V  V30  1  0.37415034  0.25070752  0.62529368  1
  V  V31  1  0.62309406  0.00088219  0.62530720  1
  V  V32  1  0.24941239  0.12526289  0.37502906  1
  V  V33  1  0.50180929  0.49975306  -0.00066642  1
  V  V34  1  0.87559810  0.37501831  -0.00136094  1
  V  V35  1  0.62514069  0.87648487  0.74919352  1
  V  V36  1  0.49872389  0.12599140  0.62509518  1
  V  V37  1  0.75060401  0.62480532  0.37428739  1
  V  V38  1  0.37681822  0.62596237  0.24986553  1
  V  V39  1  0.75260145  0.49963855  0.25000027  1
  V  V40  1  0.12503340  0.74919295  0.87574617  1
  V  V41  1  0.12352283  0.12548554  0.50069053  1
  V  V42  1  -0.00082730  0.00078677  0.50002109  1
  V  V43  1  0.49939848  0.12435176  0.12610790  1
  V  V44  1  0.62498552  0.24995466  0.87597674  1
  V  V45  1  0.37427219  0.00070370  0.87547788  1
  V  V46  1  0.37551297  0.49991291  0.87460749  1
  V  V47  1  0.25022133  0.49972189  0.24999824  1
  V  V48  1  0.12443966  0.25004947  0.37499498  1
  V  V49  1  0.24998211  0.75094495  0.50127884  1
  V  V50  1  0.74945616  0.37569497  0.62494944  1
  V  V51  1  0.12506473  0.62493105  0.50052298  1
  V  V52  1  0.75071652  0.62509364  0.87413679  1
  V  V53  1  0.87388128  0.12452256  0.75022460  1
  V  V54  1  0.50041338  0.62579224  0.12552093  1
  V  V55  1  0.87566332  0.24843998  0.12393523  1
  V  V56  1  0.49911817  0.87483517  0.37532353  1
  V  V57  1  0.87453228  -0.00032801  0.87440010  1
  V  V58  1  0.50046073  0.25019752  0.25139649  1
  V  V59  1  0.87420986  0.25000834  0.62538101  1
  V  V60  1  0.74995006  0.24983676  0.00022429  1
  V  V61  1  0.75039956  0.50013819  0.74873389  1
  V  V62  1  0.00177567  0.49954848  -0.00049235  1
  V  V63  1  0.25122966  0.74972743  0.00062051  1
  V  V64  1  0.12517993  0.75033905  0.37557823  1
  V  V65  1  0.74941501  0.00039364  0.74949875  1
  V  V66  1  0.74927631  -0.00075329  0.24974808  1
  V  V67  1  0.37380590  0.12502469  0.25101723  1
  V  V68  1  0.25070743  0.37458691  0.12525608  1
  V  V69  1  -0.00003809  0.87509251  0.37448683  1
  V  V70  1  0.87474677  0.87473618  0.49950391  1
  V  V71  1  -0.00076043  0.12475178  0.62424970  1
  V  V72  1  0.87483543  0.87471155  -0.00046599  1
  V  V73  1  0.24947117  -0.00006374  0.75073797  1
  V  V74  1  0.50010347  0.75051402  0.74959502  1
  V  V75  1  0.62489448  0.12584659  0.00002675  1
  V  V76  1  0.62650404  0.62435941  -0.00039301  1
  V  V77  1  0.49954240  0.49978348  0.49900426  1
  V  V78  1  0.12528706  0.12470584  -0.00054937  1
  V  V79  1  0.12498569  0.24920301  0.87462732  1
  V  V80  1  0.62517129  0.75045682  0.87475167  1
  V  V81  1  0.12443284  -0.00040466  0.12476832  1
  V  V82  1  0.74833991  0.12426723  0.37512971  1
  V  V83  1  0.24998276  0.87494829  0.62524111  1
  V  V84  1  0.87345659  0.00032021  0.37436855  1
  V  V85  1  0.00122288  0.50079452  0.49997233  1
  V  V86  1  0.25025423  0.49991804  0.75030977  1
  V  V87  1  0.87622698  0.62525646  0.74947118  1
  V  V88  1  -0.00004870  0.74892980  0.24905481  1
  V  V89  1  0.62362770  0.37378398  0.25192708  1
  V  V90  1  0.00112132  0.62497284  0.12540125  1
  V  V91  1  0.74863176  0.25000527  0.49903214  1
  V  V92  1  0.24946506  0.12439841  0.87538044  1
  V  V93  1  0.12536873  0.87500574  0.25027702  1
  V  V94  1  0.37546644  0.37435143  0.00093347  1
  V  V95  1  0.62532813  -0.00097872  0.12553158  1
  Zn  Zn96  1  0.87647882  0.49968556  0.87364669  1
  Zn  Zn97  1  0.62537233  0.62435300  0.49894690  1
  Zn  Zn98  1  0.74805152  0.87622996  0.62304226  1
  Zn  Zn99  1  0.24992829  0.24988272  -0.00021680  1
  Zn  Zn100  1  0.12615136  0.50217745  0.62665268  1
  Zn  Zn101  1  -0.00017369  0.74926925  0.75034546  1
  Zn  Zn102  1  0.00126232  0.37602360  0.87370743  1
  Zn  Zn103  1  0.62436410  0.87209232  0.25013809  1
  Zn  Zn104  1  0.87495882  0.74976518  0.12535339  1
  Zn  Zn105  1  0.62310147  0.75040775  0.37245943  1
  Zn  Zn106  1  0.37563097  0.62525996  0.75080359  1
  Zn  Zn107  1  0.37715277  0.75075129  0.12512403  1
  Zn  Zn108  1  0.87621859  0.62543954  0.24928663  1
  Zn  Zn109  1  0.12743490  0.62276831  0.00074412  1
  Zn  Zn110  1  0.37431371  0.37640989  0.49789458  1
  Zn  Zn111  1  0.12705356  0.49921717  0.12402356  1
  Zn  Zn112  1  0.87389326  0.12508796  0.24962786  1
  Zn  Zn113  1  0.49749040  0.37408698  0.37783893  1
  Zn  Zn114  1  0.37380948  0.87837026  0.49982560  1
  Zn  Zn115  1  0.37384018  0.12554912  0.75059158  1
  Zn  Zn116  1  0.74932418  0.12516839  0.87480561  1
  Zn  Zn117  1  0.12446173  0.00009853  0.62528329  1
  Zn  Zn118  1  0.37399444  0.00003201  0.37813983  1
  Zn  Zn119  1  0.49580956  0.00069288  0.50033507  1
  Zn  Zn120  1  0.00271184  0.62457488  0.62588466  1
  Zn  Zn121  1  0.50320558  0.75043159  0.24930854  1
  Zn  Zn122  1  0.75053926  0.37400693  0.12571869  1
  Zn  Zn123  1  0.87582833  0.49935816  0.37340845  1
  Zn  Zn124  1  -0.00156567  0.87328897  0.87466694  1
  Zn  Zn125  1  0.62287816  0.24895464  0.37615318  1
  Zn  Zn126  1  0.62584628  0.50082418  0.62363127  1
  Zn  Zn127  1  0.37584498  0.49866109  0.37601594  1
  Zn  Zn128  1  0.18740051  0.18855924  0.18686330  1
  Zn  Zn129  1  0.18709699  0.18715246  0.68771484  1
  Zn  Zn130  1  0.18730827  0.68698831  0.18706880  1
  Zn  Zn131  1  0.18878565  0.68635698  0.68811186  1
  Zn  Zn132  1  0.68850686  0.18673511  0.18719123  1
  Zn  Zn133  1  0.68671721  0.18761380  0.68727763  1
  Zn  Zn134  1  0.68618528  0.68900978  0.18837284  1
  Zn  Zn135  1  0.68788640  0.68864992  0.68669579  1
  Zn  Zn136  1  0.31457568  0.31372747  0.31450568  1
  Zn  Zn137  1  0.31165385  0.31218743  0.81246407  1
  Zn  Zn138  1  0.31460036  0.81186180  0.31335697  1
  Zn  Zn139  1  0.31287891  0.81253826  0.81212993  1
  Zn  Zn140  1  0.81202746  0.31107578  0.31294023  1
  Zn  Zn141  1  0.81222387  0.31217371  0.81400024  1
  Zn  Zn142  1  0.81423109  0.81238707  0.30974541  1
  Zn  Zn143  1  0.81069070  0.81416297  0.81238250  1
  Zn  Zn144  1  0.18750701  0.43828358  0.43648497  1
  Zn  Zn145  1  0.18816487  0.43569650  0.93699083  1
  Zn  Zn146  1  0.18674430  0.93882247  0.43877920  1
  Zn  Zn147  1  0.18784076  0.93677563  0.93777498  1
  Zn  Zn148  1  0.68466031  0.43908054  0.43764062  1
  Zn  Zn149  1  0.69037580  0.43770321  0.93561846  1
  Zn  Zn150  1  0.68387177  0.93773741  0.43764005  1
  Zn  Zn151  1  0.68846448  0.93846123  0.93727252  1
  Zn  Zn152  1  0.31180417  0.06215074  0.06293170  1
  Zn  Zn153  1  0.31273320  0.06217943  0.56329217  1
  Zn  Zn154  1  0.31377172  0.56183139  0.06320262  1
  Zn  Zn155  1  0.31464184  0.56356872  0.56380738  1
  Zn  Zn156  1  0.81201923  0.06246345  0.06177739  1
  Zn  Zn157  1  0.81030109  0.06254750  0.56270662  1
  Zn  Zn158  1  0.81473590  0.56228957  0.06365008  1
  Zn  Zn159  1  0.81430582  0.56173165  0.56199380  1
  Zn  Zn160  1  0.43791944  0.43893827  0.18776257  1
  Zn  Zn161  1  0.43616100  0.43774770  0.68617085  1
  Zn  Zn162  1  0.43650706  0.93773904  0.19054289  1
  Zn  Zn163  1  0.43637784  0.93877645  0.68793536  1
  Zn  Zn164  1  0.93829829  0.43616902  0.18467959  1
  Zn  Zn165  1  0.93817746  0.43762032  0.68532192  1
  Zn  Zn166  1  0.93546866  0.93711332  0.18714287  1
  Zn  Zn167  1  0.93735100  0.93681042  0.68696453  1
  Zn  Zn168  1  0.06193443  0.06307829  0.31244398  1
  Zn  Zn169  1  0.06087515  0.06219941  0.81303284  1
  Zn  Zn170  1  0.06468813  0.56142742  0.31248626  1
  Zn  Zn171  1  0.06306669  0.56241140  0.81354922  1
  Zn  Zn172  1  0.56236763  0.05950923  0.31350574  1
  Zn  Zn173  1  0.56167044  0.06412230  0.81209092  1
  Zn  Zn174  1  0.56450896  0.56238250  0.31381522  1
  Zn  Zn175  1  0.56363542  0.56244613  0.81091283  1
  Zn  Zn176  1  0.43666238  0.18884030  0.43774942  1
  Zn  Zn177  1  0.43701986  0.18733789  0.93774643  1
  Zn  Zn178  1  0.43600555  0.68974919  0.43813535  1
  Zn  Zn179  1  0.43774574  0.68731841  0.93829333  1
  Zn  Zn180  1  0.93527264  0.18727859  0.43662644  1
  Zn  Zn181  1  0.93833775  0.18622122  0.93621177  1
  Zn  Zn182  1  0.93622654  0.68608911  0.43575334  1
  Zn  Zn183  1  0.93853317  0.68728096  0.93785654  1
  Zn  Zn184  1  0.06329343  0.31166879  0.06222063  1
  Zn  Zn185  1  0.06316969  0.31337543  0.56401198  1
  Zn  Zn186  1  0.06264426  0.81219088  0.06190670  1
  Zn  Zn187  1  0.06211813  0.81222027  0.56281690  1
  Zn  Zn188  1  0.56268701  0.31259461  0.06493158  1
  Zn  Zn189  1  0.56261229  0.31311163  0.56326479  1
  Zn  Zn190  1  0.56323707  0.81121785  0.06357056  1
  Zn  Zn191  1  0.56208648  0.81459679  0.56030009  1
  O  O192  1  0.12003570  0.11906832  0.11972499  1
  O  O193  1  0.11676364  0.12448610  0.61854866  1
  O  O194  1  0.11384243  0.62241055  0.12227253  1
  O  O195  1  0.12232245  0.62409238  0.61684866  1
  O  O196  1  0.61842103  0.11952498  0.11940551  1
  O  O197  1  0.61861507  0.12090017  0.62042631  1
  O  O198  1  0.62076129  0.61867136  0.11842868  1
  O  O199  1  0.61310458  0.62571337  0.62377390  1
  O  O200  1  0.37930326  0.38046289  0.37894801  1
  O  O201  1  0.38137460  0.37977701  0.88092653  1
  O  O202  1  0.38490481  0.87646344  0.37659892  1
  O  O203  1  0.38053871  0.88068226  0.88118762  1
  O  O204  1  0.88208265  0.37504781  0.38159825  1
  O  O205  1  0.87808256  0.37580695  0.88722366  1
  O  O206  1  0.88133150  0.88017255  0.38035657  1
  O  O207  1  0.87608621  0.88109283  0.88087285  1
  O  O208  1  0.24774260  0.00768864  0.36792672  1
  O  O209  1  0.25496827  0.00432711  0.87084428  1
  O  O210  1  0.25051290  0.50796993  0.36806517  1
  O  O211  1  0.25609032  0.50445674  0.87073863  1
  O  O212  1  0.75462120  0.00412810  0.37038177  1
  O  O213  1  0.75604155  0.00238496  0.86788405  1
  O  O214  1  0.75054516  0.50706781  0.36651023  1
  O  O215  1  0.75370221  0.50763886  0.86758046  1
  O  O216  1  0.24912009  0.49281974  0.13132639  1
  O  O217  1  0.24953166  0.49456858  0.63203942  1
  O  O218  1  0.24334944  0.99435280  0.13081576  1
  O  O219  1  0.24598973  0.99363564  0.63276396  1
  O  O220  1  0.74486011  0.49958058  0.13443789  1
  O  O221  1  0.74936994  0.49376598  0.63052909  1
  O  O222  1  0.74464609  0.99510319  0.12915692  1
  O  O223  1  0.74228609  0.99867132  0.63152391  1
  O  O224  1  0.00543400  0.36928893  0.25421913  1
  O  O225  1  0.00528235  0.36873606  0.75028381  1
  O  O226  1  0.00615994  0.87025890  0.25483918  1
  O  O227  1  0.01112074  0.87196626  0.75186950  1
  O  O228  1  0.50965185  0.37052998  0.24893728  1
  O  O229  1  0.50592742  0.37074912  0.75554352  1
  O  O230  1  0.49980161  0.87310693  0.26123746  1
  O  O231  1  0.50565515  0.87018088  0.75661270  1
  O  O232  1  0.49457260  0.12941810  0.24455106  1
  O  O233  1  0.49848322  0.13333498  0.74386317  1
  O  O234  1  0.49191011  0.62292594  0.24481618  1
  O  O235  1  0.49998144  0.63158604  0.74157026  1
  O  O236  1  0.99892021  0.13153750  0.24330885  1
  O  O237  1  0.99399748  0.13023267  0.74374924  1
  O  O238  1  1.00087526  0.62894204  0.24209361  1
  O  O239  1  0.98857998  0.62672162  0.74833065  1
  O  O240  1  0.37527431  0.25684981  0.00714668  1
  O  O241  1  0.36659162  0.25146959  0.50750787  1
  O  O242  1  0.36897915  0.75737012  0.00041392  1
  O  O243  1  0.36620380  0.75245471  0.50784936  1
  O  O244  1  0.87168093  0.25678700  0.00358996  1
  O  O245  1  0.86914670  0.25529964  0.50598194  1
  O  O246  1  0.86857568  0.75622228  0.00001819  1
  O  O247  1  0.86801899  0.75366488  0.50616484  1
  O  O248  1  0.12872785  0.24495366  0.49425643  1
  O  O249  1  0.12562914  0.24232784  0.99333477  1
  O  O250  1  0.12938238  0.74507137  0.49427837  1
  O  O251  1  0.13194769  0.75065976  0.98953627  1
  O  O252  1  0.63180628  0.24385997  0.49967974  1
  O  O253  1  0.62917232  0.24585770  0.99603574  1
  O  O254  1  0.63963234  0.74861262  0.49936616  1
  O  O255  1  0.63098558  0.74371459  0.99360592  1
  O  O256  1  0.49455751  0.24355164  0.13089605  1
  O  O257  1  0.49431636  0.24600304  0.63094225  1
  O  O258  1  0.49771393  0.74097404  0.12613454  1
  O  O259  1  0.49611872  0.74423891  0.62931050  1
  O  O260  1  0.99553452  0.24390278  0.12961731  1
  O  O261  1  0.99316322  0.24491303  0.62999660  1
  O  O262  1  1.00123066  0.74082840  0.12964679  1
  O  O263  1  0.98630707  0.74736912  0.62488663  1
  O  O264  1  0.00487155  0.25453953  0.36974751  1
  O  O265  1  0.00681552  0.25034561  0.86747799  1
  O  O266  1  0.00535011  0.75554350  0.37024713  1
  O  O267  1  0.01285716  0.75113435  0.87373365  1
  O  O268  1  0.50315191  0.25211221  0.36638034  1
  O  O269  1  0.50507065  0.25633666  0.87050816  1
  O  O270  1  0.50112402  0.76089786  0.37459714  1
  O  O271  1  0.50607528  0.75541635  0.87055707  1
  O  O272  1  0.24252234  0.13161949  0.49531783  1
  O  O273  1  0.24271177  0.12519262  0.99399977  1
  O  O274  1  0.24501241  0.63088927  0.49492307  1
  O  O275  1  0.24904576  0.63036455  0.99408356  1
  O  O276  1  0.74402535  0.13083107  0.49547327  1
  O  O277  1  0.74240204  0.13160315  0.99853582  1
  O  O278  1  0.75196836  0.63225394  0.49195891  1
  O  O279  1  0.74584692  0.62906823  0.99461585  1
  O  O280  1  0.25800437  0.37359390  0.00656562  1
  O  O281  1  0.24820745  0.36849505  0.50667821  1
  O  O282  1  0.25562185  0.87049657  0.00575129  1
  O  O283  1  0.24703950  0.86790945  0.50752592  1
  O  O284  1  0.75965403  0.37029928  0.00160252  1
  O  O285  1  0.75451835  0.37057070  0.50431221  1
  O  O286  1  0.75481694  0.86970179  0.00460531  1
  O  O287  1  0.75651779  0.86521784  0.49910383  1
  O  O288  1  0.13196552  0.49193361  0.24837116  1
  O  O289  1  0.13149817  0.49358466  0.74989786  1
  O  O290  1  0.12919019  0.99448019  0.24437180  1
  O  O291  1  0.12954491  0.98905462  0.75120593  1
  O  O292  1  0.63318658  0.49293468  0.24518852  1
  O  O293  1  0.63238991  0.49332769  0.74832881  1
  O  O294  1  0.63172346  0.99794192  0.24173698  1
  O  O295  1  0.62933294  0.99564834  0.74569714  1
  O  O296  1  0.36605738  0.00835847  0.25115241  1
  O  O297  1  0.36753872  0.00077468  0.75864145  1
  O  O298  1  0.36962268  0.51102721  0.25042639  1
  O  O299  1  0.36889438  0.50055708  0.75789638  1
  O  O300  1  0.86844393  0.00138200  0.25702670  1
  O  O301  1  0.86987608  0.00465663  0.75399031  1
  O  O302  1  0.86324592  0.49830022  0.25016239  1
  O  O303  1  0.87030579  0.50981063  0.74922504  1
  O  O304  1  0.11942297  0.36842293  0.36886846  1
  O  O305  1  0.12393155  0.36724781  0.86813193  1
  O  O306  1  0.11912774  0.86996177  0.36979385  1
  O  O307  1  0.12674000  0.86578319  0.86647078  1
  O  O308  1  0.62282791  0.37383905  0.36179755  1
  O  O309  1  0.61970384  0.36986980  0.87011357  1
  O  O310  1  0.61238542  0.87401227  0.37362633  1
  O  O311  1  0.61902163  0.87011812  0.87039091  1
  O  O312  1  0.38001032  0.12971817  0.13039724  1
  O  O313  1  0.38016543  0.13294534  0.62838649  1
  O  O314  1  0.38171833  0.62508864  0.13347411  1
  O  O315  1  0.38651136  0.63278610  0.62777382  1
  O  O316  1  0.88289732  0.13044181  0.12496813  1
  O  O317  1  0.87975319  0.13081247  0.62980189  1
  O  O318  1  0.88888995  0.62652361  0.12654269  1
  O  O319  1  0.87488474  0.63321523  0.63356107  1
  O  O320  1  0.25748033  0.25607043  0.12365897  1
  O  O321  1  0.25413392  0.25532043  0.62064484  1
  O  O322  1  0.25034140  0.75675474  0.11842120  1
  O  O323  1  0.25540146  0.75504527  0.62116953  1
  O  O324  1  0.75715781  0.25148404  0.11805871  1
  O  O325  1  0.75562187  0.25564989  0.61961850  1
  O  O326  1  0.75130097  0.75535513  0.11713876  1
  O  O327  1  0.75989966  0.74985128  0.61540471  1
  O  O328  1  0.24306988  0.24482138  0.38005234  1
  O  O329  1  0.24330802  0.24270556  0.87649966  1
  O  O330  1  0.24382813  0.74524162  0.38056046  1
  O  O331  1  0.24341481  0.74526636  0.87998261  1
  O  O332  1  0.74775015  0.24292615  0.38150827  1
  O  O333  1  0.74247582  0.24860969  0.88199430  1
  O  O334  1  0.75344909  0.74224615  0.38313582  1
  O  O335  1  0.74364914  0.74475454  0.88007117  1
  O  O336  1  0.00573914  0.11826291  0.00570173  1
  O  O337  1  0.00357873  0.12059601  0.50452719  1
  O  O338  1  0.00100965  0.61610003  0.00731214  1
  O  O339  1  0.00492046  0.61556660  0.49796432  1
  O  O340  1  0.50458335  0.11933930  0.00645139  1
  O  O341  1  0.50625006  0.12578396  0.50756682  1
  O  O342  1  0.50713675  0.61876319  0.00399583  1
  O  O343  1  0.50139797  0.62010333  0.50900392  1
  O  O344  1  0.49949140  0.38694314  0.50151685  1
  O  O345  1  0.49626110  0.38069172  0.99499878  1
  O  O346  1  0.49742865  0.87677542  0.48878827  1
  O  O347  1  0.49545759  0.88044797  0.99479277  1
  O  O348  1  0.99606450  0.38172172  0.49485433  1
  O  O349  1  0.99235015  0.38280247  1.00052777  1
  O  O350  1  0.99511880  0.88009097  0.49391592  1
  O  O351  1  0.99376125  0.88140962  0.99896443  1
  O  O352  1  0.50036412  0.50127058  0.38753781  1
  O  O353  1  0.49651370  0.49454846  0.87992899  1
  O  O354  1  0.49677251  0.98866505  0.37652217  1
  O  O355  1  0.49510201  0.99469448  0.88091580  1
  O  O356  1  0.99948300  0.49337230  0.38371065  1
  O  O357  1  0.99685350  0.49892515  0.88663963  1
  O  O358  1  0.99427299  0.99465423  0.37998256  1
  O  O359  1  0.99304996  0.99774259  0.88191894  1
  O  O360  1  0.00562719  0.00443885  0.11990866  1
  O  O361  1  0.00030736  0.00651698  0.61786624  1
  O  O362  1  0.00189006  0.50709281  0.11662807  1
  O  O363  1  0.00231531  0.50135818  0.61115715  1
  O  O364  1  0.50454370  0.00503339  0.11975325  1
  O  O365  1  0.50590754  0.00791174  0.62616471  1
  O  O366  1  0.50665007  0.50546603  0.11822349  1
  O  O367  1  0.50043001  0.51028538  0.61902248  1
  O  O368  1  0.24558179  0.37958969  0.24486207  1
  O  O369  1  0.24425743  0.38032511  0.74523840  1
  O  O370  1  0.24424049  0.87981233  0.24569971  1
  O  O371  1  0.24119699  0.87921249  0.74604945  1
  O  O372  1  0.74191755  0.38290625  0.24956950  1
  O  O373  1  0.74657948  0.38008814  0.74505253  1
  O  O374  1  0.74974193  0.88191622  0.24277774  1
  O  O375  1  0.74227802  0.88167376  0.74755193  1
  O  O376  1  0.25332005  0.12067442  0.25497552  1
  O  O377  1  0.24936891  0.11757554  0.75743288  1
  O  O378  1  0.25705101  0.62028861  0.25385699  1
  O  O379  1  0.25293593  0.61845666  0.75754131  1
  O  O380  1  0.75114001  0.11773772  0.25638819  1
  O  O381  1  0.75639775  0.11922974  0.75096316  1
  O  O382  1  0.75076824  0.61533392  0.25635306  1
  O  O383  1  0.75768140  0.62126334  0.75367918  1
  O  O384  1  0.36631771  0.12587700  0.36774726  1
  O  O385  1  0.36860919  0.11816231  0.87477796  1
  O  O386  1  0.36886371  0.62437279  0.36565219  1
  O  O387  1  0.37046186  0.61756612  0.87429893  1
  O  O388  1  0.86717452  0.11784585  0.37407913  1
  O  O389  1  0.87339804  0.11825449  0.86770379  1
  O  O390  1  0.86337254  0.62127952  0.37137590  1
  O  O391  1  0.86928077  0.62660758  0.86408469  1
  O  O392  1  0.13214320  0.37431494  0.13159333  1
  O  O393  1  0.13205854  0.37621440  0.63268624  1
  O  O394  1  0.13029216  0.88041241  0.13077528  1
  O  O395  1  0.12987155  0.87362777  0.63589650  1
  O  O396  1  0.62699469  0.38137533  0.13501779  1
  O  O397  1  0.63271319  0.37554365  0.63312740  1
  O  O398  1  0.63186166  0.88258625  0.12350661  1
  O  O399  1  0.62527270  0.88156199  0.63186818  1
  O  O400  1  0.11904153  0.25496074  0.25556378  1
  O  O401  1  0.11888086  0.25468613  0.75506406  1
  O  O402  1  0.12042151  0.75597788  0.25635832  1
  O  O403  1  0.12621132  0.75782034  0.75898963  1
  O  O404  1  0.62009733  0.25929540  0.24844159  1
  O  O405  1  0.61976328  0.25622658  0.75599905  1
  O  O406  1  0.62193965  0.75395156  0.25433127  1
  O  O407  1  0.62058155  0.75618622  0.75560361  1
  O  O408  1  0.38039470  0.24447254  0.24379746  1
  O  O409  1  0.38191532  0.24957766  0.74437103  1
  O  O410  1  0.37537613  0.73588640  0.24725224  1
  O  O411  1  0.38291032  0.74939026  0.74452800  1
  O  O412  1  0.88147535  0.24913028  0.24243647  1
  O  O413  1  0.87932228  0.24498956  0.74475656  1
  O  O414  1  0.88480680  0.74734387  0.24618580  1
  O  O415  1  0.87299243  0.74268789  0.74157126  1
  O  O416  1  0.38662606  0.50030132  0.49934046  1
  O  O417  1  0.38264832  0.49391471  0.99463943  1
  O  O418  1  0.37678426  0.99679740  0.49659447  1
  O  O419  1  0.38087906  0.99438459  0.99552729  1
  O  O420  1  0.88475341  0.49347371  0.49812376  1
  O  O421  1  0.88323507  0.49127779  1.00000869  1
  O  O422  1  0.87924761  0.99436981  0.49478682  1
  O  O423  1  0.87952075  0.99473454  0.99424740  1
  O  O424  1  0.11955394  0.00408007  0.00552245  1
  O  O425  1  0.11665015  0.00735758  0.50136739  1
  O  O426  1  0.11385517  0.49966245  0.00128251  1
  O  O427  1  0.11584349  0.50579107  0.49990916  1
  O  O428  1  0.61908118  0.00565852  0.00485882  1
  O  O429  1  0.62309544  0.00763727  0.50845989  1
  O  O430  1  0.62156716  0.50465240  0.00389154  1
  O  O431  1  0.61532264  0.50377544  0.50419342  1
  O  O432  1  0.37109563  0.36984302  0.12049568  1
  O  O433  1  0.36715843  0.36813146  0.62339769  1
  O  O434  1  0.36828738  0.87446029  0.11914881  1
  O  O435  1  0.36760870  0.86866642  0.62549631  1
  O  O436  1  0.87458066  0.36811339  0.11338003  1
  O  O437  1  0.86920011  0.36882490  0.61894719  1
  O  O438  1  0.86776749  0.87411256  0.11682169  1
  O  O439  1  0.87268916  0.86555259  0.61899478  1
  O  O440  1  0.12890940  0.13132158  0.38047979  1
  O  O441  1  0.12966939  0.12894822  0.88034257  1
  O  O442  1  0.13104795  0.63170767  0.37988585  1
  O  O443  1  0.13194782  0.63494923  0.87571934  1
  O  O444  1  0.63118715  0.12495101  0.38218040  1
  O  O445  1  0.62448635  0.13234521  0.88248901  1
  O  O446  1  0.63970762  0.62745807  0.37681453  1
  O  O447  1  0.63060924  0.63066640  0.87978993  1
