# generated using pymatgen
data_V3Zn3O8
_symmetry_space_group_name_H-M   'P 1'
_cell_length_a   17.08734852
_cell_length_b   17.08829431
_cell_length_c   17.08767355
_cell_angle_alpha   90.01183143
_cell_angle_beta   89.99447626
_cell_angle_gamma   90.01359365
_symmetry_Int_Tables_number   1
_chemical_formula_structural   V3Zn3O8
_chemical_formula_sum   'V96 Zn96 O256'
_cell_volume   4989.49173569
_cell_formula_units_Z   32
loop_
 _symmetry_equiv_pos_site_id
 _symmetry_equiv_pos_as_xyz
  1  'x, y, z'
loop_
 _atom_site_type_symbol
 _atom_site_label
 _atom_site_symmetry_multiplicity
 _atom_site_fract_x
 _atom_site_fract_y
 _atom_site_fract_z
 _atom_site_occupancy
  V  V0  1  0.87314354  0.12612344  0.74902018  1
  V  V1  1  0.74777147  0.25008482  -0.00049672  1
  V  V2  1  0.12471438  0.00010786  0.62458238  1
  V  V3  1  0.24909468  0.12519400  0.87609046  1
  V  V4  1  0.50055400  0.24994646  0.75122137  1
  V  V5  1  0.12564371  0.25019543  0.37479981  1
  V  V6  1  0.50007834  0.87489331  0.37574724  1
  V  V7  1  0.49993442  0.49992726  0.50149308  1
  V  V8  1  0.75038981  0.25122575  0.49923994  1
  V  V9  1  0.87611917  0.75014786  0.12331745  1
  V  V10  1  0.00042344  0.62597906  0.12516536  1
  V  V11  1  0.37568182  0.49939198  0.37621559  1
  V  V12  1  0.62573252  0.87416648  0.24973554  1
  V  V13  1  0.25000475  0.37454646  0.62626169  1
  V  V14  1  0.00030906  0.25149770  0.75003192  1
  V  V15  1  0.37646249  0.62434873  0.25142317  1
  V  V16  1  0.12559700  0.12573014  -0.00036604  1
  V  V17  1  0.75016939  0.62510040  0.87460295  1
  V  V18  1  0.24975180  0.12546684  0.37583107  1
  V  V19  1  0.24850595  -0.00017607  0.74929373  1
  V  V20  1  0.12434280  0.87583444  0.24976501  1
  V  V21  1  0.62459188  0.50098710  0.62501224  1
  V  V22  1  -0.00005197  0.00187879  0.49976077  1
  V  V23  1  0.12390002  0.00035592  0.12482649  1
  V  V24  1  0.24978529  0.75002011  0.49997594  1
  V  V25  1  0.37447121  0.24945771  0.62551307  1
  V  V26  1  0.50028846  0.62504421  0.62644941  1
  V  V27  1  0.37577363  0.12467258  0.25046208  1
  V  V28  1  0.62410117  0.12477731  0.50058777  1
  V  V29  1  0.12376772  0.75124340  0.87359991  1
  V  V30  1  0.00006140  0.37539212  0.37474871  1
  V  V31  1  0.62531939  0.12502966  -0.00200073  1
  V  V32  1  0.62485621  0.25016276  0.37432630  1
  V  V33  1  0.37523048  -0.00098679  0.37552461  1
  V  V34  1  0.25008761  0.62464684  0.87612186  1
  V  V35  1  0.62542085  0.37393366  0.25052916  1
  V  V36  1  0.12590509  0.37607582  0.24902804  1
  V  V37  1  0.12577340  0.50008580  0.12586310  1
  V  V38  1  0.62630091  0.75006899  0.37522181  1
  V  V39  1  0.87652264  0.62612474  0.74824267  1
  V  V40  1  0.50068548  0.74870430  0.25079954  1
  V  V41  1  0.12575835  0.75067748  0.37530805  1
  V  V42  1  0.87447885  0.37558772  -0.00083516  1
  V  V43  1  0.87567417  0.75083413  0.62505544  1
  V  V44  1  -0.00070006  0.12593951  0.12449413  1
  V  V45  1  0.75032152  0.37563637  0.62413629  1
  V  V46  1  0.87462747  0.87583546  0.50011534  1
  V  V47  1  0.74994552  0.12480270  0.37407056  1
  V  V48  1  0.12406174  0.37497933  0.75148254  1
  V  V49  1  -0.00147392  0.00007265  -0.00161650  1
  V  V50  1  -0.00028021  0.37556832  0.87519225  1
  V  V51  1  0.12573013  0.62508634  -0.00016301  1
  V  V52  1  0.50037947  0.12391209  0.62408063  1
  V  V53  1  0.24960615  0.87555510  0.62599515  1
  V  V54  1  0.37564905  0.49877403  0.87665922  1
  V  V55  1  0.74995270  0.49954982  0.25023024  1
  V  V56  1  -0.00032270  0.25046958  0.24892479  1
  V  V57  1  0.50016535  0.24932137  0.25092055  1
  V  V58  1  0.12544597  0.50092799  0.62519408  1
  V  V59  1  0.74919100  0.37550805  0.12518976  1
  V  V60  1  0.62411573  0.37401577  0.75107663  1
  V  V61  1  0.75030479  0.75058838  0.49875566  1
  V  V62  1  0.74985489  0.50047753  0.74931717  1
  V  V63  1  0.00022473  0.12569725  0.62455796  1
  V  V64  1  0.87418988  -0.00011905  0.87409922  1
  V  V65  1  0.49902198  0.49769091  0.00074130  1
  V  V66  1  0.87511336  0.25010065  0.12452306  1
  V  V67  1  -0.00023753  0.87603087  0.37446102  1
  V  V68  1  0.75037959  -0.00007720  0.24940568  1
  V  V69  1  0.00134574  0.50134063  0.50010321  1
  V  V70  1  0.87489720  0.37543912  0.49922165  1
  V  V71  1  0.37360266  0.24999850  0.12400992  1
  V  V72  1  0.25073555  0.49926675  0.75109160  1
  V  V73  1  0.37534235  0.37551189  0.50054785  1
  V  V74  1  0.24976758  0.00004576  0.25072401  1
  V  V75  1  0.87455176  0.00085086  0.37362566  1
  V  V76  1  0.62507012  0.62404506  0.00099432  1
  V  V77  1  -0.00030204  0.49924595  0.00040363  1
  V  V78  1  0.49941278  0.87306280  0.87441722  1
  V  V79  1  0.37420738  0.12401829  0.75021035  1
  V  V80  1  0.62584442  -0.00173319  0.12437900  1
  V  V81  1  0.37610246  0.62473840  0.75063692  1
  V  V82  1  0.37440607  0.75000884  0.12547859  1
  V  V83  1  0.37576120  0.87506869  0.49986239  1
  V  V84  1  0.25004008  0.62592174  0.37629898  1
  V  V85  1  0.75047180  0.74944249  -0.00030658  1
  V  V86  1  0.75120315  0.87369659  0.12277249  1
  V  V87  1  0.25043878  0.49943273  0.25015375  1
  V  V88  1  0.62525101  0.87610365  0.74896338  1
  V  V89  1  0.37543706  0.74950959  0.62627267  1
  V  V90  1  0.75184437  0.62455595  0.37413530  1
  V  V91  1  0.24994141  0.87501056  0.12499459  1
  V  V92  1  0.24950095  0.25000938  0.49975196  1
  V  V93  1  0.49840804  -0.00258072  0.00060438  1
  V  V94  1  0.74901968  0.87678979  0.62485250  1
  V  V95  1  -0.00012566  0.75005014  0.24863309  1
  Zn  Zn96  1  0.74781614  0.12651848  0.87185811  1
  Zn  Zn97  1  0.62458763  0.00059026  0.62335478  1
  Zn  Zn98  1  0.00278538  0.62809009  0.62427284  1
  Zn  Zn99  1  0.49937833  0.12289201  0.12568079  1
  Zn  Zn100  1  0.12530554  0.25136823  0.87763449  1
  Zn  Zn101  1  0.50082644  0.62340269  0.12654896  1
  Zn  Zn102  1  0.25082778  0.37534764  0.12260921  1
  Zn  Zn103  1  0.37310589  0.87327847  -0.00152263  1
  Zn  Zn104  1  0.12417821  0.12618086  0.49997584  1
  Zn  Zn105  1  0.50072261  0.37544388  0.37576503  1
  Zn  Zn106  1  0.87542901  0.25138660  0.62447756  1
  Zn  Zn107  1  -0.00033350  0.87421418  0.87281007  1
  Zn  Zn108  1  0.12502726  0.62653740  0.50169141  1
  Zn  Zn109  1  0.37361836  0.37239306  -0.00083147  1
  Zn  Zn110  1  0.62390197  0.25084264  0.87488662  1
  Zn  Zn111  1  0.74824452  0.00251636  0.74850649  1
  Zn  Zn112  1  0.37214199  -0.00285779  0.87555307  1
  Zn  Zn113  1  0.12252953  0.87466789  0.75020875  1
  Zn  Zn114  1  0.62314583  0.49882127  0.12643606  1
  Zn  Zn115  1  0.49913487  0.37152066  0.87633589  1
  Zn  Zn116  1  0.87675693  0.50127981  0.37316647  1
  Zn  Zn117  1  0.00115352  0.75252163  0.74744220  1
  Zn  Zn118  1  0.50033220  0.74912669  0.75114238  1
  Zn  Zn119  1  0.50110401  -0.00034606  0.50099463  1
  Zn  Zn120  1  0.62536897  0.75017348  0.87466314  1
  Zn  Zn121  1  0.24942519  0.25238243  0.00059353  1
  Zn  Zn122  1  0.87577864  0.87418319  -0.00346526  1
  Zn  Zn123  1  0.87496917  0.50023570  0.87450239  1
  Zn  Zn124  1  0.25042112  0.75127165  -0.00028002  1
  Zn  Zn125  1  0.62566656  0.62525400  0.50178175  1
  Zn  Zn126  1  0.87591501  0.62354949  0.24882721  1
  Zn  Zn127  1  0.87439029  0.12560687  0.24875761  1
  Zn  Zn128  1  0.18788588  0.18707762  0.18790550  1
  Zn  Zn129  1  0.18547377  0.18723149  0.68856634  1
  Zn  Zn130  1  0.18800915  0.68684716  0.18874907  1
  Zn  Zn131  1  0.18860142  0.68638287  0.68837384  1
  Zn  Zn132  1  0.68671611  0.18653398  0.18556733  1
  Zn  Zn133  1  0.68670156  0.18985239  0.68497750  1
  Zn  Zn134  1  0.68861421  0.68660838  0.18670730  1
  Zn  Zn135  1  0.68763058  0.69006580  0.68747830  1
  Zn  Zn136  1  0.31318638  0.31354886  0.31185919  1
  Zn  Zn137  1  0.31386271  0.31192627  0.81432795  1
  Zn  Zn138  1  0.31265910  0.81272287  0.31211860  1
  Zn  Zn139  1  0.31133838  0.81194710  0.81201119  1
  Zn  Zn140  1  0.81369166  0.31321479  0.31246752  1
  Zn  Zn141  1  0.81093505  0.31183345  0.81440243  1
  Zn  Zn142  1  0.81392836  0.81221104  0.31046999  1
  Zn  Zn143  1  0.81055482  0.81239323  0.81233316  1
  Zn  Zn144  1  0.18757323  0.43717568  0.43742129  1
  Zn  Zn145  1  0.18879750  0.43578547  0.93942733  1
  Zn  Zn146  1  0.18730074  0.93785993  0.43927792  1
  Zn  Zn147  1  0.18703133  0.93693066  0.93860041  1
  Zn  Zn148  1  0.68654061  0.43848186  0.43701704  1
  Zn  Zn149  1  0.68660048  0.43754342  0.93511379  1
  Zn  Zn150  1  0.68696205  0.93883344  0.43792388  1
  Zn  Zn151  1  0.68873481  0.93811362  0.93514948  1
  Zn  Zn152  1  0.31279446  0.06301758  0.06306360  1
  Zn  Zn153  1  0.31257204  0.06244690  0.56169593  1
  Zn  Zn154  1  0.31263415  0.56347051  0.06341412  1
  Zn  Zn155  1  0.31251636  0.56312371  0.56307309  1
  Zn  Zn156  1  0.81202718  0.06331728  0.06112229  1
  Zn  Zn157  1  0.81122061  0.06239615  0.56292619  1
  Zn  Zn158  1  0.81297396  0.56171636  0.06393972  1
  Zn  Zn159  1  0.81364349  0.56248569  0.56153246  1
  Zn  Zn160  1  0.43898971  0.43513504  0.18706146  1
  Zn  Zn161  1  0.43813399  0.43704733  0.68857046  1
  Zn  Zn162  1  0.43799618  0.93568753  0.18828172  1
  Zn  Zn163  1  0.43737653  0.93923514  0.68732164  1
  Zn  Zn164  1  0.93607606  0.43824940  0.18744327  1
  Zn  Zn165  1  0.93688725  0.43883576  0.68585739  1
  Zn  Zn166  1  0.93621305  0.93718439  0.18563412  1
  Zn  Zn167  1  0.93958357  0.93690301  0.68913229  1
  Zn  Zn168  1  0.06222892  0.06486313  0.31183425  1
  Zn  Zn169  1  0.06205105  0.06291320  0.81138611  1
  Zn  Zn170  1  0.06409472  0.56409874  0.31291439  1
  Zn  Zn171  1  0.06165322  0.56250930  0.81323953  1
  Zn  Zn172  1  0.56222349  0.06207535  0.31324885  1
  Zn  Zn173  1  0.55987457  0.06068846  0.81250382  1
  Zn  Zn174  1  0.56419482  0.56140583  0.31441579  1
  Zn  Zn175  1  0.56242960  0.56086251  0.81432196  1
  Zn  Zn176  1  0.43792834  0.18774979  0.43770626  1
  Zn  Zn177  1  0.43724573  0.18500377  0.93670411  1
  Zn  Zn178  1  0.43812837  0.68694704  0.43951968  1
  Zn  Zn179  1  0.43803531  0.68664199  0.93890283  1
  Zn  Zn180  1  0.93623180  0.18811884  0.43692393  1
  Zn  Zn181  1  0.93752116  0.18841902  0.93608364  1
  Zn  Zn182  1  0.93738269  0.68813484  0.43750930  1
  Zn  Zn183  1  0.93792852  0.68654581  0.93645447  1
  Zn  Zn184  1  0.06370814  0.31265149  0.06198246  1
  Zn  Zn185  1  0.06252876  0.31282840  0.56348207  1
  Zn  Zn186  1  0.06202216  0.81410951  0.05844541  1
  Zn  Zn187  1  0.06221919  0.81362592  0.56289993  1
  Zn  Zn188  1  0.56062978  0.31154387  0.06534346  1
  Zn  Zn189  1  0.56254308  0.31228077  0.56372548  1
  Zn  Zn190  1  0.56295038  0.81026377  0.06291217  1
  Zn  Zn191  1  0.56242066  0.81124901  0.56275122  1
  O  O192  1  0.11973400  0.11865967  0.12056664  1
  O  O193  1  0.11813984  0.11880398  0.62294561  1
  O  O194  1  0.11994738  0.62027480  0.12044685  1
  O  O195  1  0.12393401  0.61661654  0.62259801  1
  O  O196  1  0.62279735  0.11723795  0.11444112  1
  O  O197  1  0.61817604  0.12518456  0.61813916  1
  O  O198  1  0.62443941  0.62265900  0.11279831  1
  O  O199  1  0.61920165  0.61911261  0.62493717  1
  O  O200  1  0.37579232  0.38185192  0.38272055  1
  O  O201  1  0.37805464  0.38333511  0.87750630  1
  O  O202  1  0.37995391  0.87911652  0.37964873  1
  O  O203  1  0.38516240  0.87643843  0.87707805  1
  O  O204  1  0.88278219  0.37674312  0.38141760  1
  O  O205  1  0.88119260  0.37739754  0.88161754  1
  O  O206  1  0.88038310  0.88042922  0.37988056  1
  O  O207  1  0.87511954  0.88782547  0.87448956  1
  O  O208  1  0.25499381  0.00450204  0.36977352  1
  O  O209  1  0.24961604  0.00937835  0.86949569  1
  O  O210  1  0.25565376  0.50564335  0.37053042  1
  O  O211  1  0.25513260  0.50528927  0.86977479  1
  O  O212  1  0.75525136  0.00461336  0.36893183  1
  O  O213  1  0.76106845  0.00471649  0.87201808  1
  O  O214  1  0.75077761  0.50961329  0.37033031  1
  O  O215  1  0.75216123  0.50704781  0.86719018  1
  O  O216  1  0.24370017  0.50078517  0.13323904  1
  O  O217  1  0.24622704  0.49387114  0.63125109  1
  O  O218  1  0.24401066  0.99567053  0.13164933  1
  O  O219  1  0.24468330  0.99543982  0.62888233  1
  O  O220  1  0.74792199  0.49296351  0.13169480  1
  O  O221  1  0.74426454  0.49537250  0.62924172  1
  O  O222  1  0.74510616  0.99391975  0.12899619  1
  O  O223  1  0.74688600  0.99158804  0.62709532  1
  O  O224  1  0.00599205  0.37032079  0.25479383  1
  O  O225  1  0.00414058  0.37201366  0.75455373  1
  O  O226  1  0.00559940  0.87075200  0.25473456  1
  O  O227  1  0.00438892  0.87071669  0.75448148  1
  O  O228  1  0.50752710  0.36768622  0.25278150  1
  O  O229  1  0.50661050  0.36765054  0.74915008  1
  O  O230  1  0.50639217  0.86855412  0.25618453  1
  O  O231  1  0.50680929  0.87524627  0.75859725  1
  O  O232  1  0.49353471  0.13024243  0.24914395  1
  O  O233  1  0.49400072  0.12945370  0.74469011  1
  O  O234  1  0.49467014  0.63095440  0.25025053  1
  O  O235  1  0.49389874  0.62560050  0.74497893  1
  O  O236  1  0.99870795  0.13258312  0.24251268  1
  O  O237  1  0.99194876  0.13092308  0.74456703  1
  O  O238  1  1.00021335  0.63249738  0.24343753  1
  O  O239  1  0.98701279  0.62501412  0.74758213  1
  O  O240  1  0.37568610  0.24757675  0.01221133  1
  O  O241  1  0.36889314  0.25551114  0.50585829  1
  O  O242  1  0.37397812  0.75034756  0.01381271  1
  O  O243  1  0.36913039  0.75560179  0.50565176  1
  O  O244  1  0.86909371  0.25563379  0.00537613  1
  O  O245  1  0.86821964  0.25736346  0.50059259  1
  O  O246  1  0.86876109  0.75052772  0.00534508  1
  O  O247  1  0.86976614  0.75706659  0.50414718  1
  O  O248  1  0.13185402  0.25052282  0.49298203  1
  O  O249  1  0.12776427  0.24074328  0.99837217  1
  O  O250  1  0.13190445  0.75046654  0.49284416  1
  O  O251  1  0.12692990  0.74292476  0.99160581  1
  O  O252  1  0.63089746  0.24558478  0.49404746  1
  O  O253  1  0.62757846  0.23940886  1.00143074  1
  O  O254  1  0.63274530  0.74905970  0.49279541  1
  O  O255  1  0.63060959  0.73941948  0.99955279  1
  O  O256  1  0.49051148  0.24601252  0.13242527  1
  O  O257  1  0.49302701  0.24396362  0.63048956  1
  O  O258  1  0.49066192  0.74897518  0.13217681  1
  O  O259  1  0.49245156  0.74333665  0.62644242  1
  O  O260  1  0.99486932  0.24562186  0.12957202  1
  O  O261  1  0.99787520  0.24471473  0.63146507  1
  O  O262  1  0.99677950  0.74580521  0.12901900  1
  O  O263  1  0.99164950  0.74754700  0.62501007  1
  O  O264  1  0.00564701  0.25543390  0.36935773  1
  O  O265  1  0.00176811  0.25756064  0.86798350  1
  O  O266  1  0.00509948  0.75679552  0.36995787  1
  O  O267  1  0.01216331  0.74903586  0.87367329  1
  O  O268  1  0.50679481  0.25153269  0.36894243  1
  O  O269  1  0.50142051  0.25015957  0.86658689  1
  O  O270  1  0.50588528  0.75481774  0.37034206  1
  O  O271  1  0.50215136  0.76137216  0.87516606  1
  O  O272  1  0.24896748  0.13232515  0.49321892  1
  O  O273  1  0.24441477  0.12293730  0.99065494  1
  O  O274  1  0.24984732  0.63206966  0.49354280  1
  O  O275  1  0.24311973  0.62562285  0.99363851  1
  O  O276  1  0.74512246  0.13133206  0.49402278  1
  O  O277  1  0.73934064  0.13058221  1.00035451  1
  O  O278  1  0.74996766  0.63146146  0.49055672  1
  O  O279  1  0.74299910  0.62810836  0.99539169  1
  O  O280  1  0.25468974  0.37071087  0.00443068  1
  O  O281  1  0.25542842  0.36993178  0.50656628  1
  O  O282  1  0.25323055  0.87346014  0.00961581  1
  O  O283  1  0.25646568  0.86950721  0.50535548  1
  O  O284  1  0.75402205  0.37042805  0.00525143  1
  O  O285  1  0.75469816  0.37114637  0.50408985  1
  O  O286  1  0.74976884  0.86792140  0.00587538  1
  O  O287  1  0.75571619  0.87001106  0.50360434  1
  O  O288  1  0.13056103  0.49573398  0.24549842  1
  O  O289  1  0.13100986  0.49486759  0.74544676  1
  O  O290  1  0.12963575  0.99524908  0.24470081  1
  O  O291  1  0.13135592  0.99996806  0.74226053  1
  O  O292  1  0.63150656  0.49298094  0.24935390  1
  O  O293  1  0.63040196  0.49487166  0.74416832  1
  O  O294  1  0.63038080  0.99341631  0.24478832  1
  O  O295  1  0.62604562  0.98847183  0.74863418  1
  O  O296  1  0.36931058  0.00389307  0.25536635  1
  O  O297  1  0.36653871  0.00724924  0.75107299  1
  O  O298  1  0.37111153  0.50456773  0.25596723  1
  O  O299  1  0.36967404  0.50483318  0.75575211  1
  O  O300  1  0.86811566  0.00078426  0.25571769  1
  O  O301  1  0.87565733  0.01076708  0.75718432  1
  O  O302  1  0.86682159  0.50264153  0.25308951  1
  O  O303  1  0.86809133  0.51004802  0.74860990  1
  O  O304  1  0.12000689  0.36953344  0.36881379  1
  O  O305  1  0.11841001  0.37447778  0.86831731  1
  O  O306  1  0.11948063  0.87099218  0.36923938  1
  O  O307  1  0.12592620  0.86275141  0.87440899  1
  O  O308  1  0.62461901  0.36721302  0.36877747  1
  O  O309  1  0.62117640  0.37304432  0.86569089  1
  O  O310  1  0.62079622  0.86965863  0.36883057  1
  O  O311  1  0.61686063  0.87469460  0.86671409  1
  O  O312  1  0.37642646  0.13165680  0.13294139  1
  O  O313  1  0.37901867  0.13106646  0.63019547  1
  O  O314  1  0.37531092  0.63533429  0.13324369  1
  O  O315  1  0.37982719  0.62951369  0.63133757  1
  O  O316  1  0.88144375  0.13202973  0.12524450  1
  O  O317  1  0.88086012  0.12574430  0.63428360  1
  O  O318  1  0.88272744  0.63232047  0.12575247  1
  O  O319  1  0.87382879  0.63163124  0.63365601  1
  O  O320  1  0.26180400  0.24947312  0.12571501  1
  O  O321  1  0.25468484  0.25498770  0.62055246  1
  O  O322  1  0.25936169  0.75561108  0.12691928  1
  O  O323  1  0.25573744  0.75505726  0.61983318  1
  O  O324  1  0.75524260  0.25572984  0.11956915  1
  O  O325  1  0.75181091  0.25818466  0.61648955  1
  O  O326  1  0.75596844  0.75452391  0.11979020  1
  O  O327  1  0.75566222  0.75666572  0.61807338  1
  O  O328  1  0.24548552  0.24533328  0.37968248  1
  O  O329  1  0.24910171  0.23580096  0.87557108  1
  O  O330  1  0.24541699  0.74625272  0.37977117  1
  O  O331  1  0.24203019  0.74281156  0.87688478  1
  O  O332  1  0.74482631  0.24451443  0.37931313  1
  O  O333  1  0.74553730  0.24672417  0.88412027  1
  O  O334  1  0.74621669  0.74395118  0.37826202  1
  O  O335  1  0.74811912  0.74298435  0.88213823  1
  O  O336  1  0.00544367  0.12018844  0.00533810  1
  O  O337  1  0.00008010  0.11943758  0.50575988  1
  O  O338  1  0.00587900  0.61891735  0.00571578  1
  O  O339  1  0.00151205  0.61312790  0.49999094  1
  O  O340  1  0.50794484  0.11316790  0.00074982  1
  O  O341  1  0.50590707  0.12541139  0.50643302  1
  O  O342  1  0.50916562  0.61680807  0.00072316  1
  O  O343  1  0.50137218  0.61815222  0.50808330  1
  O  O344  1  0.49248241  0.38140401  0.50066990  1
  O  O345  1  0.49926131  0.38667789  0.99943052  1
  O  O346  1  0.49329223  0.87468397  0.49300662  1
  O  O347  1  0.50287076  0.88223030  0.99199673  1
  O  O348  1  0.99614313  0.38312158  0.49498667  1
  O  O349  1  0.99458149  0.38001304  0.99537777  1
  O  O350  1  0.99393880  0.88173775  0.49342022  1
  O  O351  1  0.99675907  0.88497522  0.99519856  1
  O  O352  1  0.49332033  0.49901798  0.38287664  1
  O  O353  1  0.49377800  0.49927104  0.88532074  1
  O  O354  1  0.49262782  0.99224839  0.37536918  1
  O  O355  1  0.49833367  0.99005633  0.88431818  1
  O  O356  1  1.00135675  0.49431933  0.38407924  1
  O  O357  1  0.99821405  0.49385350  0.88264983  1
  O  O358  1  0.99501149  0.99531376  0.37884745  1
  O  O359  1  0.98996901  1.00213992  0.88037523  1
  O  O360  1  0.00467649  0.00561125  0.11981309  1
  O  O361  1  0.00455191  0.00557531  0.61862125  1
  O  O362  1  0.00611100  0.50581058  0.12049540  1
  O  O363  1  0.00618715  0.50017509  0.61419193  1
  O  O364  1  0.50709335  -0.00270654  0.11656336  1
  O  O365  1  0.50162182  0.00885199  0.62184478  1
  O  O366  1  0.50133108  0.50304042  0.11488119  1
  O  O367  1  0.50465142  0.50563710  0.62089899  1
  O  O368  1  0.24319908  0.38245538  0.24926241  1
  O  O369  1  0.24486337  0.37986109  0.74561198  1
  O  O370  1  0.24361644  0.88113209  0.24566736  1
  O  O371  1  0.24858105  0.88217558  0.74296005  1
  O  O372  1  0.74502702  0.37939260  0.24508855  1
  O  O373  1  0.74537333  0.38034057  0.74406580  1
  O  O374  1  0.74446696  0.87977862  0.24370908  1
  O  O375  1  0.74050905  0.87604126  0.74385791  1
  O  O376  1  0.25517640  0.11858366  0.25652082  1
  O  O377  1  0.25386496  0.12023118  0.75725671  1
  O  O378  1  0.25618538  0.61953266  0.25719217  1
  O  O379  1  0.25671474  0.61755855  0.75588011  1
  O  O380  1  0.75013909  0.11761419  0.25567025  1
  O  O381  1  0.76094001  0.12557282  0.74923087  1
  O  O382  1  0.75048491  0.61984051  0.25873212  1
  O  O383  1  0.75700073  0.62088910  0.75382924  1
  O  O384  1  0.36905335  0.11936529  0.37019656  1
  O  O385  1  0.36531580  0.12088362  0.86939764  1
  O  O386  1  0.36972725  0.61978231  0.37050831  1
  O  O387  1  0.37010840  0.61979736  0.87045224  1
  O  O388  1  0.86789125  0.11855047  0.37244555  1
  O  O389  1  0.87474585  0.11808297  0.86498937  1
  O  O390  1  0.86296823  0.62561206  0.37233938  1
  O  O391  1  0.86900463  0.62373327  0.86458317  1
  O  O392  1  0.12549088  0.38254412  0.13218576  1
  O  O393  1  0.13123865  0.38089019  0.63155205  1
  O  O394  1  0.12927364  0.88097332  0.13059683  1
  O  O395  1  0.13282834  0.88187407  0.62499955  1
  O  O396  1  0.63207173  0.37475731  0.13244559  1
  O  O397  1  0.63103638  0.38120070  0.63069175  1
  O  O398  1  0.63124884  0.87818833  0.13056522  1
  O  O399  1  0.62928666  0.87530709  0.63310225  1
  O  O400  1  0.11954595  0.25580124  0.25472166  1
  O  O401  1  0.11816695  0.25776221  0.75189046  1
  O  O402  1  0.11988936  0.75667928  0.25526811  1
  O  O403  1  0.12479713  0.74868981  0.76140914  1
  O  O404  1  0.62046846  0.25377839  0.25464411  1
  O  O405  1  0.61810818  0.25596950  0.74991842  1
  O  O406  1  0.62093429  0.75517694  0.25495383  1
  O  O407  1  0.62208262  0.76267182  0.75241253  1
  O  O408  1  0.37982295  0.24407227  0.24474018  1
  O  O409  1  0.37943473  0.24379131  0.74395246  1
  O  O410  1  0.38047648  0.74476620  0.24433935  1
  O  O411  1  0.37572401  0.74238808  0.74350240  1
  O  O412  1  0.88194822  0.24969844  0.24243606  1
  O  O413  1  0.88050931  0.24114192  0.74932588  1
  O  O414  1  0.88301011  0.74945587  0.24195311  1
  O  O415  1  0.87335849  0.74041521  0.74407110  1
  O  O416  1  0.37940718  0.49463129  0.49612106  1
  O  O417  1  0.38501892  0.50233387  0.99571161  1
  O  O418  1  0.37553548  0.99257658  0.49271733  1
  O  O419  1  0.38793972  0.99728415  1.00131953  1
  O  O420  1  0.88573107  0.49464758  0.49796874  1
  O  O421  1  0.88186054  0.49324416  0.99968257  1
  O  O422  1  0.87993984  0.99485569  0.49333642  1
  O  O423  1  0.87981523  1.00189423  0.98958670  1
  O  O424  1  0.11889274  0.00608909  0.00605206  1
  O  O425  1  0.11767510  0.00224669  0.50570130  1
  O  O426  1  0.11924445  0.50534523  0.00623133  1
  O  O427  1  0.11641008  0.49943123  0.50562812  1
  O  O428  1  0.61827471  0.00551234  0.00418797  1
  O  O429  1  0.62204539  0.00908891  0.50059671  1
  O  O430  1  0.61704241  0.50800927  0.00015660  1
  O  O431  1  0.61834338  0.50131224  0.50755799  1
  O  O432  1  0.37368526  0.36206334  0.12525733  1
  O  O433  1  0.36851219  0.36924181  0.62103775  1
  O  O434  1  0.36926010  0.86426974  0.12718892  1
  O  O435  1  0.36984416  0.86954979  0.61991846  1
  O  O436  1  0.86963374  0.36904403  0.11867599  1
  O  O437  1  0.86786779  0.37466389  0.61761090  1
  O  O438  1  0.86841701  0.86860762  0.12131319  1
  O  O439  1  0.86930219  0.87099953  0.61911983  1
  O  O440  1  0.13179905  0.13236127  0.37582708  1
  O  O441  1  0.13386467  0.12547373  0.88024415  1
  O  O442  1  0.13254243  0.63336573  0.37639313  1
  O  O443  1  0.13047539  0.63084675  0.87989488  1
  O  O444  1  0.63098895  0.13064982  0.37995338  1
  O  O445  1  0.62546937  0.12350085  0.88744267  1
  O  O446  1  0.63606902  0.63177707  0.37687676  1
  O  O447  1  0.63052425  0.62609197  0.88494284  1
