# generated using pymatgen
data_V3Zn3O8
_symmetry_space_group_name_H-M   'P 1'
_cell_length_a   17.08524349
_cell_length_b   17.08772677
_cell_length_c   17.08633757
_cell_angle_alpha   89.99390727
_cell_angle_beta   90.00892317
_cell_angle_gamma   89.98690594
_symmetry_Int_Tables_number   1
_chemical_formula_structural   V3Zn3O8
_chemical_formula_sum   'V96 Zn96 O256'
_cell_volume   4988.32139255
_cell_formula_units_Z   32
loop_
 _symmetry_equiv_pos_site_id
 _symmetry_equiv_pos_as_xyz
  1  'x, y, z'
loop_
 _atom_site_type_symbol
 _atom_site_label
 _atom_site_symmetry_multiplicity
 _atom_site_fract_x
 _atom_site_fract_y
 _atom_site_fract_z
 _atom_site_occupancy
  V  V0  1  -0.00156305  0.49994408  0.49910312  1
  V  V1  1  0.12689392  0.75073424  0.37535286  1
  V  V2  1  0.62471177  0.37446871  0.25033272  1
  V  V3  1  0.62361937  0.24869752  0.37563276  1
  V  V4  1  0.75165986  0.25074475  0.50275704  1
  V  V5  1  0.25038913  0.62693494  0.87510752  1
  V  V6  1  -0.00109687  0.12581825  0.62548882  1
  V  V7  1  0.87428363  0.12353612  0.25051417  1
  V  V8  1  0.75034159  0.87490738  0.12484398  1
  V  V9  1  0.62471901  0.12368848  0.49975821  1
  V  V10  1  0.87537604  0.49986700  0.87526464  1
  V  V11  1  0.37414975  0.50034415  0.37435685  1
  V  V12  1  -0.00023652  0.25035565  0.24975321  1
  V  V13  1  0.50035134  0.62484355  0.12544147  1
  V  V14  1  0.87604981  0.87571153  -0.00160652  1
  V  V15  1  0.49908251  -0.00099299  0.49943201  1
  V  V16  1  0.87371437  0.62257976  0.25194259  1
  V  V17  1  0.12455278  0.00097559  0.62482175  1
  V  V18  1  0.87375785  0.87338790  0.49897066  1
  V  V19  1  0.12493822  0.24976515  0.37487931  1
  V  V20  1  0.50020014  0.24974038  0.75052167  1
  V  V21  1  0.25051579  0.62579519  0.37452017  1
  V  V22  1  0.24903825  0.25013859  -0.00140551  1
  V  V23  1  0.00123218  0.37507208  0.87453219  1
  V  V24  1  0.62509305  0.12414661  0.00073055  1
  V  V25  1  0.87528408  0.12586058  0.74969676  1
  V  V26  1  0.00103930  0.62602986  0.12454074  1
  V  V27  1  0.62579595  0.87343542  0.24944357  1
  V  V28  1  0.62616650  0.74704779  0.37572425  1
  V  V29  1  0.87559988  0.62464662  0.74864786  1
  V  V30  1  0.49978153  0.12471852  0.62502829  1
  V  V31  1  0.62640885  0.37472501  0.75072156  1
  V  V32  1  0.12357363  0.12656196  0.50060486  1
  V  V33  1  0.62564159  0.62371050  0.50038998  1
  V  V34  1  0.37617252  0.75050646  0.12465033  1
  V  V35  1  -0.00115084  0.37575896  0.37603507  1
  V  V36  1  0.25095335  0.75117191  -0.00046851  1
  V  V37  1  0.49987724  0.12440012  0.12496925  1
  V  V38  1  0.12556399  0.62589349  0.49894037  1
  V  V39  1  0.12545069  0.50140719  0.62422168  1
  V  V40  1  0.49868391  0.24910140  0.25041935  1
  V  V41  1  0.50006773  0.62431203  0.62582203  1
  V  V42  1  0.25041737  0.37631877  0.62550660  1
  V  V43  1  0.75067170  0.24980027  0.00151634  1
  V  V44  1  0.24941795  0.00137072  0.74928896  1
  V  V45  1  0.50066972  0.74888255  0.24905557  1
  V  V46  1  0.75019844  0.12428023  0.87504178  1
  V  V47  1  0.24894245  -0.00015181  0.24870257  1
  V  V48  1  0.25063801  0.50146251  0.74996356  1
  V  V49  1  0.62474669  0.87411597  0.74982413  1
  V  V50  1  0.24906374  0.25030392  0.49976232  1
  V  V51  1  0.00062409  0.00106327  -0.00033517  1
  V  V52  1  0.49877526  0.37375584  0.37540815  1
  V  V53  1  0.62564861  0.74948891  0.87537608  1
  V  V54  1  0.00037876  0.50146365  -0.00027929  1
  V  V55  1  0.37556173  0.62557620  0.75000406  1
  V  V56  1  0.74961333  0.12307063  0.37459018  1
  V  V57  1  0.62682553  0.62557937  0.00003598  1
  V  V58  1  0.62523472  0.24943051  0.87582783  1
  V  V59  1  0.37419169  0.00077670  0.87450466  1
  V  V60  1  0.87454745  0.25086379  0.12590481  1
  V  V61  1  0.37460137  0.37478313  0.00057948  1
  V  V62  1  0.37611200  -0.00113058  0.37558146  1
  V  V63  1  0.37408618  0.12461114  0.24970244  1
  V  V64  1  0.12542949  0.87684375  0.25015059  1
  V  V65  1  0.74930918  -0.00013707  0.75004881  1
  V  V66  1  0.62401084  -0.00121095  0.62445391  1
  V  V67  1  0.00046526  0.75133407  0.74974778  1
  V  V68  1  0.50086625  0.75027722  0.75003845  1
  V  V69  1  0.50067538  0.37488841  0.87595598  1
  V  V70  1  -0.00083247  0.87596964  0.37561125  1
  V  V71  1  0.12614532  0.62791954  -0.00095601  1
  V  V72  1  0.12602797  0.50109042  0.12539757  1
  V  V73  1  0.62554214  0.49833904  0.62684034  1
  V  V74  1  0.37407450  0.12509732  0.75024330  1
  V  V75  1  0.87619505  0.75070803  0.12407048  1
  V  V76  1  0.74948234  0.37435994  0.12652102  1
  V  V77  1  0.37467225  0.37470678  0.50035611  1
  V  V78  1  0.00119715  0.75136094  0.24967921  1
  V  V79  1  0.49881559  -0.00036581  -0.00081542  1
  V  V80  1  0.62568044  0.49919865  0.12643286  1
  V  V81  1  0.24970780  0.50030897  0.24969362  1
  V  V82  1  0.12433659  0.12538262  -0.00037623  1
  V  V83  1  0.37457323  0.25010133  0.12430031  1
  V  V84  1  0.37452842  0.75083942  0.62414589  1
  V  V85  1  0.62498138  -0.00163806  0.12543543  1
  V  V86  1  0.75011507  0.49874611  0.75139438  1
  V  V87  1  0.37504219  0.25071579  0.62537010  1
  V  V88  1  0.74985575  0.87284955  0.62397036  1
  V  V89  1  0.50003610  0.49870892  0.50089444  1
  V  V90  1  0.24949128  0.87511957  0.62354562  1
  V  V91  1  0.37492370  0.87567448  -0.00059690  1
  V  V92  1  0.12477546  0.37545102  0.24904636  1
  V  V93  1  0.12540843  0.37610880  0.75117820  1
  V  V94  1  0.37583247  0.50067453  0.87559743  1
  V  V95  1  0.50043854  0.49985663  0.00108375  1
  Zn  Zn96  1  0.24842442  0.12582835  0.87307278  1
  Zn  Zn97  1  0.12136763  0.87615334  0.75029936  1
  Zn  Zn98  1  0.50081934  0.87312523  0.37626282  1
  Zn  Zn99  1  0.87499879  -0.00058233  0.87500560  1
  Zn  Zn100  1  0.75025983  0.49869770  0.25300595  1
  Zn  Zn101  1  0.75110903  0.74827863  -0.00129098  1
  Zn  Zn102  1  0.37512893  0.62516696  0.24971366  1
  Zn  Zn103  1  0.75371868  0.37377974  0.62634990  1
  Zn  Zn104  1  0.75059365  0.74547562  0.50180190  1
  Zn  Zn105  1  0.87386880  0.37554556  0.50142467  1
  Zn  Zn106  1  0.12452420  0.25043559  0.87386279  1
  Zn  Zn107  1  0.00223720  0.25019840  0.75105313  1
  Zn  Zn108  1  0.25132249  0.75104831  0.49887808  1
  Zn  Zn109  1  0.74956889  -0.00173560  0.25114841  1
  Zn  Zn110  1  0.87510689  0.37566327  0.00153655  1
  Zn  Zn111  1  0.50036738  0.87564318  0.87408439  1
  Zn  Zn112  1  0.87382541  0.74864775  0.62440108  1
  Zn  Zn113  1  0.12623253  0.75371390  0.87333952  1
  Zn  Zn114  1  0.24933065  0.37632876  0.12442705  1
  Zn  Zn115  1  0.00084827  0.62659453  0.62324078  1
  Zn  Zn116  1  0.12540350  -0.00042593  0.12426316  1
  Zn  Zn117  1  0.75088651  0.62479175  0.87765176  1
  Zn  Zn118  1  0.87331013  -0.00281016  0.37347959  1
  Zn  Zn119  1  -0.00176059  0.00055984  0.49799911  1
  Zn  Zn120  1  0.24786480  0.12573458  0.37527673  1
  Zn  Zn121  1  0.75123185  0.61984641  0.37803720  1
  Zn  Zn122  1  0.37644943  0.87298261  0.49894690  1
  Zn  Zn123  1  0.87643243  0.25264931  0.62524049  1
  Zn  Zn124  1  0.24920534  0.87522261  0.12346228  1
  Zn  Zn125  1  0.00023118  0.12651597  0.12515732  1
  Zn  Zn126  1  0.87204281  0.49781528  0.37556194  1
  Zn  Zn127  1  0.00207419  0.87522111  0.87348017  1
  Zn  Zn128  1  0.18734738  0.18661736  0.18528785  1
  Zn  Zn129  1  0.18631646  0.18939239  0.68786910  1
  Zn  Zn130  1  0.18964962  0.68856821  0.18747931  1
  Zn  Zn131  1  0.18617364  0.68881800  0.68645811  1
  Zn  Zn132  1  0.68773709  0.18747414  0.18791567  1
  Zn  Zn133  1  0.68710762  0.18643503  0.68735844  1
  Zn  Zn134  1  0.69015993  0.68799099  0.18605158  1
  Zn  Zn135  1  0.68930810  0.68659395  0.68828000  1
  Zn  Zn136  1  0.31028529  0.31349057  0.31240782  1
  Zn  Zn137  1  0.31237072  0.31338650  0.81366276  1
  Zn  Zn138  1  0.31321465  0.81296763  0.31086074  1
  Zn  Zn139  1  0.31270800  0.81491399  0.81181977  1
  Zn  Zn140  1  0.81247328  0.31192923  0.31511846  1
  Zn  Zn141  1  0.81372284  0.31158406  0.81363263  1
  Zn  Zn142  1  0.81101138  0.80908473  0.31252024  1
  Zn  Zn143  1  0.81204506  0.81124501  0.81363347  1
  Zn  Zn144  1  0.18614417  0.43810671  0.43617429  1
  Zn  Zn145  1  0.18781766  0.43978406  0.93812511  1
  Zn  Zn146  1  0.18641271  0.93910024  0.43823539  1
  Zn  Zn147  1  0.18719972  0.93613336  0.93365538  1
  Zn  Zn148  1  0.68807386  0.43731406  0.43644190  1
  Zn  Zn149  1  0.68901104  0.43765121  0.93871751  1
  Zn  Zn150  1  0.68896008  0.93573415  0.43573544  1
  Zn  Zn151  1  0.68822821  0.93668416  0.93677882  1
  Zn  Zn152  1  0.31151950  0.06305984  0.06204076  1
  Zn  Zn153  1  0.31123889  0.06326431  0.56197434  1
  Zn  Zn154  1  0.31250118  0.56476546  0.06330403  1
  Zn  Zn155  1  0.31218506  0.56414883  0.56076593  1
  Zn  Zn156  1  0.81197553  0.06149514  0.06501811  1
  Zn  Zn157  1  0.81285950  0.05988419  0.56181489  1
  Zn  Zn158  1  0.81218460  0.56158517  0.06381555  1
  Zn  Zn159  1  0.81140596  0.56122588  0.56485105  1
  Zn  Zn160  1  0.43655647  0.43679918  0.18767493  1
  Zn  Zn161  1  0.43861260  0.43707484  0.68871360  1
  Zn  Zn162  1  0.43863085  0.93453339  0.18714695  1
  Zn  Zn163  1  0.43635424  0.93705970  0.68783102  1
  Zn  Zn164  1  0.93820172  0.43750747  0.18684506  1
  Zn  Zn165  1  0.93674909  0.43684731  0.68526391  1
  Zn  Zn166  1  0.93906691  0.93942087  0.18510588  1
  Zn  Zn167  1  0.93572455  0.93780392  0.68504256  1
  Zn  Zn168  1  0.06050855  0.06225288  0.31507027  1
  Zn  Zn169  1  0.06293914  0.06111419  0.81419619  1
  Zn  Zn170  1  0.06246374  0.56343625  0.31311616  1
  Zn  Zn171  1  0.06285715  0.56459213  0.81287621  1
  Zn  Zn172  1  0.56239825  0.06100143  0.31179162  1
  Zn  Zn173  1  0.56181068  0.06183039  0.81294539  1
  Zn  Zn174  1  0.56176602  0.56222776  0.31226599  1
  Zn  Zn175  1  0.56360221  0.56325099  0.81384072  1
  Zn  Zn176  1  0.43589303  0.18493985  0.43777546  1
  Zn  Zn177  1  0.43672798  0.18617934  0.93669944  1
  Zn  Zn178  1  0.43784044  0.68658821  0.43807727  1
  Zn  Zn179  1  0.43929781  0.68856100  0.93827149  1
  Zn  Zn180  1  0.93671717  0.18779606  0.43624518  1
  Zn  Zn181  1  0.93649782  0.18872771  0.93731270  1
  Zn  Zn182  1  0.93888613  0.68876576  0.43603278  1
  Zn  Zn183  1  0.93905348  0.68851123  0.93450887  1
  Zn  Zn184  1  0.06191950  0.31328548  0.06314395  1
  Zn  Zn185  1  0.06223088  0.31318162  0.56386150  1
  Zn  Zn186  1  0.06466368  0.81420150  0.06364977  1
  Zn  Zn187  1  0.06092371  0.81166945  0.56362801  1
  Zn  Zn188  1  0.56273447  0.31215241  0.06315408  1
  Zn  Zn189  1  0.56415202  0.31259243  0.56360352  1
  Zn  Zn190  1  0.56187038  0.81254715  0.06091856  1
  Zn  Zn191  1  0.56110659  0.81236978  0.56097036  1
  O  O192  1  0.12280299  0.12324953  0.11175715  1
  O  O193  1  0.11658471  0.12176284  0.62108002  1
  O  O194  1  0.11992100  0.62100272  0.11960949  1
  O  O195  1  0.12514869  0.61783842  0.61749836  1
  O  O196  1  0.61930154  0.11986347  0.12001428  1
  O  O197  1  0.61868237  0.11839532  0.61991370  1
  O  O198  1  0.62000462  0.61927928  0.12005014  1
  O  O199  1  0.61855345  0.61818415  0.62149573  1
  O  O200  1  0.37976062  0.37951399  0.38121002  1
  O  O201  1  0.38145729  0.38102378  0.88048158  1
  O  O202  1  0.37721006  0.88765864  0.37587927  1
  O  O203  1  0.37753181  0.88274268  0.88070432  1
  O  O204  1  0.88410510  0.37646454  0.37878469  1
  O  O205  1  0.88563647  0.38098312  0.87551674  1
  O  O206  1  0.87956787  0.87285875  0.38203409  1
  O  O207  1  0.87611536  0.87737397  0.88744244  1
  O  O208  1  0.25833676  0.00225227  0.36602884  1
  O  O209  1  0.25687737  0.00300444  0.86692542  1
  O  O210  1  0.25475163  0.50475769  0.36959377  1
  O  O211  1  0.25691479  0.50626110  0.86983956  1
  O  O212  1  0.75154853  0.00778878  0.37110944  1
  O  O213  1  0.75020512  0.00744269  0.86819104  1
  O  O214  1  0.75387480  0.50235373  0.37073767  1
  O  O215  1  0.75721485  0.50034678  0.86924113  1
  O  O216  1  0.24390827  0.49980426  0.13057145  1
  O  O217  1  0.24629213  0.49518699  0.63022928  1
  O  O218  1  0.25098257  0.99931579  0.13835059  1
  O  O219  1  0.24565851  0.99387490  0.62961972  1
  O  O220  1  0.74287690  0.49208514  0.12781834  1
  O  O221  1  0.74219940  0.49654170  0.63312614  1
  O  O222  1  0.74195168  0.99341352  0.12715009  1
  O  O223  1  0.74259032  0.99412945  0.63033921  1
  O  O224  1  0.00560467  0.36997526  0.25558417  1
  O  O225  1  0.00637187  0.37669375  0.75930263  1
  O  O226  1  0.00476369  0.87071081  0.25465097  1
  O  O227  1  -0.00315827  0.86517817  0.75017199  1
  O  O228  1  0.50383943  0.36794926  0.25592917  1
  O  O229  1  0.50519667  0.36910978  0.75686962  1
  O  O230  1  0.50820384  0.86660595  0.25122729  1
  O  O231  1  0.50694566  0.86851014  0.74979557  1
  O  O232  1  0.49463638  0.13028199  0.24417691  1
  O  O233  1  0.49529215  0.13091823  0.74420569  1
  O  O234  1  0.49878974  0.63069908  0.24255925  1
  O  O235  1  0.49479954  0.62943772  0.74486111  1
  O  O236  1  0.99078007  0.13142892  0.24928219  1
  O  O237  1  0.99188959  0.12491663  0.74365604  1
  O  O238  1  0.99432604  0.63123266  0.24440200  1
  O  O239  1  0.99127836  0.63085198  0.74869765  1
  O  O240  1  0.36821717  0.25391782  0.00416120  1
  O  O241  1  0.37033251  0.25514355  0.50588631  1
  O  O242  1  0.37121670  0.75555169  0.00457332  1
  O  O243  1  0.37265430  0.75203105  0.50779339  1
  O  O244  1  0.86787249  0.25098595  0.00746850  1
  O  O245  1  0.86209809  0.24869819  0.50069431  1
  O  O246  1  0.87770524  0.76018082  0.00534459  1
  O  O247  1  0.87322232  0.76008573  0.50111726  1
  O  O248  1  0.13017170  0.24635760  0.49526096  1
  O  O249  1  0.13314331  0.24395432  0.99988036  1
  O  O250  1  0.12594131  0.74392054  0.49285897  1
  O  O251  1  0.13219121  0.74439671  0.99947226  1
  O  O252  1  0.63045944  0.24323991  0.49515650  1
  O  O253  1  0.62954422  0.24341563  0.99529162  1
  O  O254  1  0.62292671  0.74244760  0.49096575  1
  O  O255  1  0.62511442  0.74392810  0.99275971  1
  O  O256  1  0.49459544  0.24399941  0.13039825  1
  O  O257  1  0.49490086  0.24483346  0.63064018  1
  O  O258  1  0.49591408  0.74385145  0.12915468  1
  O  O259  1  0.49508722  0.74345351  0.63067357  1
  O  O260  1  0.99315640  0.24954668  0.13189133  1
  O  O261  1  0.99973552  0.23750952  0.62808288  1
  O  O262  1  0.99587899  0.74497699  0.13076895  1
  O  O263  1  0.99569922  0.74652622  0.63542900  1
  O  O264  1  0.00572416  0.25579350  0.36966219  1
  O  O265  1  0.00126687  0.26347540  0.87439450  1
  O  O266  1  0.00750148  0.75643641  0.36813585  1
  O  O267  1  0.00199273  0.75125830  0.86220244  1
  O  O268  1  0.50317559  0.25384779  0.37042804  1
  O  O269  1  0.50541981  0.25484146  0.87060177  1
  O  O270  1  0.51012810  0.74906507  0.36901703  1
  O  O271  1  0.50772865  0.75137976  0.86777933  1
  O  O272  1  0.24250570  0.13329927  0.50016174  1
  O  O273  1  0.24258120  0.13357229  0.99883081  1
  O  O274  1  0.24328375  0.62582111  0.49209511  1
  O  O275  1  0.24610097  0.63095023  0.99412230  1
  O  O276  1  0.74403044  0.13056364  0.49516383  1
  O  O277  1  0.74423775  0.12958702  0.99568227  1
  O  O278  1  0.74143508  0.62577927  0.49941048  1
  O  O279  1  0.74282257  0.62676627  0.99868034  1
  O  O280  1  0.25553659  0.36701445  0.00056969  1
  O  O281  1  0.25516170  0.37084399  0.50567141  1
  O  O282  1  0.25718339  0.86959038  0.00100332  1
  O  O283  1  0.25187746  0.87584974  0.51264314  1
  O  O284  1  0.75071570  0.36722490  0.00750403  1
  O  O285  1  0.74831786  0.36170074  0.50089906  1
  O  O286  1  0.76105766  0.87562545  0.00580868  1
  O  O287  1  0.75746022  0.87180719  0.50479124  1
  O  O288  1  0.12961353  0.49555131  0.24477926  1
  O  O289  1  0.13208733  0.49686441  0.74458845  1
  O  O290  1  0.13451274  0.99715907  0.25125237  1
  O  O291  1  0.13126596  1.00094174  0.74216531  1
  O  O292  1  0.62411510  0.49202411  0.24373634  1
  O  O293  1  0.62953137  0.49437127  0.74684959  1
  O  O294  1  0.62464185  0.99254903  0.24255264  1
  O  O295  1  0.62918815  0.99508777  0.74403805  1
  O  O296  1  0.36945233  0.00417183  0.25672041  1
  O  O297  1  0.37010208  0.00671693  0.75399013  1
  O  O298  1  0.36888752  0.50019635  0.25682698  1
  O  O299  1  0.37084036  0.50549698  0.75565672  1
  O  O300  1  0.87330612  0.01214502  0.24921183  1
  O  O301  1  0.86854695  0.01058184  0.75081010  1
  O  O302  1  0.87675655  0.51180294  0.25043075  1
  O  O303  1  0.87139125  0.50685278  0.75475197  1
  O  O304  1  0.11909280  0.36915288  0.36871261  1
  O  O305  1  0.11609483  0.37832892  0.86989655  1
  O  O306  1  0.11997422  0.87045403  0.37020192  1
  O  O307  1  0.12075688  0.87141753  0.86833386  1
  O  O308  1  0.61709214  0.36807817  0.37040299  1
  O  O309  1  0.61939273  0.36889612  0.87103848  1
  O  O310  1  0.62405919  0.86386749  0.36909807  1
  O  O311  1  0.62341075  0.86829413  0.86803576  1
  O  O312  1  0.38088878  0.13059203  0.12986382  1
  O  O313  1  0.38067727  0.13136033  0.62980049  1
  O  O314  1  0.38309644  0.63181649  0.12555205  1
  O  O315  1  0.38020140  0.62931441  0.63081330  1
  O  O316  1  0.87431568  0.13225037  0.13510238  1
  O  O317  1  0.88231960  0.12439378  0.63274881  1
  O  O318  1  0.88213961  0.63038708  0.13140869  1
  O  O319  1  0.87721384  0.62446181  0.63796847  1
  O  O320  1  0.25590505  0.25131390  0.11387441  1
  O  O321  1  0.25594023  0.25742074  0.62009367  1
  O  O322  1  0.25815702  0.75072370  0.11793843  1
  O  O323  1  0.25556101  0.75949268  0.62466208  1
  O  O324  1  0.75376524  0.25500271  0.12019858  1
  O  O325  1  0.74888590  0.24883335  0.61362393  1
  O  O326  1  0.75830593  0.75745797  0.12147485  1
  O  O327  1  0.75182361  0.75795375  0.62342679  1
  O  O328  1  0.24352415  0.24897146  0.38175600  1
  O  O329  1  0.24946548  0.24950851  0.88756785  1
  O  O330  1  0.24451327  0.74496667  0.37554584  1
  O  O331  1  0.25157314  0.74331099  0.88078775  1
  O  O332  1  0.74257972  0.24372941  0.38347494  1
  O  O333  1  0.74407749  0.24417128  0.88103926  1
  O  O334  1  0.73583676  0.74448535  0.37582903  1
  O  O335  1  0.74008812  0.74710231  0.87765691  1
  O  O336  1  0.00685557  0.11895366  0.00027639  1
  O  O337  1  0.00381952  0.12516479  0.50961763  1
  O  O338  1  0.00567659  0.62117222  0.00492192  1
  O  O339  1  0.00646610  0.61617464  0.49959488  1
  O  O340  1  0.50531821  0.12022227  0.00583009  1
  O  O341  1  0.50518571  0.12015975  0.50612143  1
  O  O342  1  0.50593062  0.61845274  0.00575892  1
  O  O343  1  0.50490502  0.61723681  0.50677549  1
  O  O344  1  0.49439718  0.37878759  0.49535035  1
  O  O345  1  0.49516097  0.37952463  0.99489627  1
  O  O346  1  0.49722621  0.88414045  0.49780243  1
  O  O347  1  0.49344409  0.88279405  0.99818047  1
  O  O348  1  1.00225987  0.38475223  0.49447089  1
  O  O349  1  1.00028879  0.38255640  0.99059497  1
  O  O350  1  0.99027753  0.87515566  0.49485820  1
  O  O351  1  0.99176446  0.88350038  1.00138449  1
  O  O352  1  0.49461364  0.49312916  0.38106478  1
  O  O353  1  0.49524130  0.49450234  0.88110606  1
  O  O354  1  0.49086375  0.99990210  0.37962896  1
  O  O355  1  0.49332378  0.99954751  0.88148897  1
  O  O356  1  1.00151115  0.49449817  0.38497813  1
  O  O357  1  0.99604938  0.49337780  0.87977669  1
  O  O358  1  0.99556521  0.99094045  0.37751980  1
  O  O359  1  0.99666885  0.99890007  0.88827518  1
  O  O360  1  0.00251308  0.00439845  0.11190813  1
  O  O361  1  0.00497251  0.01178711  0.62396835  1
  O  O362  1  0.00647957  0.50631748  0.11938742  1
  O  O363  1  0.00779635  0.50048937  0.61474125  1
  O  O364  1  0.50477536  0.00568476  0.11946217  1
  O  O365  1  0.50427899  0.00581238  0.62006428  1
  O  O366  1  0.50525616  0.50383103  0.11970834  1
  O  O367  1  0.50478846  0.50450066  0.62080006  1
  O  O368  1  0.24262132  0.38171027  0.24784323  1
  O  O369  1  0.24691219  0.38223798  0.74535871  1
  O  O370  1  0.24463353  0.88559129  0.25006960  1
  O  O371  1  0.25003851  0.88171343  0.73744904  1
  O  O372  1  0.74179690  0.37290385  0.24461366  1
  O  O373  1  0.74316422  0.37961917  0.75099314  1
  O  O374  1  0.74401109  0.87481401  0.24260406  1
  O  O375  1  0.74484357  0.88047942  0.74480551  1
  O  O376  1  0.25544046  0.11690012  0.25122340  1
  O  O377  1  0.25651702  0.12018332  0.74932020  1
  O  O378  1  0.25145034  0.61814062  0.25699620  1
  O  O379  1  0.25654734  0.62028192  0.75448016  1
  O  O380  1  0.75862586  0.12628040  0.25605082  1
  O  O381  1  0.75616957  0.11988053  0.75421327  1
  O  O382  1  0.76355456  0.62383370  0.24872331  1
  O  O383  1  0.75972010  0.61798870  0.75256813  1
  O  O384  1  0.37342573  0.11495694  0.36860057  1
  O  O385  1  0.37363631  0.11938623  0.86733653  1
  O  O386  1  0.36932484  0.61730612  0.37406105  1
  O  O387  1  0.37142917  0.61943466  0.86975069  1
  O  O388  1  0.86911411  0.12514825  0.36460882  1
  O  O389  1  0.86872013  0.12389124  0.86610875  1
  O  O390  1  0.87544480  0.62536409  0.36254813  1
  O  O391  1  0.87523489  0.61823776  0.86488461  1
  O  O392  1  0.12559672  0.38298591  0.13136989  1
  O  O393  1  0.13174604  0.38122520  0.63100051  1
  O  O394  1  0.12872548  0.87912118  0.13447612  1
  O  O395  1  0.13318504  0.88192653  0.62599384  1
  O  O396  1  0.62889702  0.37884398  0.13108404  1
  O  O397  1  0.62492038  0.38087124  0.63385206  1
  O  O398  1  0.63037378  0.87872720  0.12919867  1
  O  O399  1  0.62950681  0.88002439  0.63011516  1
  O  O400  1  0.11994795  0.25450566  0.25408071  1
  O  O401  1  0.12426606  0.25973517  0.75417212  1
  O  O402  1  0.12056924  0.75616125  0.25518921  1
  O  O403  1  0.11304434  0.75024785  0.74996963  1
  O  O404  1  0.61753092  0.25377619  0.25585525  1
  O  O405  1  0.61944056  0.25352582  0.75639611  1
  O  O406  1  0.62046239  0.75247705  0.25660175  1
  O  O407  1  0.61980369  0.75423168  0.75523186  1
  O  O408  1  0.37895031  0.24506692  0.24537559  1
  O  O409  1  0.38050999  0.24634229  0.74495781  1
  O  O410  1  0.38255283  0.74869443  0.24358389  1
  O  O411  1  0.38102723  0.74429584  0.74470504  1
  O  O412  1  0.87966638  0.24207145  0.24614427  1
  O  O413  1  0.87560966  0.23621162  0.74823970  1
  O  O414  1  0.88185583  0.74275849  0.24402580  1
  O  O415  1  0.88125583  0.74013645  0.75047000  1
  O  O416  1  0.38039291  0.49374721  0.49510567  1
  O  O417  1  0.38053122  0.49515999  0.99500922  1
  O  O418  1  0.37933922  1.00193670  0.49005983  1
  O  O419  1  0.37930281  0.99634308  0.99494029  1
  O  O420  1  0.88793543  0.50046775  0.49945746  1
  O  O421  1  0.88292027  0.49903391  0.99431328  1
  O  O422  1  0.87558341  0.98667747  0.49686956  1
  O  O423  1  0.88284303  0.99294010  1.00108412  1
  O  O424  1  0.11887833  0.00850637  -0.00013783  1
  O  O425  1  0.12267656  0.00849452  0.50703513  1
  O  O426  1  0.12084627  0.50814599  0.00559134  1
  O  O427  1  0.11784891  0.50523390  0.50406725  1
  O  O428  1  0.61933304  0.00524845  0.00501971  1
  O  O429  1  0.61963282  0.00476451  0.50475133  1
  O  O430  1  0.61891204  0.50396891  0.00615395  1
  O  O431  1  0.61813623  0.50308235  0.50619722  1
  O  O432  1  0.37405107  0.36780491  0.11778382  1
  O  O433  1  0.37049680  0.37051212  0.62025478  1
  O  O434  1  0.37383909  0.86824197  0.11757896  1
  O  O435  1  0.36585704  0.87002708  0.62411628  1
  O  O436  1  0.86845088  0.36819846  0.12522769  1
  O  O437  1  0.87193804  0.36943201  0.62048385  1
  O  O438  1  0.87132731  0.87061962  0.11742872  1
  O  O439  1  0.86784999  0.87461931  0.61505647  1
  O  O440  1  0.12471592  0.13264992  0.38229865  1
  O  O441  1  0.12622695  0.12876555  0.88722066  1
  O  O442  1  0.13089764  0.63127292  0.37913129  1
  O  O443  1  0.13327257  0.62644230  0.88160635  1
  O  O444  1  0.62837297  0.12990110  0.38033248  1
  O  O445  1  0.62985381  0.13030958  0.88043100  1
  O  O446  1  0.62384717  0.63183384  0.38124288  1
  O  O447  1  0.62569218  0.63183043  0.88167355  1
