# generated using pymatgen
data_V3Zn3O8
_symmetry_space_group_name_H-M   'P 1'
_cell_length_a   17.08569068
_cell_length_b   17.08596776
_cell_length_c   17.08583044
_cell_angle_alpha   89.99060430
_cell_angle_beta   89.99242115
_cell_angle_gamma   90.00951651
_symmetry_Int_Tables_number   1
_chemical_formula_structural   V3Zn3O8
_chemical_formula_sum   'V96 Zn96 O256'
_cell_volume   4987.79044309
_cell_formula_units_Z   32
loop_
 _symmetry_equiv_pos_site_id
 _symmetry_equiv_pos_as_xyz
  1  'x, y, z'
loop_
 _atom_site_type_symbol
 _atom_site_label
 _atom_site_symmetry_multiplicity
 _atom_site_fract_x
 _atom_site_fract_y
 _atom_site_fract_z
 _atom_site_occupancy
  V  V0  1  0.37666820  0.50075147  0.87596417  1
  V  V1  1  0.24793598  0.24860559  0.49890485  1
  V  V2  1  0.62417987  0.24927264  0.37622610  1
  V  V3  1  0.37309851  -0.00104630  0.37358929  1
  V  V4  1  0.62498380  0.87697889  0.24919040  1
  V  V5  1  -0.00162470  -0.00051156  -0.00186594  1
  V  V6  1  0.75086561  0.87462491  0.62497759  1
  V  V7  1  0.00090823  0.49832365  0.49882060  1
  V  V8  1  0.87517719  0.62430310  0.25080200  1
  V  V9  1  0.24984721  0.49861130  0.75048652  1
  V  V10  1  0.12526136  0.49997130  0.12542741  1
  V  V11  1  0.00047415  0.74954076  0.25143508  1
  V  V12  1  0.25031726  0.37400315  0.12534256  1
  V  V13  1  -0.00094781  0.12393964  0.12361979  1
  V  V14  1  0.87326565  0.75143561  0.12360901  1
  V  V15  1  0.87630076  0.50122925  0.87549769  1
  V  V16  1  0.37422394  0.24946247  0.12540750  1
  V  V17  1  0.37692158  0.62512832  0.75112503  1
  V  V18  1  0.25170495  0.74730568  0.49968835  1
  V  V19  1  0.74908264  0.00027658  0.75091793  1
  V  V20  1  0.12420756  0.75214699  0.87270603  1
  V  V21  1  0.87527353  0.00006728  0.87497647  1
  V  V22  1  0.00093688  0.50044985  0.00116239  1
  V  V23  1  0.87353413  0.87467162  0.50090965  1
  V  V24  1  0.00138443  0.62419494  0.62542213  1
  V  V25  1  0.49886178  0.37534595  0.37624645  1
  V  V26  1  0.00033125  0.62502200  0.12636578  1
  V  V27  1  0.74937014  0.62552568  0.37614426  1
  V  V28  1  0.87728620  0.62616158  0.74983638  1
  V  V29  1  0.87475392  0.12682140  0.74916144  1
  V  V30  1  0.12412198  0.37311429  0.24994928  1
  V  V31  1  0.49905675  0.00062220  0.50039951  1
  V  V32  1  0.25067463  0.87456836  0.12351388  1
  V  V33  1  0.50014756  0.37568294  0.87630315  1
  V  V34  1  0.12476746  0.74839991  0.37471632  1
  V  V35  1  0.24989486  0.25018653  0.00089089  1
  V  V36  1  0.87512977  0.49916503  0.37552322  1
  V  V37  1  0.87455920  0.12354760  0.24972556  1
  V  V38  1  0.62435764  0.12513401  0.00067029  1
  V  V39  1  0.00011034  -0.00016558  0.50042776  1
  V  V40  1  0.37549701  -0.00021972  0.87645207  1
  V  V41  1  0.87493872  0.37596235  -0.00025409  1
  V  V42  1  0.49850645  0.12522476  0.62508632  1
  V  V43  1  0.75011034  0.00019827  0.24968082  1
  V  V44  1  0.50185806  0.62545340  0.62478897  1
  V  V45  1  0.62295737  0.12534488  0.50047174  1
  V  V46  1  -0.00020542  0.87319476  0.37576269  1
  V  V47  1  0.62533768  0.00053453  0.12534846  1
  V  V48  1  0.74970443  0.25108353  -0.00101149  1
  V  V49  1  0.12439314  -0.00077358  0.12400828  1
  V  V50  1  0.74866586  0.25022482  0.50065671  1
  V  V51  1  0.74968205  0.37507244  0.12515882  1
  V  V52  1  0.50166333  0.75144608  0.75093417  1
  V  V53  1  0.37568876  0.87373375  0.49896823  1
  V  V54  1  0.74946896  0.12607710  0.87419491  1
  V  V55  1  0.12566008  0.62622426  0.00081355  1
  V  V56  1  0.00172570  0.12493427  0.62312328  1
  V  V57  1  0.37348334  0.12370172  0.25043980  1
  V  V58  1  0.62534753  0.37599169  0.74901528  1
  V  V59  1  0.50008729  0.49966793  0.00002739  1
  V  V60  1  0.37324439  0.12579930  0.75078876  1
  V  V61  1  -0.00033787  0.37358112  0.37431930  1
  V  V62  1  0.62432957  0.25060889  0.87445803  1
  V  V63  1  0.62503967  0.49983589  0.12531610  1
  V  V64  1  0.24896375  0.12589348  0.87393295  1
  V  V65  1  0.75047468  0.62749494  0.87583633  1
  V  V66  1  0.37584852  0.49928393  0.37541472  1
  V  V67  1  0.49987222  0.50029566  0.50014180  1
  V  V68  1  0.62657860  0.50026436  0.62524348  1
  V  V69  1  0.50040397  0.12454121  0.12473760  1
  V  V70  1  0.37252720  0.25130414  0.62505151  1
  V  V71  1  0.87453343  0.25254135  0.62343810  1
  V  V72  1  0.37691345  0.74961313  0.62488800  1
  V  V73  1  0.62455193  0.37442297  0.25102465  1
  V  V74  1  -0.00028179  0.87573827  0.87353922  1
  V  V75  1  0.25087848  0.62334540  0.37477434  1
  V  V76  1  0.62578649  0.75036890  0.37518633  1
  V  V77  1  0.12379397  0.12497269  -0.00180702  1
  V  V78  1  0.74974226  0.49945905  0.25111930  1
  V  V79  1  0.50018406  0.87507036  0.37390117  1
  V  V80  1  0.24816853  0.87568331  0.62600522  1
  V  V81  1  0.25246975  0.75111563  -0.00029495  1
  V  V82  1  0.24924512  -0.00078480  0.24924486  1
  V  V83  1  0.25004301  0.49903340  0.25006456  1
  V  V84  1  0.37602313  0.62527802  0.24823325  1
  V  V85  1  0.00120920  0.37529547  0.87481303  1
  V  V86  1  0.62400039  0.87518081  0.75316249  1
  V  V87  1  0.00006313  0.24913226  0.24980696  1
  V  V88  1  0.87475045  0.24966642  0.12460580  1
  V  V89  1  0.62683098  0.62500889  -0.00022845  1
  V  V90  1  0.12603292  0.62179883  0.50041084  1
  V  V91  1  0.49868274  0.25039148  0.75042931  1
  V  V92  1  0.49990341  0.62534491  0.12564789  1
  V  V93  1  0.49932087  0.24940786  0.25075364  1
  V  V94  1  0.87447398  -0.00027078  0.37405898  1
  V  V95  1  0.12368030  0.25170411  0.87420433  1
  Zn  Zn96  1  0.25109101  0.62575659  0.87500797  1
  Zn  Zn97  1  0.87565708  0.74956432  0.62361675  1
  Zn  Zn98  1  0.37798302  0.75074044  0.12471296  1
  Zn  Zn99  1  0.12467215  0.12297811  0.49629181  1
  Zn  Zn100  1  0.74900698  0.87479662  0.12274520  1
  Zn  Zn101  1  0.62324012  0.75115556  0.87905159  1
  Zn  Zn102  1  0.12275758  0.87806261  0.74717270  1
  Zn  Zn103  1  0.00179319  0.75265305  0.74745738  1
  Zn  Zn104  1  0.75168123  0.37732771  0.62490475  1
  Zn  Zn105  1  0.37277959  0.37558802  0.50161931  1
  Zn  Zn106  1  0.49841125  0.75142820  0.24735180  1
  Zn  Zn107  1  0.37545085  0.37530424  0.00144275  1
  Zn  Zn108  1  0.62276328  0.00133055  0.62616178  1
  Zn  Zn109  1  0.24706151  0.00130780  0.74863698  1
  Zn  Zn110  1  0.75079487  0.49993088  0.74879664  1
  Zn  Zn111  1  0.87230016  0.87448174  -0.00084117  1
  Zn  Zn112  1  0.75132092  0.74893176  0.50119576  1
  Zn  Zn113  1  0.12720211  0.49709117  0.62625670  1
  Zn  Zn114  1  0.24585969  0.12264103  0.37518123  1
  Zn  Zn115  1  0.50125452  -0.00310602  0.00024648  1
  Zn  Zn116  1  0.74988033  0.12495391  0.37600476  1
  Zn  Zn117  1  0.74855258  0.75203843  0.00198591  1
  Zn  Zn118  1  0.12470946  0.87461452  0.25093022  1
  Zn  Zn119  1  0.12521693  0.24638242  0.37452864  1
  Zn  Zn120  1  0.12420183  0.37564954  0.74884049  1
  Zn  Zn121  1  0.12562582  -0.00007542  0.62457150  1
  Zn  Zn122  1  0.62674721  0.62661587  0.50073698  1
  Zn  Zn123  1  0.37956348  0.87507782  -0.00087834  1
  Zn  Zn124  1  0.24746797  0.37504486  0.62419687  1
  Zn  Zn125  1  0.87420765  0.37537779  0.49955336  1
  Zn  Zn126  1  0.49867960  0.87421134  0.87763856  1
  Zn  Zn127  1  0.00141046  0.25363892  0.74829642  1
  Zn  Zn128  1  0.18656012  0.18573212  0.18712482  1
  Zn  Zn129  1  0.18610079  0.18983550  0.68792977  1
  Zn  Zn130  1  0.18810188  0.68807038  0.18817450  1
  Zn  Zn131  1  0.18930306  0.68559825  0.68816934  1
  Zn  Zn132  1  0.68792323  0.18657010  0.18865842  1
  Zn  Zn133  1  0.68650663  0.18852376  0.68596505  1
  Zn  Zn134  1  0.68658902  0.68713797  0.18972173  1
  Zn  Zn135  1  0.68851016  0.68885156  0.69009932  1
  Zn  Zn136  1  0.31199582  0.31136022  0.31463022  1
  Zn  Zn137  1  0.31262064  0.31429480  0.81455570  1
  Zn  Zn138  1  0.31268577  0.81099207  0.31053353  1
  Zn  Zn139  1  0.31320705  0.81380760  0.81123791  1
  Zn  Zn140  1  0.81235496  0.31136358  0.31339269  1
  Zn  Zn141  1  0.81211585  0.31408058  0.80948493  1
  Zn  Zn142  1  0.81134831  0.81368837  0.31095015  1
  Zn  Zn143  1  0.81425800  0.81150478  0.81192576  1
  Zn  Zn144  1  0.18669415  0.43370351  0.43751087  1
  Zn  Zn145  1  0.18923657  0.43728116  0.93705452  1
  Zn  Zn146  1  0.18563708  0.93645163  0.43913866  1
  Zn  Zn147  1  0.18793923  0.93795899  0.93633795  1
  Zn  Zn148  1  0.68748269  0.43629599  0.44005932  1
  Zn  Zn149  1  0.68809332  0.43974241  0.93612630  1
  Zn  Zn150  1  0.68715734  0.93933444  0.43784174  1
  Zn  Zn151  1  0.68963279  0.93714888  0.94042735  1
  Zn  Zn152  1  0.31237858  0.06307712  0.06106280  1
  Zn  Zn153  1  0.31238312  0.06321543  0.56147649  1
  Zn  Zn154  1  0.31347570  0.56299631  0.06233680  1
  Zn  Zn155  1  0.31451707  0.56129040  0.56458103  1
  Zn  Zn156  1  0.81108678  0.06187128  0.06156902  1
  Zn  Zn157  1  0.81182845  0.06249245  0.56215402  1
  Zn  Zn158  1  0.81278677  0.56353453  0.06264137  1
  Zn  Zn159  1  0.81263252  0.56351610  0.56031171  1
  Zn  Zn160  1  0.43720885  0.43740951  0.18790771  1
  Zn  Zn161  1  0.43631474  0.43613085  0.68699407  1
  Zn  Zn162  1  0.43771266  0.93757504  0.18660078  1
  Zn  Zn163  1  0.43556970  0.93865203  0.68880509  1
  Zn  Zn164  1  0.93748564  0.43665983  0.18831933  1
  Zn  Zn165  1  0.93952971  0.43855812  0.68804431  1
  Zn  Zn166  1  0.93818444  0.93537552  0.18835172  1
  Zn  Zn167  1  0.93743716  0.93863492  0.68860576  1
  Zn  Zn168  1  0.06341944  0.06163305  0.31247159  1
  Zn  Zn169  1  0.06340170  0.06195929  0.80779877  1
  Zn  Zn170  1  0.06273757  0.56117490  0.31307916  1
  Zn  Zn171  1  0.06474316  0.56376876  0.81422924  1
  Zn  Zn172  1  0.56211418  0.06288560  0.31319314  1
  Zn  Zn173  1  0.56073636  0.06241693  0.81279583  1
  Zn  Zn174  1  0.56201603  0.56365910  0.31228490  1
  Zn  Zn175  1  0.56326811  0.56335995  0.81218923  1
  Zn  Zn176  1  0.43380501  0.18664122  0.43774912  1
  Zn  Zn177  1  0.43670730  0.18643695  0.93903070  1
  Zn  Zn178  1  0.43992562  0.68602834  0.43662302  1
  Zn  Zn179  1  0.43946391  0.68735371  0.93688838  1
  Zn  Zn180  1  0.93687929  0.18705163  0.43706444  1
  Zn  Zn181  1  0.93734801  0.18826495  0.93622254  1
  Zn  Zn182  1  0.93615504  0.68729946  0.43986917  1
  Zn  Zn183  1  0.93922397  0.68830260  0.93879464  1
  Zn  Zn184  1  0.06275984  0.31256967  0.06190580  1
  Zn  Zn185  1  0.06571049  0.31446134  0.56232663  1
  Zn  Zn186  1  0.06152750  0.81385952  0.06073393  1
  Zn  Zn187  1  0.06294341  0.80972690  0.55970585  1
  Zn  Zn188  1  0.56183760  0.31223960  0.06284119  1
  Zn  Zn189  1  0.56030931  0.31377345  0.56272876  1
  Zn  Zn190  1  0.56275471  0.81242133  0.06161776  1
  Zn  Zn191  1  0.56443265  0.81413275  0.56259308  1
  O  O192  1  0.11839189  0.11915074  0.11783576  1
  O  O193  1  0.11044987  0.12620049  0.62315929  1
  O  O194  1  0.11961357  0.61941229  0.12116719  1
  O  O195  1  0.11705937  0.62284036  0.61943314  1
  O  O196  1  0.61997598  0.12130808  0.12060842  1
  O  O197  1  0.61623385  0.12432973  0.61928927  1
  O  O198  1  0.62104665  0.61767937  0.12119654  1
  O  O199  1  0.62050041  0.61687435  0.62595871  1
  O  O200  1  0.38213746  0.38251092  0.37444585  1
  O  O201  1  0.38352195  0.38185268  0.87820255  1
  O  O202  1  0.37992276  0.87866234  0.37952030  1
  O  O203  1  0.37445714  0.88731690  0.87522846  1
  O  O204  1  0.88154334  0.38184739  0.37409722  1
  O  O205  1  0.87925759  0.38115145  0.88118121  1
  O  O206  1  0.88005184  0.87987297  0.38000235  1
  O  O207  1  0.88102327  0.88200480  0.87487092  1
  O  O208  1  0.25613135  -0.00295149  0.36793214  1
  O  O209  1  0.25788777  0.00760342  0.87409043  1
  O  O210  1  0.25502951  0.50427533  0.36910393  1
  O  O211  1  0.25757634  0.50333620  0.86903058  1
  O  O212  1  0.75669413  0.00189039  0.36837580  1
  O  O213  1  0.75525408  0.00714854  0.87006724  1
  O  O214  1  0.75408220  0.50446927  0.36989143  1
  O  O215  1  0.75756699  0.51111272  0.87391434  1
  O  O216  1  0.24456536  0.49466381  0.13047475  1
  O  O217  1  0.25101446  0.49978655  0.63751277  1
  O  O218  1  0.24449916  0.99229441  0.12739706  1
  O  O219  1  0.25076249  0.98688864  0.62310546  1
  O  O220  1  0.74541049  0.49442305  0.13092095  1
  O  O221  1  0.73868748  0.50027253  0.62559124  1
  O  O222  1  0.74328498  1.00024797  0.13205555  1
  O  O223  1  0.74880634  0.99052845  0.63198828  1
  O  O224  1  0.00473511  0.36886767  0.25334261  1
  O  O225  1  0.00174460  0.37522887  0.76061285  1
  O  O226  1  0.00178215  0.86732864  0.25783001  1
  O  O227  1  0.00198302  0.87134156  0.75637494  1
  O  O228  1  0.50593911  0.36947588  0.25551077  1
  O  O229  1  0.50542810  0.36943151  0.75674399  1
  O  O230  1  0.50639383  0.87498157  0.25652282  1
  O  O231  1  0.50984801  0.87088615  0.74925569  1
  O  O232  1  0.49401741  0.13061722  0.24465105  1
  O  O233  1  0.49394602  0.13204112  0.74517736  1
  O  O234  1  0.49359656  0.62460567  0.24301838  1
  O  O235  1  0.49626529  0.63111271  0.74411729  1
  O  O236  1  0.99383184  0.12893254  0.24198001  1
  O  O237  1  0.99219145  0.12699007  0.73913097  1
  O  O238  1  0.99453511  0.62931006  0.24564803  1
  O  O239  1  0.99350869  0.62438832  0.74224226  1
  O  O240  1  0.36786461  0.25074915  0.00761715  1
  O  O241  1  0.36605463  0.25019701  0.50679286  1
  O  O242  1  0.36213624  0.75047345  -0.00008911  1
  O  O243  1  0.37122416  0.75380417  0.50476226  1
  O  O244  1  0.86894732  0.25586007  0.00501047  1
  O  O245  1  0.86801189  0.24966791  0.50886302  1
  O  O246  1  0.87521491  0.74836138  0.01334113  1
  O  O247  1  0.87124567  0.75856881  0.50275218  1
  O  O248  1  0.13554610  0.24758417  0.49790783  1
  O  O249  1  0.12989222  0.24374311  0.99545748  1
  O  O250  1  0.13184273  0.74106562  0.49358388  1
  O  O251  1  0.13245456  0.74641094  0.99295984  1
  O  O252  1  0.62820504  0.24534114  0.49571289  1
  O  O253  1  0.63095591  0.24579803  0.99454102  1
  O  O254  1  0.62745085  0.75074332  0.48688788  1
  O  O255  1  0.62870304  0.73983498  0.99815846  1
  O  O256  1  0.49499734  0.24522911  0.13182089  1
  O  O257  1  0.49311852  0.24503489  0.63094805  1
  O  O258  1  0.49817627  0.74087518  0.12683386  1
  O  O259  1  0.49605684  0.74580991  0.62991282  1
  O  O260  1  0.99361519  0.24436281  0.12862631  1
  O  O261  1  0.99002189  0.24182426  0.62308670  1
  O  O262  1  0.99391545  0.74449080  0.13057036  1
  O  O263  1  0.99919524  0.73587840  0.62525888  1
  O  O264  1  -0.00099987  0.25574718  0.36679573  1
  O  O265  1  0.00535620  0.25731181  0.87511858  1
  O  O266  1  0.00484038  0.75291894  0.37097790  1
  O  O267  1  0.01040759  0.75576578  0.87627586  1
  O  O268  1  0.50387040  0.25483387  0.36972636  1
  O  O269  1  0.50511582  0.25493406  0.87020230  1
  O  O270  1  0.50973824  0.75601350  0.37331523  1
  O  O271  1  0.50268196  0.75280405  0.86588428  1
  O  O272  1  0.24810123  0.13469220  0.49877972  1
  O  O273  1  0.24270789  0.13107914  0.99493892  1
  O  O274  1  0.24677631  0.62819706  0.49441514  1
  O  O275  1  0.24410893  0.63535787  1.00053288  1
  O  O276  1  0.74182454  0.13193497  0.49923831  1
  O  O277  1  0.74469904  0.13245540  0.99401005  1
  O  O278  1  0.74713727  0.62852957  0.49160992  1
  O  O279  1  0.74566402  0.62415100  0.99102766  1
  O  O280  1  0.25119019  0.36833425  0.00822254  1
  O  O281  1  0.25261055  0.36372784  0.50118679  1
  O  O282  1  0.24908080  0.86683726  0.00794369  1
  O  O283  1  0.25636237  0.86686892  0.50620310  1
  O  O284  1  0.75485633  0.37082397  0.00512348  1
  O  O285  1  0.75304368  0.36591976  0.50405827  1
  O  O286  1  0.75473538  0.86979145  0.00476446  1
  O  O287  1  0.75410479  0.87702938  0.51068295  1
  O  O288  1  0.13035065  0.49420133  0.24428468  1
  O  O289  1  0.13853287  0.50176941  0.75209860  1
  O  O290  1  0.13061123  0.99743272  0.24123379  1
  O  O291  1  0.12992088  0.99587384  0.74305726  1
  O  O292  1  0.63052538  0.49387929  0.24527650  1
  O  O293  1  0.62432883  0.49521390  0.73981611  1
  O  O294  1  0.63015203  0.99658494  0.24562501  1
  O  O295  1  0.63034213  0.99189968  0.74966874  1
  O  O296  1  0.36893163  0.00429028  0.25409216  1
  O  O297  1  0.37208354  0.00763823  0.75918943  1
  O  O298  1  0.36906689  0.50499324  0.25536539  1
  O  O299  1  0.37025201  0.50572605  0.75592720  1
  O  O300  1  0.87068936  0.00446686  0.25428870  1
  O  O301  1  0.86825117  0.00747388  0.75606173  1
  O  O302  1  0.86918235  0.50487051  0.25476306  1
  O  O303  1  0.87505741  0.51151609  0.75614196  1
  O  O304  1  0.11718286  0.37258849  0.36595779  1
  O  O305  1  0.11789548  0.36911419  0.87712395  1
  O  O306  1  0.11809240  0.86573842  0.37517169  1
  O  O307  1  0.11984209  0.86603351  0.87471339  1
  O  O308  1  0.61881929  0.36971660  0.36964231  1
  O  O309  1  0.62024528  0.37023118  0.86997837  1
  O  O310  1  0.62024253  0.86916762  0.36980926  1
  O  O311  1  0.62681692  0.87426373  0.86240071  1
  O  O312  1  0.37992218  0.12997552  0.13072240  1
  O  O313  1  0.37968443  0.13094811  0.63138270  1
  O  O314  1  0.38186045  0.62468633  0.13101980  1
  O  O315  1  0.38251066  0.63100434  0.63082934  1
  O  O316  1  0.88002532  0.13051941  0.12884931  1
  O  O317  1  0.88082641  0.13295514  0.62874231  1
  O  O318  1  0.88099865  0.63069292  0.13142051  1
  O  O319  1  0.88315215  0.62420104  0.63313990  1
  O  O320  1  0.25456638  0.25420192  0.12049575  1
  O  O321  1  0.25579947  0.24992027  0.61675243  1
  O  O322  1  0.24812186  0.75839387  0.11591361  1
  O  O323  1  0.25726949  0.75440342  0.61883371  1
  O  O324  1  0.75480172  0.25585011  0.11944939  1
  O  O325  1  0.75924398  0.25031542  0.61955073  1
  O  O326  1  0.76265173  0.74807563  0.12698685  1
  O  O327  1  0.75123876  0.76301581  0.62498584  1
  O  O328  1  0.24955659  0.24624529  0.38477193  1
  O  O329  1  0.24483591  0.24551010  0.88175536  1
  O  O330  1  0.24570524  0.74279142  0.38032176  1
  O  O331  1  0.24188372  0.75135647  0.88374409  1
  O  O332  1  0.74238821  0.24821319  0.38163236  1
  O  O333  1  0.74444518  0.24597970  0.87952130  1
  O  O334  1  0.74087611  0.74522437  0.37415964  1
  O  O335  1  0.75138583  0.73623819  0.87672769  1
  O  O336  1  0.00422281  0.11969013  0.00462953  1
  O  O337  1  -0.00275029  0.11877372  0.50925090  1
  O  O338  1  0.00623372  0.61941030  0.00693609  1
  O  O339  1  0.00527060  0.61890200  0.50672138  1
  O  O340  1  0.50777312  0.12579496  0.00759757  1
  O  O341  1  0.50302717  0.12027405  0.50562891  1
  O  O342  1  0.50668933  0.61830345  0.00533123  1
  O  O343  1  0.50340428  0.61858128  0.50708641  1
  O  O344  1  0.49757869  0.38184563  0.49287028  1
  O  O345  1  0.50006953  0.38166787  0.99431854  1
  O  O346  1  0.49454032  0.88027897  0.49462008  1
  O  O347  1  0.49721073  0.87873782  0.99563998  1
  O  O348  1  0.99819718  0.38087169  0.49227806  1
  O  O349  1  0.99390802  0.38126926  0.99646350  1
  O  O350  1  0.99345300  0.87913765  0.49540573  1
  O  O351  1  0.99707623  0.88266571  0.99269227  1
  O  O352  1  0.49585214  0.49529006  0.37988212  1
  O  O353  1  0.49668757  0.49533131  0.88038810  1
  O  O354  1  0.49339578  0.99420699  0.38010673  1
  O  O355  1  0.48760977  1.00105434  0.87687087  1
  O  O356  1  0.99417852  0.49441606  0.37861993  1
  O  O357  1  0.99557688  0.49662895  0.88285950  1
  O  O358  1  0.99370429  0.99253311  0.37956558  1
  O  O359  1  0.99456562  0.99653159  0.87881249  1
  O  O360  1  0.00395576  0.00447900  0.11892309  1
  O  O361  1  -0.00346620  0.01041894  0.61869577  1
  O  O362  1  0.00509883  0.50506849  0.12083996  1
  O  O363  1  0.00113373  0.51075984  0.61899502  1
  O  O364  1  0.50692536  0.00798441  0.12463142  1
  O  O365  1  0.49869777  0.00706074  0.61841579  1
  O  O366  1  0.50645937  0.50409628  0.12032714  1
  O  O367  1  0.50752980  0.50552321  0.62107110  1
  O  O368  1  0.24427834  0.37965125  0.24483321  1
  O  O369  1  0.25034335  0.38821906  0.75124295  1
  O  O370  1  0.24826156  0.87926803  0.23911024  1
  O  O371  1  0.25017572  0.87428827  0.73530002  1
  O  O372  1  0.74414683  0.37952965  0.24469661  1
  O  O373  1  0.74167663  0.37978590  0.74656355  1
  O  O374  1  0.74307908  0.88305703  0.24743825  1
  O  O375  1  0.74414220  0.87940819  0.74403252  1
  O  O376  1  0.25650452  0.11675639  0.24853869  1
  O  O377  1  0.25625557  0.12586269  0.75644955  1
  O  O378  1  0.25461718  0.61816595  0.25490769  1
  O  O379  1  0.25883297  0.61703852  0.75250748  1
  O  O380  1  0.75741124  0.11912298  0.25172004  1
  O  O381  1  0.75385225  0.12068379  0.75511093  1
  O  O382  1  0.75555551  0.61764540  0.25583868  1
  O  O383  1  0.75989820  0.62401948  0.75809277  1
  O  O384  1  0.37318487  0.11618455  0.36726529  1
  O  O385  1  0.36884184  0.11980346  0.87051688  1
  O  O386  1  0.37004892  0.61886877  0.36913822  1
  O  O387  1  0.37531827  0.61859323  0.86836598  1
  O  O388  1  0.87481742  0.11749359  0.36723391  1
  O  O389  1  0.86854194  0.12156958  0.86927054  1
  O  O390  1  0.87023792  0.61916216  0.36945435  1
  O  O391  1  0.87135268  0.62086542  0.86937353  1
  O  O392  1  0.12994054  0.38071127  0.13005965  1
  O  O393  1  0.12856230  0.38016086  0.63100275  1
  O  O394  1  0.13460752  0.88042227  0.12472872  1
  O  O395  1  0.13730783  0.87144699  0.62317852  1
  O  O396  1  0.63042690  0.37973942  0.13090041  1
  O  O397  1  0.62317019  0.38509489  0.63077467  1
  O  O398  1  0.62552641  0.88230560  0.13233780  1
  O  O399  1  0.63326423  0.87727154  0.63516100  1
  O  O400  1  0.11732577  0.25576942  0.24777892  1
  O  O401  1  0.12215732  0.25332773  0.75989015  1
  O  O402  1  0.11842211  0.74951331  0.25730457  1
  O  O403  1  0.12561593  0.75023507  0.76281097  1
  O  O404  1  0.61946420  0.25515136  0.25536320  1
  O  O405  1  0.61851967  0.25510565  0.75529912  1
  O  O406  1  0.62398899  0.75646666  0.26047056  1
  O  O407  1  0.62041211  0.76013466  0.75191304  1
  O  O408  1  0.38008803  0.24402890  0.24503172  1
  O  O409  1  0.37967823  0.24516618  0.74617123  1
  O  O410  1  0.37670666  0.74075896  0.24665664  1
  O  O411  1  0.38119767  0.74536232  0.74407708  1
  O  O412  1  0.87962305  0.24435121  0.24304161  1
  O  O413  1  0.87550555  0.24487011  0.73963019  1
  O  O414  1  0.88076847  0.74339839  0.24381779  1
  O  O415  1  0.87927060  0.73647938  0.74882490  1
  O  O416  1  0.38172213  0.49944878  0.49299988  1
  O  O417  1  0.38235821  0.49897655  0.99451006  1
  O  O418  1  0.37990579  0.99321123  0.49335503  1
  O  O419  1  0.37589514  1.00064811  0.98842827  1
  O  O420  1  0.88230193  0.49884725  0.49271050  1
  O  O421  1  0.88128505  0.49525459  0.99611254  1
  O  O422  1  0.87981835  0.99401495  0.49391302  1
  O  O423  1  0.88123707  1.00112007  0.99227539  1
  O  O424  1  0.11864418  0.00627929  0.00376233  1
  O  O425  1  0.11521347  0.00116541  0.50415105  1
  O  O426  1  0.12071653  0.50595754  0.00631172  1
  O  O427  1  0.11927566  0.50604111  0.49981514  1
  O  O428  1  0.62567837  0.00901870  0.00651093  1
  O  O429  1  0.61652720  0.00661043  0.50149902  1
  O  O430  1  0.62018496  0.50486143  0.00622080  1
  O  O431  1  0.61897609  0.50113205  0.50991677  1
  O  O432  1  0.36836912  0.36776012  0.12546823  1
  O  O433  1  0.37235156  0.36556253  0.62354104  1
  O  O434  1  0.36187483  0.87445679  0.12235632  1
  O  O435  1  0.36888012  0.86876693  0.61868037  1
  O  O436  1  0.86914903  0.37009051  0.11967505  1
  O  O437  1  0.87607952  0.36378376  0.62456918  1
  O  O438  1  0.87497507  0.86201748  0.12531810  1
  O  O439  1  0.86552064  0.87474787  0.62168889  1
  O  O440  1  0.12739918  0.12808823  0.37756812  1
  O  O441  1  0.12888742  0.13065576  0.87999979  1
  O  O442  1  0.13144236  0.62851850  0.38004863  1
  O  O443  1  0.12615882  0.63610869  0.88301155  1
  O  O444  1  0.62431816  0.13234769  0.38195683  1
  O  O445  1  0.62989484  0.13163475  0.87945161  1
  O  O446  1  0.63012121  0.63461810  0.37435946  1
  O  O447  1  0.63581958  0.62403679  0.87948696  1
