# generated using pymatgen
data_V3Zn3O8
_symmetry_space_group_name_H-M   'P 1'
_cell_length_a   17.08585037
_cell_length_b   17.08514685
_cell_length_c   17.08520760
_cell_angle_alpha   90.00073098
_cell_angle_beta   89.99659456
_cell_angle_gamma   89.99591219
_symmetry_Int_Tables_number   1
_chemical_formula_structural   V3Zn3O8
_chemical_formula_sum   'V96 Zn96 O256'
_cell_volume   4987.41575906
_cell_formula_units_Z   32
loop_
 _symmetry_equiv_pos_site_id
 _symmetry_equiv_pos_as_xyz
  1  'x, y, z'
loop_
 _atom_site_type_symbol
 _atom_site_label
 _atom_site_symmetry_multiplicity
 _atom_site_fract_x
 _atom_site_fract_y
 _atom_site_fract_z
 _atom_site_occupancy
  V  V0  1  0.24988490  0.75131659  -0.00015851  1
  V  V1  1  -0.00135928  0.74990202  0.25028839  1
  V  V2  1  0.37395444  0.62628231  0.74892448  1
  V  V3  1  0.62430438  0.12511356  0.50064321  1
  V  V4  1  0.49955776  0.12535515  0.62427381  1
  V  V5  1  0.87447518  0.87559605  0.49903123  1
  V  V6  1  0.74988555  0.74892145  0.00003285  1
  V  V7  1  0.62614071  -0.00084369  0.12457787  1
  V  V8  1  0.62547407  0.25012811  0.37532687  1
  V  V9  1  0.62479920  0.62411908  0.50056065  1
  V  V10  1  0.74894679  0.87406882  0.12529817  1
  V  V11  1  0.12411003  0.75107712  0.37477058  1
  V  V12  1  0.00095774  0.50068318  0.00064544  1
  V  V13  1  0.00020821  0.12582936  0.62451764  1
  V  V14  1  0.25052197  0.12458218  0.87460777  1
  V  V15  1  0.75008107  0.62421398  0.87546375  1
  V  V16  1  0.87559920  0.49971098  0.87667991  1
  V  V17  1  -0.00011723  0.49985172  0.50028887  1
  V  V18  1  0.50076232  0.25071137  0.75175907  1
  V  V19  1  0.24958727  0.25005780  0.49998507  1
  V  V20  1  0.74814959  0.87552472  0.62564744  1
  V  V21  1  0.87543493  0.37576801  0.50049437  1
  V  V22  1  -0.00091257  0.62748547  0.62530454  1
  V  V23  1  0.62443115  0.74844264  0.37524404  1
  V  V24  1  0.00063251  0.62444774  0.12522264  1
  V  V25  1  0.50227324  0.12379187  0.12522330  1
  V  V26  1  0.87519959  0.62586287  0.75036094  1
  V  V27  1  0.62365997  0.62288552  0.00076805  1
  V  V28  1  0.74992882  0.25037913  0.50037497  1
  V  V29  1  0.24959682  0.62479865  0.37409257  1
  V  V30  1  0.87419392  0.62334108  0.25087983  1
  V  V31  1  0.87710359  0.24807481  0.12595642  1
  V  V32  1  0.37544533  -0.00000268  0.87408450  1
  V  V33  1  0.37338084  0.75124018  0.62408755  1
  V  V34  1  0.25125822  0.24927077  0.00011501  1
  V  V35  1  0.62513403  0.37434297  0.24943295  1
  V  V36  1  0.37572350  0.87524394  -0.00146861  1
  V  V37  1  0.49960417  0.87442791  0.87415354  1
  V  V38  1  0.49967173  0.49971697  0.50011309  1
  V  V39  1  0.62446131  0.75005318  0.87400041  1
  V  V40  1  0.37457635  0.25032187  0.62600784  1
  V  V41  1  0.12481172  0.37560932  0.75157513  1
  V  V42  1  0.12533162  0.25065268  0.87494902  1
  V  V43  1  0.25056894  0.12509897  0.37497251  1
  V  V44  1  0.87374868  0.74862499  0.12519660  1
  V  V45  1  0.37607842  0.12396113  0.25040623  1
  V  V46  1  0.62646571  0.12374734  0.00054810  1
  V  V47  1  0.49955748  0.75078988  0.74969477  1
  V  V48  1  0.12603763  0.24933113  0.37588590  1
  V  V49  1  0.37394567  0.62507288  0.24993083  1
  V  V50  1  0.50071727  0.74970843  0.25043333  1
  V  V51  1  0.00045070  0.24938401  0.25025646  1
  V  V52  1  0.49973840  0.62470460  0.62393790  1
  V  V53  1  0.12410361  0.75180037  0.87412485  1
  V  V54  1  0.74868331  0.74907663  0.49954365  1
  V  V55  1  0.12466666  0.50086439  0.62532010  1
  V  V56  1  0.37548531  0.37560616  0.49978512  1
  V  V57  1  0.24963893  0.37589151  0.62493329  1
  V  V58  1  0.50109241  0.24956734  0.24972286  1
  V  V59  1  0.75005002  0.37308863  0.12540694  1
  V  V60  1  0.24956206  0.62644739  0.87479541  1
  V  V61  1  0.24981448  0.50135530  0.74981780  1
  V  V62  1  0.12461577  0.12404963  0.00006623  1
  V  V63  1  0.87491125  0.24997593  0.62574762  1
  V  V64  1  0.49964951  0.62341339  0.12387936  1
  V  V65  1  0.37540178  0.75020486  0.12436386  1
  V  V66  1  -0.00113105  0.87595291  0.37400084  1
  V  V67  1  0.75003520  -0.00019392  0.74929383  1
  V  V68  1  0.12315412  0.87495339  0.74952907  1
  V  V69  1  0.00110900  0.37572165  0.87613622  1
  V  V70  1  0.74919842  0.37597197  0.62682067  1
  V  V71  1  0.75167185  0.00005734  0.25124487  1
  V  V72  1  0.49947774  0.00078426  0.49971034  1
  V  V73  1  0.49905478  0.37528651  0.37546266  1
  V  V74  1  0.50020734  0.87449635  0.37538436  1
  V  V75  1  0.74905667  0.49918590  0.75033654  1
  V  V76  1  0.37497192  0.87541039  0.49990007  1
  V  V77  1  0.25011908  0.87640929  0.12546430  1
  V  V78  1  0.12639402  0.37500985  0.24984771  1
  V  V79  1  0.24976572  0.75145428  0.49940110  1
  V  V80  1  0.75111437  0.12413794  0.87414050  1
  V  V81  1  0.37748370  0.49908701  0.87654163  1
  V  V82  1  0.87520953  0.87503059  -0.00081810  1
  V  V83  1  0.37606945  0.24888485  0.12410523  1
  V  V84  1  0.75109958  0.12456718  0.37534384  1
  V  V85  1  0.25063227  0.37513420  0.12551210  1
  V  V86  1  0.87399267  0.12513110  0.74976236  1
  V  V87  1  0.00084183  0.37549648  0.37632228  1
  V  V88  1  0.75146990  0.24952734  0.00032153  1
  V  V89  1  0.25065568  -0.00029092  0.24896002  1
  V  V90  1  0.37453011  0.12499852  0.75091478  1
  V  V91  1  -0.00006030  0.00000112  -0.00042074  1
  V  V92  1  0.62491275  0.24998211  0.87428407  1
  V  V93  1  0.74996796  0.49956987  0.25079399  1
  V  V94  1  0.12460377  0.00043356  0.62411671  1
  V  V95  1  0.12456490  0.62639965  0.00097030  1
  Zn  Zn96  1  0.24943162  0.50114063  0.24900635  1
  Zn  Zn97  1  0.62192546  0.49750178  0.12360383  1
  Zn  Zn98  1  0.37476526  -0.00029946  0.37551116  1
  Zn  Zn99  1  0.50108189  0.49621456  0.00136305  1
  Zn  Zn100  1  0.62382035  0.00078163  0.62574205  1
  Zn  Zn101  1  0.00066803  0.00181661  0.49637983  1
  Zn  Zn102  1  0.37756279  0.37472896  -0.00032746  1
  Zn  Zn103  1  0.12436126  0.87726062  0.24789962  1
  Zn  Zn104  1  0.24919991  0.87688624  0.62334383  1
  Zn  Zn105  1  0.87630843  0.37457656  0.00004327  1
  Zn  Zn106  1  0.87664382  0.00229680  0.37424499  1
  Zn  Zn107  1  0.37353533  0.49910930  0.37350103  1
  Zn  Zn108  1  0.12596695  0.50114040  0.12612351  1
  Zn  Zn109  1  0.62427393  0.49876266  0.62708312  1
  Zn  Zn110  1  0.12407532  0.62606291  0.49988967  1
  Zn  Zn111  1  0.50126373  0.37419157  0.87694545  1
  Zn  Zn112  1  0.62414535  0.87642890  0.74976366  1
  Zn  Zn113  1  -0.00272992  0.87393241  0.87396567  1
  Zn  Zn114  1  0.62503816  0.87309247  0.25021478  1
  Zn  Zn115  1  0.87818544  0.12500338  0.25351527  1
  Zn  Zn116  1  0.75085243  0.62349333  0.37684948  1
  Zn  Zn117  1  0.87432820  0.75025116  0.62681027  1
  Zn  Zn118  1  0.50163235  -0.00125557  -0.00028798  1
  Zn  Zn119  1  0.87595976  0.50077756  0.37577293  1
  Zn  Zn120  1  0.24969348  0.00055533  0.74908546  1
  Zn  Zn121  1  0.12518215  0.00037115  0.12477195  1
  Zn  Zn122  1  -0.00229415  0.75126588  0.75120121  1
  Zn  Zn123  1  0.00263559  0.12370326  0.12772758  1
  Zn  Zn124  1  0.12557698  0.12456255  0.50013947  1
  Zn  Zn125  1  0.87470456  -0.00163789  0.87444381  1
  Zn  Zn126  1  -0.00037389  0.25120226  0.75158151  1
  Zn  Zn127  1  0.62310917  0.37672345  0.75131451  1
  Zn  Zn128  1  0.18702815  0.18643183  0.18705237  1
  Zn  Zn129  1  0.18731844  0.18819186  0.68945254  1
  Zn  Zn130  1  0.18590703  0.69159647  0.18841098  1
  Zn  Zn131  1  0.18629863  0.68924487  0.68664875  1
  Zn  Zn132  1  0.68929138  0.18596566  0.18818922  1
  Zn  Zn133  1  0.68621128  0.18798173  0.68760163  1
  Zn  Zn134  1  0.68554829  0.68485555  0.18765136  1
  Zn  Zn135  1  0.68662989  0.68752392  0.68715078  1
  Zn  Zn136  1  0.31341800  0.31060338  0.31169069  1
  Zn  Zn137  1  0.31257451  0.31344276  0.81259005  1
  Zn  Zn138  1  0.31377473  0.81314043  0.31225755  1
  Zn  Zn139  1  0.31004074  0.81486571  0.81026932  1
  Zn  Zn140  1  0.81422635  0.31328451  0.31327942  1
  Zn  Zn141  1  0.81318892  0.31298037  0.81242096  1
  Zn  Zn142  1  0.81108279  0.81137169  0.31276631  1
  Zn  Zn143  1  0.81363394  0.81197795  0.81249587  1
  Zn  Zn144  1  0.18641521  0.43878236  0.43804935  1
  Zn  Zn145  1  0.18860950  0.43891173  0.93943652  1
  Zn  Zn146  1  0.18708655  0.93852579  0.43688849  1
  Zn  Zn147  1  0.18729965  0.93842726  0.93635729  1
  Zn  Zn148  1  0.68649601  0.43793612  0.43804242  1
  Zn  Zn149  1  0.68688847  0.43552216  0.93804644  1
  Zn  Zn150  1  0.68476698  0.93785793  0.43703659  1
  Zn  Zn151  1  0.68768396  0.93692466  0.93667338  1
  Zn  Zn152  1  0.31427476  0.06156952  0.06161830  1
  Zn  Zn153  1  0.31201152  0.06235939  0.56208015  1
  Zn  Zn154  1  0.31195212  0.56248329  0.06189385  1
  Zn  Zn155  1  0.31309124  0.56310266  0.56026979  1
  Zn  Zn156  1  0.81432940  0.06254735  0.06346078  1
  Zn  Zn157  1  0.81280531  0.06100441  0.56187405  1
  Zn  Zn158  1  0.81243501  0.56093316  0.06372786  1
  Zn  Zn159  1  0.81269639  0.56114904  0.56368079  1
  Zn  Zn160  1  0.43522538  0.43960377  0.18901861  1
  Zn  Zn161  1  0.43850148  0.43699065  0.68873531  1
  Zn  Zn162  1  0.43796707  0.93715248  0.18807935  1
  Zn  Zn163  1  0.43707339  0.93838149  0.68704957  1
  Zn  Zn164  1  0.93791988  0.43615972  0.18721960  1
  Zn  Zn165  1  0.93684890  0.43886660  0.68915315  1
  Zn  Zn166  1  0.93606427  0.93746390  0.18478212  1
  Zn  Zn167  1  0.93714219  0.93922030  0.68642147  1
  Zn  Zn168  1  0.06542906  0.06265382  0.31058911  1
  Zn  Zn169  1  0.06091308  0.06164078  0.81261503  1
  Zn  Zn170  1  0.06419049  0.56078885  0.31139738  1
  Zn  Zn171  1  0.06221111  0.56354789  0.81310023  1
  Zn  Zn172  1  0.56446793  0.06070660  0.31334290  1
  Zn  Zn173  1  0.56350850  0.06169278  0.81160700  1
  Zn  Zn174  1  0.56251642  0.56204963  0.31335114  1
  Zn  Zn175  1  0.56291703  0.56355332  0.81148548  1
  Zn  Zn176  1  0.43616406  0.18796157  0.43721952  1
  Zn  Zn177  1  0.43893778  0.18600199  0.93853163  1
  Zn  Zn178  1  0.43657631  0.68784307  0.43753042  1
  Zn  Zn179  1  0.43793749  0.68670927  0.93753800  1
  Zn  Zn180  1  0.93728135  0.18834204  0.43837676  1
  Zn  Zn181  1  0.93811175  0.18654639  0.93747461  1
  Zn  Zn182  1  0.93503529  0.68721000  0.43749549  1
  Zn  Zn183  1  0.93848357  0.68823120  0.93702058  1
  Zn  Zn184  1  0.06381855  0.31211920  0.06161039  1
  Zn  Zn185  1  0.06304417  0.31246253  0.56294648  1
  Zn  Zn186  1  0.06291612  0.81446423  0.06352754  1
  Zn  Zn187  1  0.06268433  0.81208597  0.56092615  1
  Zn  Zn188  1  0.56258867  0.31325230  0.05998931  1
  Zn  Zn189  1  0.56349582  0.31340384  0.56442758  1
  Zn  Zn190  1  0.56298687  0.81143650  0.06170938  1
  Zn  Zn191  1  0.56219210  0.81198589  0.56152673  1
  O  O192  1  0.12355473  0.12361829  0.11496343  1
  O  O193  1  0.11646145  0.11833164  0.62684663  1
  O  O194  1  0.11877619  0.62626546  0.11884680  1
  O  O195  1  0.11559686  0.61925853  0.62452695  1
  O  O196  1  0.62174984  0.11958427  0.12023879  1
  O  O197  1  0.61737427  0.12588451  0.61723338  1
  O  O198  1  0.61743199  0.62345963  0.11803965  1
  O  O199  1  0.61693315  0.62454129  0.61795476  1
  O  O200  1  0.38115545  0.37437119  0.38154582  1
  O  O201  1  0.37349290  0.38788102  0.87550726  1
  O  O202  1  0.38265389  0.87516959  0.38246226  1
  O  O203  1  0.37945617  0.87944334  0.87871534  1
  O  O204  1  0.88310475  0.37521745  0.38292782  1
  O  O205  1  0.88255130  0.38161411  0.87671002  1
  O  O206  1  0.88279043  0.87442991  0.38255813  1
  O  O207  1  0.87647200  0.87669427  0.88376340  1
  O  O208  1  0.25172026  0.00644107  0.36751432  1
  O  O209  1  0.25693123  0.00711989  0.87300361  1
  O  O210  1  0.25007636  0.51308812  0.37409918  1
  O  O211  1  0.25662213  0.50692279  0.86931626  1
  O  O212  1  0.74963834  0.00433943  0.36612691  1
  O  O213  1  0.75129222  0.00629105  0.86756176  1
  O  O214  1  0.75200472  0.49903075  0.36220023  1
  O  O215  1  0.75603882  0.50555730  0.87116123  1
  O  O216  1  0.24894318  0.48772106  0.12522874  1
  O  O217  1  0.24520181  0.49591224  0.62991551  1
  O  O218  1  0.25148884  0.99386175  0.13159774  1
  O  O219  1  0.23706172  1.00047084  0.62712298  1
  O  O220  1  0.74947037  0.49271019  0.13598316  1
  O  O221  1  0.74947354  0.49357681  0.63267069  1
  O  O222  1  0.74603206  0.99499818  0.13242372  1
  O  O223  1  0.74908809  0.99081768  0.62982933  1
  O  O224  1  0.00631095  0.36942531  0.25608791  1
  O  O225  1  0.00738966  0.37550876  0.75721464  1
  O  O226  1  -0.00319553  0.86909201  0.25919630  1
  O  O227  1  0.01047693  0.87408091  0.75004068  1
  O  O228  1  0.50481473  0.36894498  0.25494442  1
  O  O229  1  0.50107333  0.36570025  0.75336273  1
  O  O230  1  0.50146542  0.86750303  0.25635511  1
  O  O231  1  0.50054350  0.86803512  0.75548440  1
  O  O232  1  0.49695785  0.13018376  0.24548166  1
  O  O233  1  0.49382265  0.13042524  0.74405611  1
  O  O234  1  0.49405047  0.63050548  0.24502024  1
  O  O235  1  0.49317715  0.63139712  0.74402905  1
  O  O236  1  0.99777945  0.13293147  0.24802148  1
  O  O237  1  0.99391865  0.12621146  0.73974501  1
  O  O238  1  0.99464535  0.63001309  0.24511969  1
  O  O239  1  0.99455404  0.62376346  0.74019745  1
  O  O240  1  0.36854630  0.24923918  0.00673200  1
  O  O241  1  0.36948576  0.25619611  0.50655385  1
  O  O242  1  0.36883235  0.75510000  0.00433866  1
  O  O243  1  0.37000454  0.75575303  0.50547887  1
  O  O244  1  0.87014209  0.25081538  0.00939096  1
  O  O245  1  0.86886899  0.25605913  0.50661123  1
  O  O246  1  0.86895140  0.75360014  0.00597506  1
  O  O247  1  0.86830897  0.76111773  0.50124956  1
  O  O248  1  0.13249555  0.24984671  0.49419724  1
  O  O249  1  0.13150615  0.24432911  0.99354908  1
  O  O250  1  0.13126682  0.74857484  0.49258558  1
  O  O251  1  0.13079519  0.74611472  0.99462641  1
  O  O252  1  0.63053723  0.24525294  0.49421392  1
  O  O253  1  0.63242949  0.24255511  0.99520663  1
  O  O254  1  0.62922965  0.74359862  0.49478308  1
  O  O255  1  0.63119208  0.74339235  0.99393561  1
  O  O256  1  0.49635223  0.24366949  0.13115634  1
  O  O257  1  0.49322185  0.24480642  0.63001206  1
  O  O258  1  0.49401678  0.74438484  0.13021417  1
  O  O259  1  0.49338606  0.74485449  0.62956032  1
  O  O260  1  0.99181124  0.25084921  0.13071255  1
  O  O261  1  0.99495978  0.24135754  0.62663436  1
  O  O262  1  0.99323127  0.74497248  0.13027446  1
  O  O263  1  0.99893950  0.73773763  0.62535473  1
  O  O264  1  0.00612037  0.25586662  0.37107714  1
  O  O265  1  0.00756804  0.25678597  0.87455221  1
  O  O266  1  0.00331097  0.75735466  0.37048418  1
  O  O267  1  0.00903651  0.75217708  0.87280354  1
  O  O268  1  0.50584982  0.25521790  0.36946070  1
  O  O269  1  0.50676841  0.24771993  0.86856679  1
  O  O270  1  0.50488582  0.75450742  0.37011116  1
  O  O271  1  0.50409256  0.75436172  0.86865696  1
  O  O272  1  0.24946332  0.13277006  0.49384159  1
  O  O273  1  0.24531332  0.12988870  0.99400008  1
  O  O274  1  0.24908345  0.63180757  0.48968125  1
  O  O275  1  0.24454179  0.63231986  0.99489922  1
  O  O276  1  0.74499608  0.13072077  0.49569943  1
  O  O277  1  0.74613964  0.12982462  0.99501927  1
  O  O278  1  0.74417335  0.63061200  0.50025595  1
  O  O279  1  0.74515542  0.62989741  0.99535643  1
  O  O280  1  0.25148091  0.36828744  0.00993097  1
  O  O281  1  0.25522406  0.37055012  0.50582289  1
  O  O282  1  0.25613386  0.86981787  0.00412060  1
  O  O283  1  0.25615595  0.86877979  0.49996958  1
  O  O284  1  0.75247275  0.36710424  0.00759670  1
  O  O285  1  0.75517034  0.36988757  0.50543858  1
  O  O286  1  0.75498103  0.86831489  0.00557747  1
  O  O287  1  0.75598592  0.87110413  0.50622905  1
  O  O288  1  0.12902179  0.49097579  0.24613177  1
  O  O289  1  0.13125468  0.49559141  0.74560349  1
  O  O290  1  0.13568599  0.99781743  0.24577388  1
  O  O291  1  0.12388504  0.99252648  0.74117609  1
  O  O292  1  0.63387827  0.49332150  0.24882985  1
  O  O293  1  0.63379429  0.49885161  0.74875631  1
  O  O294  1  0.63658391  0.99833739  0.24425239  1
  O  O295  1  0.63429663  0.99707248  0.74589191  1
  O  O296  1  0.36855335  0.00660785  0.25182972  1
  O  O297  1  0.37305511  0.00724606  0.75565910  1
  O  O298  1  0.36977725  0.50924044  0.25387218  1
  O  O299  1  0.36866091  0.50676410  0.75609642  1
  O  O300  1  0.86227626  0.00162252  0.24965715  1
  O  O301  1  0.86735312  0.00689948  0.75064353  1
  O  O302  1  0.86601431  0.50356552  0.25049449  1
  O  O303  1  0.86924858  0.50637005  0.75745035  1
  O  O304  1  0.12092510  0.36902515  0.37032041  1
  O  O305  1  0.12163306  0.37113705  0.87066833  1
  O  O306  1  0.11324944  0.87018966  0.37443763  1
  O  O307  1  0.12395070  0.87071839  0.86520795  1
  O  O308  1  0.61922806  0.36845317  0.37002778  1
  O  O309  1  0.62392406  0.36462108  0.87271867  1
  O  O310  1  0.61769311  0.86651007  0.37462266  1
  O  O311  1  0.61863768  0.86723215  0.87404952  1
  O  O312  1  0.38198043  0.12958670  0.13043089  1
  O  O313  1  0.37943870  0.13148304  0.63032215  1
  O  O314  1  0.37841023  0.63147124  0.12955089  1
  O  O315  1  0.37950516  0.63119691  0.62962896  1
  O  O316  1  0.87645243  0.13863027  0.12794083  1
  O  O317  1  0.88203881  0.12936293  0.62863844  1
  O  O318  1  0.88067812  0.63010967  0.13062814  1
  O  O319  1  0.88447354  0.62498160  0.63075604  1
  O  O320  1  0.25616042  0.25641382  0.12033652  1
  O  O321  1  0.25479565  0.25631163  0.62064788  1
  O  O322  1  0.25641454  0.75586648  0.11927824  1
  O  O323  1  0.25571800  0.75084658  0.61730913  1
  O  O324  1  0.75810250  0.25368716  0.12142470  1
  O  O325  1  0.75561834  0.25475709  0.61918541  1
  O  O326  1  0.75447188  0.75363943  0.12004556  1
  O  O327  1  0.75124717  0.75962106  0.61896133  1
  O  O328  1  0.24523864  0.24507263  0.38021299  1
  O  O329  1  0.24541252  0.24489517  0.88058328  1
  O  O330  1  0.24478417  0.74331290  0.37900537  1
  O  O331  1  0.24486116  0.74542089  0.88026460  1
  O  O332  1  0.74486510  0.24581358  0.38074534  1
  O  O333  1  0.74599940  0.24354148  0.88049324  1
  O  O334  1  0.74270541  0.74824617  0.38163609  1
  O  O335  1  0.74471997  0.74349316  0.88045219  1
  O  O336  1  0.00570886  0.11583320  0.00069960  1
  O  O337  1  0.00134443  0.12412575  0.51241979  1
  O  O338  1  0.00544662  0.62076612  0.00591318  1
  O  O339  1  -0.00027050  0.61956188  0.50924597  1
  O  O340  1  0.50847950  0.12294851  0.00796362  1
  O  O341  1  0.50401425  0.12141239  0.50452427  1
  O  O342  1  0.50607831  0.62453677  0.00631721  1
  O  O343  1  0.50363210  0.61989557  0.50495462  1
  O  O344  1  0.49485156  0.37893653  0.49536549  1
  O  O345  1  0.49502510  0.37824278  0.99565449  1
  O  O346  1  0.49475476  0.88032331  0.49540182  1
  O  O347  1  0.49307540  0.87428466  0.99255521  1
  O  O348  1  0.99514500  0.37982205  0.49646527  1
  O  O349  1  1.00087888  0.38253053  0.99367441  1
  O  O350  1  0.99052656  0.87391757  0.49100875  1
  O  O351  1  0.99404923  0.88361533  1.00029763  1
  O  O352  1  0.49791816  0.49252459  0.38153194  1
  O  O353  1  0.48686245  0.50153271  0.87361832  1
  O  O354  1  0.49888796  0.99356925  0.38131571  1
  O  O355  1  0.49403433  0.99289110  0.87565999  1
  O  O356  1  1.00044602  0.49287670  0.38202700  1
  O  O357  1  0.99542108  0.49623753  0.88101631  1
  O  O358  1  0.99852395  0.98904465  0.37504165  1
  O  O359  1  0.99704038  0.99787477  0.88698485  1
  O  O360  1  0.00107065  0.00192712  0.11351173  1
  O  O361  1  0.00721409  0.00966991  0.62310112  1
  O  O362  1  0.00148109  0.50652823  0.11909028  1
  O  O363  1  0.00481835  0.50803186  0.62084698  1
  O  O364  1  0.50805768  0.00578097  0.12507279  1
  O  O365  1  0.50086363  0.00763530  0.61819960  1
  O  O366  1  0.50059737  0.50818726  0.12360070  1
  O  O367  1  0.49989993  0.50706057  0.61885977  1
  O  O368  1  0.24544334  0.37292685  0.24055758  1
  O  O369  1  0.24463252  0.38143912  0.74397977  1
  O  O370  1  0.25107776  0.88218355  0.24414685  1
  O  O371  1  0.23663161  0.87795290  0.74561397  1
  O  O372  1  0.74539996  0.38068724  0.24593263  1
  O  O373  1  0.75043603  0.38176473  0.74396454  1
  O  O374  1  0.74887743  0.88311463  0.24420005  1
  O  O375  1  0.75093129  0.87997613  0.73998750  1
  O  O376  1  0.25644659  0.12010306  0.25464956  1
  O  O377  1  0.25684355  0.12504953  0.75709750  1
  O  O378  1  0.25460270  0.62824967  0.25913158  1
  O  O379  1  0.25443771  0.62077192  0.75490371  1
  O  O380  1  0.75119780  0.11580270  0.25665589  1
  O  O381  1  0.75496056  0.11937668  0.75326954  1
  O  O382  1  0.75470358  0.61429089  0.24976536  1
  O  O383  1  0.75533257  0.62023341  0.75595485  1
  O  O384  1  0.36876993  0.12500593  0.36775447  1
  O  O385  1  0.37016052  0.11972921  0.87018084  1
  O  O386  1  0.36421407  0.62682894  0.36918410  1
  O  O387  1  0.36860247  0.61971520  0.86849513  1
  O  O388  1  0.86726544  0.12231767  0.37461722  1
  O  O389  1  0.86812291  0.12466074  0.86763030  1
  O  O390  1  0.87192884  0.62193617  0.36673812  1
  O  O391  1  0.86940971  0.61973076  0.87081138  1
  O  O392  1  0.13641236  0.37253287  0.13058171  1
  O  O393  1  0.13028629  0.38094210  0.63123907  1
  O  O394  1  0.13487723  0.87698206  0.12723262  1
  O  O395  1  0.12291519  0.88388677  0.63137393  1
  O  O396  1  0.63196031  0.37384896  0.13259886  1
  O  O397  1  0.63399859  0.37676052  0.62837774  1
  O  O398  1  0.63187169  0.88008723  0.12590634  1
  O  O399  1  0.63744002  0.87617534  0.62456451  1
  O  O400  1  0.12032893  0.25513056  0.25647142  1
  O  O401  1  0.12429457  0.25813542  0.75733056  1
  O  O402  1  0.11608266  0.75419097  0.25697856  1
  O  O403  1  0.12357051  0.75946800  0.75459947  1
  O  O404  1  0.62083652  0.25431310  0.25598611  1
  O  O405  1  0.61816118  0.24893770  0.75733164  1
  O  O406  1  0.61850823  0.74990283  0.25666976  1
  O  O407  1  0.61771474  0.75125261  0.75655752  1
  O  O408  1  0.38206249  0.24333679  0.24397159  1
  O  O409  1  0.37955016  0.24452235  0.74505078  1
  O  O410  1  0.38089767  0.74466747  0.24351456  1
  O  O411  1  0.37880257  0.74525639  0.74450278  1
  O  O412  1  0.88115092  0.25004983  0.24164513  1
  O  O413  1  0.87652403  0.24310187  0.74251116  1
  O  O414  1  0.87853673  0.74371157  0.24419945  1
  O  O415  1  0.87789955  0.74168213  0.74734479  1
  O  O416  1  0.38118995  0.49289761  0.49771378  1
  O  O417  1  0.37453909  0.50092925  0.98677611  1
  O  O418  1  0.38125310  0.99394184  0.49853481  1
  O  O419  1  0.37806185  0.99294372  0.99246477  1
  O  O420  1  0.88178552  0.49276259  0.49895110  1
  O  O421  1  0.88209729  0.49879058  0.99424409  1
  O  O422  1  0.87637082  0.98656526  0.49705293  1
  O  O423  1  0.88293025  0.99418634  1.00005198  1
  O  O424  1  0.11639294  0.00505946  0.00017554  1
  O  O425  1  0.12188159  0.00166279  0.51161176  1
  O  O426  1  0.11961061  0.50906310  0.00173705  1
  O  O427  1  0.11835239  0.50186336  0.50813473  1
  O  O428  1  0.62547553  0.00620126  0.00696306  1
  O  O429  1  0.61794438  0.00799409  0.50164754  1
  O  O430  1  0.62365425  0.50805060  0.00210663  1
  O  O431  1  0.61769930  0.50617490  0.50183111  1
  O  O432  1  0.36559013  0.36767584  0.12593439  1
  O  O433  1  0.36867054  0.36979011  0.62045027  1
  O  O434  1  0.37079798  0.86896310  0.11856908  1
  O  O435  1  0.37302654  0.86870808  0.61830922  1
  O  O436  1  0.86984483  0.36313211  0.12415699  1
  O  O437  1  0.87042655  0.36963707  0.62019443  1
  O  O438  1  0.86800867  0.86748117  0.11918984  1
  O  O439  1  0.86654178  0.87435399  0.61592445  1
  O  O440  1  0.13225273  0.13185384  0.37739859  1
  O  O441  1  0.13048849  0.13043899  0.87935965  1
  O  O442  1  0.13371190  0.63180740  0.37540416  1
  O  O443  1  0.13091239  0.63115220  0.88017018  1
  O  O444  1  0.63065513  0.13159750  0.38090504  1
  O  O445  1  0.63175388  0.12953265  0.88071246  1
  O  O446  1  0.62605127  0.63097856  0.38272625  1
  O  O447  1  0.63061059  0.63092519  0.88042039  1
