# generated using pymatgen
data_V3Zn3O8
_symmetry_space_group_name_H-M   'P 1'
_cell_length_a   17.08703517
_cell_length_b   17.08707342
_cell_length_c   17.08573403
_cell_angle_alpha   89.99231869
_cell_angle_beta   89.98074665
_cell_angle_gamma   90.00230565
_symmetry_Int_Tables_number   1
_chemical_formula_structural   V3Zn3O8
_chemical_formula_sum   'V96 Zn96 O256'
_cell_volume   4988.47742765
_cell_formula_units_Z   32
loop_
 _symmetry_equiv_pos_site_id
 _symmetry_equiv_pos_as_xyz
  1  'x, y, z'
loop_
 _atom_site_type_symbol
 _atom_site_label
 _atom_site_symmetry_multiplicity
 _atom_site_fract_x
 _atom_site_fract_y
 _atom_site_fract_z
 _atom_site_occupancy
  V  V0  1  0.00218311  0.62369985  0.12423309  1
  V  V1  1  0.37343054  0.74994730  0.12511687  1
  V  V2  1  0.49948779  0.75085367  0.25246141  1
  V  V3  1  0.62495453  0.87447408  0.75180122  1
  V  V4  1  0.37456442  0.12505206  0.24950362  1
  V  V5  1  0.87432705  0.37389468  0.00104797  1
  V  V6  1  0.37364700  0.24974457  0.62330422  1
  V  V7  1  0.37537913  0.50097901  0.37637092  1
  V  V8  1  0.37556378  0.25035102  0.12401484  1
  V  V9  1  -0.00038568  0.75113113  0.74926592  1
  V  V10  1  0.62469258  0.37385364  0.75077345  1
  V  V11  1  0.00121069  0.50078424  0.00093912  1
  V  V12  1  -0.00066692  0.25052150  0.74788461  1
  V  V13  1  0.00069627  0.62525865  0.62499231  1
  V  V14  1  0.75155259  0.37463757  0.62456089  1
  V  V15  1  0.74782243  -0.00104351  0.24911142  1
  V  V16  1  0.75027273  0.25047170  0.00044276  1
  V  V17  1  0.62476037  0.24974452  0.37604750  1
  V  V18  1  0.74945663  0.12489825  0.87426957  1
  V  V19  1  0.62401394  0.24983326  0.87396589  1
  V  V20  1  0.75068290  0.25076827  0.49989507  1
  V  V21  1  0.50029600  0.87431813  0.87526657  1
  V  V22  1  0.25079999  0.25012568  -0.00119482  1
  V  V23  1  0.62547404  0.49983952  0.62667312  1
  V  V24  1  0.12508712  0.62529589  0.50078830  1
  V  V25  1  0.75058756  0.62525908  0.37651581  1
  V  V26  1  0.12362562  0.00059558  0.62276065  1
  V  V27  1  0.12512031  0.50173091  0.62558925  1
  V  V28  1  0.37350148  0.75170748  0.62529960  1
  V  V29  1  0.49865977  0.87567342  0.37599338  1
  V  V30  1  0.49957296  0.12531216  0.12489919  1
  V  V31  1  0.12412745  0.12461625  -0.00179256  1
  V  V32  1  0.87546814  0.12727791  0.74810399  1
  V  V33  1  -0.00030014  0.00033234  -0.00170116  1
  V  V34  1  0.24896517  0.12438442  0.37298330  1
  V  V35  1  0.37435473  0.12462807  0.74881365  1
  V  V36  1  0.25061611  0.62459805  0.37648214  1
  V  V37  1  0.50160818  0.74922569  0.75293555  1
  V  V38  1  0.74977055  0.74973574  0.50132005  1
  V  V39  1  0.87575500  0.50027737  0.87580497  1
  V  V40  1  0.25098653  0.37580362  0.12417090  1
  V  V41  1  -0.00130383  0.00113231  0.49759264  1
  V  V42  1  0.62728078  0.49944556  0.12763085  1
  V  V43  1  0.12542598  0.37576284  0.24776014  1
  V  V44  1  0.37413306  -0.00052440  0.87405349  1
  V  V45  1  0.12696266  0.74842127  0.87655463  1
  V  V46  1  0.49922779  -0.00069784  0.50024583  1
  V  V47  1  0.87364154  0.12557999  0.24717208  1
  V  V48  1  0.37369366  0.87374690  0.00039323  1
  V  V49  1  0.37591374  0.62316675  0.75368168  1
  V  V50  1  0.87453645  0.00016339  0.87394908  1
  V  V51  1  0.12495409  0.75096918  0.37451708  1
  V  V52  1  0.49885876  0.00012254  -0.00040560  1
  V  V53  1  0.50065698  0.25053518  0.25091262  1
  V  V54  1  0.12563303  -0.00088647  0.12398616  1
  V  V55  1  0.25056484  0.24994751  0.49925863  1
  V  V56  1  0.24940103  0.12510378  0.87321743  1
  V  V57  1  0.87379021  0.87439283  0.00064613  1
  V  V58  1  0.12499302  0.24947308  0.37274430  1
  V  V59  1  -0.00156337  0.12479949  0.12320343  1
  V  V60  1  0.62342629  -0.00124425  0.12536024  1
  V  V61  1  0.49879987  0.37574254  0.37650472  1
  V  V62  1  0.00045995  0.37577852  0.87511277  1
  V  V63  1  0.24858748  -0.00026571  0.74754017  1
  V  V64  1  0.49941291  0.49966255  0.50156106  1
  V  V65  1  0.74994019  0.00063773  0.74919420  1
  V  V66  1  0.37436351  -0.00076653  0.37498062  1
  V  V67  1  0.62438738  0.12488354  -0.00047013  1
  V  V68  1  -0.00078297  0.87599323  0.87341981  1
  V  V69  1  0.62632933  0.62540582  0.50155990  1
  V  V70  1  0.75049911  0.62510830  0.87709110  1
  V  V71  1  0.12443296  0.87643934  0.74761465  1
  V  V72  1  0.75024155  0.87512926  0.62486832  1
  V  V73  1  0.50004357  0.24960571  0.74924979  1
  V  V74  1  0.62314365  0.87528540  0.25015992  1
  V  V75  1  0.00006625  0.37660146  0.37537032  1
  V  V76  1  0.12524300  0.25034974  0.87329117  1
  V  V77  1  0.87435036  0.75081164  0.62524433  1
  V  V78  1  0.87482343  0.62432255  0.25183469  1
  V  V79  1  0.37621252  0.62553038  0.25249903  1
  V  V80  1  0.62698701  0.62556498  0.00216186  1
  V  V81  1  0.62649152  0.37598022  0.25138452  1
  V  V82  1  0.12370700  0.12417434  0.49749595  1
  V  V83  1  0.75034945  0.49939224  0.75055544  1
  V  V84  1  0.87466175  0.75087575  0.12480403  1
  V  V85  1  0.25134748  0.50080403  0.75232629  1
  V  V86  1  0.50124133  0.62426417  0.62763563  1
  V  V87  1  0.12577372  0.37601469  0.74902453  1
  V  V88  1  0.24816244  -0.00039259  0.24767765  1
  V  V89  1  0.75066654  0.50019127  0.25258386  1
  V  V90  1  0.50030231  0.49713626  0.00055917  1
  V  V91  1  0.49999519  0.12381306  0.62405921  1
  V  V92  1  0.87482967  0.62524289  0.75075791  1
  V  V93  1  0.87358806  -0.00169456  0.37436865  1
  V  V94  1  0.62419349  0.00030763  0.62448459  1
  V  V95  1  0.00080158  0.74940547  0.25060309  1
  Zn  Zn96  1  -0.00175514  0.25038991  0.24644074  1
  Zn  Zn97  1  0.37654610  0.49830811  0.87721046  1
  Zn  Zn98  1  0.12878402  0.62416536  0.00096166  1
  Zn  Zn99  1  0.00004640  0.87440945  0.37338551  1
  Zn  Zn100  1  0.87436110  0.25053663  0.12412191  1
  Zn  Zn101  1  0.50080194  0.62397106  0.12814789  1
  Zn  Zn102  1  0.25269189  0.50017197  0.24949211  1
  Zn  Zn103  1  0.24939692  0.75227414  0.50126191  1
  Zn  Zn104  1  0.37275792  0.87461631  0.50054334  1
  Zn  Zn105  1  0.37647223  0.37546321  -0.00198120  1
  Zn  Zn106  1  0.87667298  0.49953070  0.37765510  1
  Zn  Zn107  1  0.74955339  0.75148418  0.00134943  1
  Zn  Zn108  1  0.62507094  0.12447484  0.49857690  1
  Zn  Zn109  1  0.74751372  0.12496261  0.37562432  1
  Zn  Zn110  1  0.87800031  0.37645117  0.50088296  1
  Zn  Zn111  1  0.49808265  0.37406904  0.87500207  1
  Zn  Zn112  1  0.24981905  0.74853858  0.00016978  1
  Zn  Zn113  1  -0.00032104  0.49961145  0.50029364  1
  Zn  Zn114  1  0.87736061  0.25131746  0.62244871  1
  Zn  Zn115  1  0.74825705  0.87288216  0.12407881  1
  Zn  Zn116  1  0.25296450  0.62520372  0.87984466  1
  Zn  Zn117  1  -0.00189892  0.12820441  0.62201247  1
  Zn  Zn118  1  0.24731893  0.87463852  0.12370104  1
  Zn  Zn119  1  0.37298258  0.37561069  0.50083142  1
  Zn  Zn120  1  0.87479649  0.87493662  0.49929970  1
  Zn  Zn121  1  0.62448872  0.75109545  0.37625179  1
  Zn  Zn122  1  0.12844861  0.50205074  0.12251559  1
  Zn  Zn123  1  0.75289458  0.37310144  0.12745254  1
  Zn  Zn124  1  0.24899277  0.87508606  0.62233413  1
  Zn  Zn125  1  0.12450760  0.87520074  0.24780323  1
  Zn  Zn126  1  0.25058182  0.37513540  0.62301574  1
  Zn  Zn127  1  0.62660255  0.75050725  0.87797013  1
  Zn  Zn128  1  0.18623145  0.18753899  0.18563060  1
  Zn  Zn129  1  0.18611204  0.18686423  0.68435760  1
  Zn  Zn130  1  0.18945430  0.68603623  0.18977330  1
  Zn  Zn131  1  0.18879484  0.68686728  0.69024191  1
  Zn  Zn132  1  0.68803214  0.18772896  0.18668499  1
  Zn  Zn133  1  0.68742142  0.18757231  0.68506578  1
  Zn  Zn134  1  0.68832337  0.68876002  0.18862961  1
  Zn  Zn135  1  0.68800172  0.68788956  0.68923632  1
  Zn  Zn136  1  0.31319940  0.31305533  0.31303210  1
  Zn  Zn137  1  0.31486008  0.31551513  0.81270730  1
  Zn  Zn138  1  0.30995615  0.81424517  0.31124095  1
  Zn  Zn139  1  0.31135266  0.81347127  0.81041685  1
  Zn  Zn140  1  0.81271060  0.31243222  0.31436822  1
  Zn  Zn141  1  0.81297568  0.31232217  0.81327035  1
  Zn  Zn142  1  0.81008772  0.81168500  0.31132181  1
  Zn  Zn143  1  0.81060159  0.81138435  0.81422465  1
  Zn  Zn144  1  0.18783544  0.43803500  0.43798842  1
  Zn  Zn145  1  0.18696830  0.43812325  0.93788063  1
  Zn  Zn146  1  0.18917049  0.93465105  0.43818652  1
  Zn  Zn147  1  0.18837947  0.93505449  0.93719894  1
  Zn  Zn148  1  0.68754347  0.43772098  0.43807369  1
  Zn  Zn149  1  0.68750426  0.43631474  0.93790715  1
  Zn  Zn150  1  0.68672157  0.93656349  0.43757530  1
  Zn  Zn151  1  0.68800209  0.93713688  0.93823565  1
  Zn  Zn152  1  0.31155969  0.06308606  0.06175112  1
  Zn  Zn153  1  0.31133851  0.06255336  0.56084940  1
  Zn  Zn154  1  0.31307369  0.56487713  0.06272256  1
  Zn  Zn155  1  0.31187765  0.56499273  0.56376687  1
  Zn  Zn156  1  0.81005025  0.06033204  0.06259593  1
  Zn  Zn157  1  0.81234137  0.06574412  0.56222614  1
  Zn  Zn158  1  0.81338430  0.56117143  0.06541010  1
  Zn  Zn159  1  0.81544927  0.56044408  0.56110374  1
  Zn  Zn160  1  0.43858424  0.43851781  0.18778349  1
  Zn  Zn161  1  0.43644347  0.43463262  0.68666026  1
  Zn  Zn162  1  0.43587871  0.93631073  0.18791595  1
  Zn  Zn163  1  0.43832168  0.93610171  0.68816596  1
  Zn  Zn164  1  0.93674308  0.43855281  0.18745669  1
  Zn  Zn165  1  0.93742404  0.43719640  0.68634033  1
  Zn  Zn166  1  0.93914489  0.93569653  0.18728530  1
  Zn  Zn167  1  0.93763267  0.93945415  0.68480701  1
  Zn  Zn168  1  0.06031497  0.06194879  0.31005440  1
  Zn  Zn169  1  0.06122472  0.06387524  0.80975260  1
  Zn  Zn170  1  0.06460119  0.56137987  0.31119533  1
  Zn  Zn171  1  0.06270507  0.56371322  0.81240887  1
  Zn  Zn172  1  0.56205696  0.06325794  0.31387261  1
  Zn  Zn173  1  0.56189602  0.06225189  0.81158861  1
  Zn  Zn174  1  0.56311801  0.56393852  0.31520459  1
  Zn  Zn175  1  0.56368942  0.56132016  0.81639387  1
  Zn  Zn176  1  0.43706458  0.18607589  0.43823214  1
  Zn  Zn177  1  0.43692254  0.18766982  0.93643316  1
  Zn  Zn178  1  0.43890262  0.68752107  0.43987329  1
  Zn  Zn179  1  0.43981475  0.68542825  0.93943998  1
  Zn  Zn180  1  0.93663833  0.18915211  0.43365484  1
  Zn  Zn181  1  0.93662409  0.18872298  0.93532542  1
  Zn  Zn182  1  0.93763633  0.68653531  0.43903653  1
  Zn  Zn183  1  0.93890227  0.68856481  0.93902190  1
  Zn  Zn184  1  0.06126107  0.31096508  0.06224293  1
  Zn  Zn185  1  0.06527057  0.31282406  0.56211390  1
  Zn  Zn186  1  0.06074388  0.81319002  0.06205965  1
  Zn  Zn187  1  0.06029612  0.81505742  0.55924631  1
  Zn  Zn188  1  0.56580821  0.31364008  0.06448793  1
  Zn  Zn189  1  0.56301077  0.31267362  0.56255562  1
  Zn  Zn190  1  0.55936580  0.81166702  0.06419334  1
  Zn  Zn191  1  0.56146917  0.81295792  0.56349114  1
  O  O192  1  0.11904656  0.11998066  0.11686892  1
  O  O193  1  0.12235197  0.11815108  0.61538707  1
  O  O194  1  0.11525006  0.62404561  0.12502518  1
  O  O195  1  0.11971187  0.62200428  0.62171058  1
  O  O196  1  0.61789369  0.11952022  0.11924020  1
  O  O197  1  0.61742597  0.11723698  0.62510038  1
  O  O198  1  0.62506333  0.61862046  0.11752732  1
  O  O199  1  0.62059573  0.61878444  0.62230584  1
  O  O200  1  0.38187233  0.38195889  0.37623104  1
  O  O201  1  0.38011454  0.37919553  0.88026583  1
  O  O202  1  0.38094281  0.88232426  0.37504330  1
  O  O203  1  0.38056139  0.88051996  0.87909793  1
  O  O204  1  0.88951033  0.37537211  0.37328292  1
  O  O205  1  0.88111249  0.38148016  0.88006773  1
  O  O206  1  0.87461939  0.88823576  0.37441144  1
  O  O207  1  0.88015102  0.88106572  0.87872226  1
  O  O208  1  0.25420841  0.00601956  0.36847328  1
  O  O209  1  0.25460746  0.00562998  0.86838040  1
  O  O210  1  0.25733715  0.50667871  0.37404643  1
  O  O211  1  0.25068502  0.50174556  0.86276169  1
  O  O212  1  0.75766623  0.00209762  0.36903175  1
  O  O213  1  0.75477765  0.00567711  0.86877556  1
  O  O214  1  0.75070158  0.50732105  0.36981205  1
  O  O215  1  0.75630052  0.50481818  0.86979115  1
  O  O216  1  0.25021638  0.48764274  0.12685223  1
  O  O217  1  0.24446361  0.50109922  0.63663520  1
  O  O218  1  0.24324972  1.00161823  0.12995515  1
  O  O219  1  0.24238417  1.00025113  0.63077666  1
  O  O220  1  0.74444259  0.49814610  0.13460764  1
  O  O221  1  0.74467890  0.49544351  0.63160530  1
  O  O222  1  0.74045612  0.99774800  0.13084775  1
  O  O223  1  0.74468913  0.99531452  0.63023769  1
  O  O224  1  0.00984560  0.37337588  0.25503412  1
  O  O225  1  0.00595967  0.37136789  0.75653859  1
  O  O226  1  0.00340487  0.86537468  0.25288408  1
  O  O227  1  0.00416724  0.87092728  0.75440036  1
  O  O228  1  0.50594655  0.36945528  0.25631333  1
  O  O229  1  0.50765240  0.36711757  0.74967308  1
  O  O230  1  0.50385585  0.87095937  0.25645042  1
  O  O231  1  0.50579753  0.86995244  0.75659466  1
  O  O232  1  0.49418561  0.13077749  0.24423076  1
  O  O233  1  0.49361548  0.12920716  0.74415028  1
  O  O234  1  0.49409431  0.63258123  0.25123250  1
  O  O235  1  0.49604617  0.62829140  0.74676266  1
  O  O236  1  0.98908450  0.12442564  0.24232771  1
  O  O237  1  0.99323241  0.13289953  0.74916886  1
  O  O238  1  0.99546160  0.62902632  0.24346619  1
  O  O239  1  0.99377231  0.63151882  0.74502895  1
  O  O240  1  0.36863609  0.24958944  0.00646954  1
  O  O241  1  0.36801356  0.24895325  0.50554173  1
  O  O242  1  0.37754815  0.75461822  0.00998686  1
  O  O243  1  0.37585339  0.74898179  0.51489491  1
  O  O244  1  0.86778112  0.25574076  -0.00183663  1
  O  O245  1  0.86356555  0.25323327  0.49911580  1
  O  O246  1  0.87553044  0.75685470  0.00662525  1
  O  O247  1  0.86833303  0.75108030  0.50785007  1
  O  O248  1  0.13083017  0.24332130  0.49228737  1
  O  O249  1  0.13040420  0.24409673  0.99268605  1
  O  O250  1  0.12400777  0.74385233  0.49041172  1
  O  O251  1  0.12415786  0.75099064  0.98721572  1
  O  O252  1  0.63351138  0.24973360  0.49442169  1
  O  O253  1  0.62915954  0.24335158  0.99439908  1
  O  O254  1  0.63146201  0.74284376  0.50204764  1
  O  O255  1  0.62467085  0.73721904  1.00162635  1
  O  O256  1  0.49612449  0.24469855  0.13081155  1
  O  O257  1  0.49493995  0.24347628  0.62990467  1
  O  O258  1  0.48849256  0.74856497  0.13292757  1
  O  O259  1  0.49356263  0.74390311  0.63309212  1
  O  O260  1  0.99596520  0.24018556  0.12582463  1
  O  O261  1  0.99895925  0.24934053  0.63236853  1
  O  O262  1  0.99500123  0.74238057  0.13030107  1
  O  O263  1  0.99443895  0.74571607  0.63056784  1
  O  O264  1  0.00722249  0.25861447  0.36976186  1
  O  O265  1  0.00646343  0.25641373  0.86920636  1
  O  O266  1  0.00946371  0.74787576  0.36933597  1
  O  O267  1  0.00632413  0.75652135  0.86842075  1
  O  O268  1  0.50398049  0.25522580  0.36979987  1
  O  O269  1  0.50688268  0.24836661  0.86711660  1
  O  O270  1  0.50045080  0.75748684  0.37024033  1
  O  O271  1  0.50225987  0.75652803  0.87012511  1
  O  O272  1  0.24343157  0.12932952  0.49123731  1
  O  O273  1  0.24403527  0.13011740  0.99262243  1
  O  O274  1  0.24301059  0.62927815  0.49443301  1
  O  O275  1  0.24647694  0.62990485  0.99667147  1
  O  O276  1  0.74664874  0.13755255  0.49854204  1
  O  O277  1  0.74345198  0.12847652  0.99336975  1
  O  O278  1  0.74517302  0.63006027  0.49720481  1
  O  O279  1  0.74136962  0.62291306  0.99588278  1
  O  O280  1  0.24993227  0.36860556  0.00911088  1
  O  O281  1  0.25139163  0.36551897  0.50120074  1
  O  O282  1  0.25895747  0.87100026  0.00188805  1
  O  O283  1  0.25510253  0.86974997  0.50495542  1
  O  O284  1  0.75658067  0.36841519  0.00024521  1
  O  O285  1  0.74953183  0.36622991  0.50578106  1
  O  O286  1  0.75777143  0.87336635  0.00236414  1
  O  O287  1  0.75099591  0.86851234  0.50768432  1
  O  O288  1  0.12931284  0.48652046  0.24679751  1
  O  O289  1  0.13288221  0.49688870  0.74628171  1
  O  O290  1  0.13044265  1.00107692  0.24199330  1
  O  O291  1  0.12866947  0.99623884  0.74367725  1
  O  O292  1  0.63014136  0.49566698  0.24733837  1
  O  O293  1  0.63097456  0.49472731  0.74593080  1
  O  O294  1  0.62744212  0.99564142  0.24445514  1
  O  O295  1  0.63035682  0.99445958  0.74501604  1
  O  O296  1  0.36955720  0.00683478  0.25450975  1
  O  O297  1  0.36973432  0.00507307  0.75478664  1
  O  O298  1  0.37644895  0.50724680  0.25813482  1
  O  O299  1  0.36735464  0.50608830  0.74880717  1
  O  O300  1  0.86959890  0.00631783  0.25541090  1
  O  O301  1  0.86927874  0.00583089  0.75495522  1
  O  O302  1  0.86868373  0.50723351  0.25283227  1
  O  O303  1  0.86993269  0.50575096  0.75617196  1
  O  O304  1  0.12056677  0.36990653  0.36550177  1
  O  O305  1  0.11975794  0.36946863  0.86905034  1
  O  O306  1  0.12398001  0.86153777  0.37299409  1
  O  O307  1  0.11838971  0.86891281  0.86800629  1
  O  O308  1  0.61794131  0.37007396  0.37021073  1
  O  O309  1  0.62435639  0.36705068  0.86782981  1
  O  O310  1  0.61675692  0.87441030  0.36816707  1
  O  O311  1  0.61821952  0.87479208  0.86972713  1
  O  O312  1  0.38028553  0.13048330  0.12979922  1
  O  O313  1  0.38009087  0.12907782  0.63058239  1
  O  O314  1  0.37758831  0.63437754  0.13299759  1
  O  O315  1  0.38176965  0.63206063  0.63411348  1
  O  O316  1  0.87966090  0.12192667  0.13299552  1
  O  O317  1  0.87686101  0.12913904  0.63334858  1
  O  O318  1  0.88310678  0.63005420  0.13126449  1
  O  O319  1  0.87992271  0.63073154  0.63211644  1
  O  O320  1  0.25532885  0.25614971  0.11875100  1
  O  O321  1  0.25581160  0.24903052  0.61731724  1
  O  O322  1  0.26313022  0.75149230  0.12607542  1
  O  O323  1  0.26232115  0.75010557  0.62747034  1
  O  O324  1  0.75191481  0.25133187  0.11551763  1
  O  O325  1  0.74936060  0.25668233  0.61571915  1
  O  O326  1  0.75953071  0.75191280  0.12329588  1
  O  O327  1  0.75532121  0.75515735  0.62170692  1
  O  O328  1  0.24513404  0.24332805  0.37824436  1
  O  O329  1  0.24473348  0.24448694  0.87843938  1
  O  O330  1  0.24054600  0.74327824  0.37495533  1
  O  O331  1  0.23786231  0.75003687  0.87322545  1
  O  O332  1  0.74335358  0.25018629  0.38419040  1
  O  O333  1  0.74336135  0.24337293  0.87961503  1
  O  O334  1  0.74786745  0.74370304  0.38280098  1
  O  O335  1  0.74722976  0.74093908  0.87928391  1
  O  O336  1  0.00471777  0.11920183  0.00185259  1
  O  O337  1  0.00589060  0.11867123  0.49716024  1
  O  O338  1  0.00052608  0.61903719  0.00862737  1
  O  O339  1  0.00730073  0.62387072  0.50809867  1
  O  O340  1  0.50468348  0.11955482  0.00481430  1
  O  O341  1  0.50141383  0.11764916  0.50687569  1
  O  O342  1  0.51160571  0.61549237  0.00268395  1
  O  O343  1  0.50666303  0.61919072  0.50803778  1
  O  O344  1  0.49907360  0.38222675  0.49426304  1
  O  O345  1  0.50188089  0.38538299  1.00072791  1
  O  O346  1  0.49730911  0.88159826  0.49443334  1
  O  O347  1  0.49402700  0.88130069  0.99462567  1
  O  O348  1  1.00339543  0.37528747  0.48682992  1
  O  O349  1  0.99532823  0.37997171  0.99365843  1
  O  O350  1  0.99481031  0.88574609  0.49453384  1
  O  O351  1  0.99362091  0.88201713  0.99254905  1
  O  O352  1  0.49547346  0.49557531  0.38234222  1
  O  O353  1  0.50163027  0.49672284  0.88802636  1
  O  O354  1  0.49360651  0.99565619  0.37992888  1
  O  O355  1  0.49357625  0.99527122  0.87975728  1
  O  O356  1  1.00245680  0.48806103  0.37547664  1
  O  O357  1  0.99479808  0.49533456  0.87949879  1
  O  O358  1  0.98983670  0.99950046  0.37897728  1
  O  O359  1  0.99434319  0.99554681  0.87853907  1
  O  O360  1  0.00518321  0.00550451  0.11724454  1
  O  O361  1  0.00506170  0.00349560  0.61534468  1
  O  O362  1  0.00121619  0.50821027  0.11924487  1
  O  O363  1  0.00800108  0.50799007  0.62726718  1
  O  O364  1  0.50313347  0.00624211  0.11931384  1
  O  O365  1  0.50437558  0.00421953  0.62083437  1
  O  O366  1  0.50848463  0.50167466  0.11800356  1
  O  O367  1  0.50591004  0.50511116  0.62191457  1
  O  O368  1  0.24273822  0.37341023  0.24084539  1
  O  O369  1  0.24408541  0.38462133  0.74875628  1
  O  O370  1  0.24648670  0.88498456  0.24579994  1
  O  O371  1  0.24237195  0.88319438  0.74738759  1
  O  O372  1  0.74369311  0.38160686  0.25188537  1
  O  O373  1  0.74459878  0.38021164  0.74563327  1
  O  O374  1  0.74133295  0.88156505  0.24798071  1
  O  O375  1  0.74490147  0.88115801  0.74545816  1
  O  O376  1  0.25529204  0.12065455  0.25381794  1
  O  O377  1  0.25450921  0.11978213  0.75473985  1
  O  O378  1  0.25826612  0.62230182  0.25807885  1
  O  O379  1  0.25768815  0.61586184  0.75269970  1
  O  O380  1  0.75808514  0.11766621  0.24985371  1
  O  O381  1  0.75417971  0.11990380  0.75519016  1
  O  O382  1  0.75506967  0.62039586  0.25704808  1
  O  O383  1  0.75542877  0.61867950  0.75597157  1
  O  O384  1  0.36915175  0.11961343  0.36798064  1
  O  O385  1  0.36899095  0.11908252  0.86868775  1
  O  O386  1  0.37058462  0.62097551  0.37198997  1
  O  O387  1  0.37533042  0.62178555  0.86605638  1
  O  O388  1  0.87327709  0.11515628  0.36367678  1
  O  O389  1  0.86856081  0.11905718  0.86908676  1
  O  O390  1  0.86886474  0.62433608  0.36885302  1
  O  O391  1  0.87141918  0.61961899  0.87014561  1
  O  O392  1  0.13377298  0.37293226  0.13190414  1
  O  O393  1  0.12730471  0.38308184  0.63241353  1
  O  O394  1  0.12635448  0.88351996  0.12510001  1
  O  O395  1  0.12405691  0.88208962  0.63067198  1
  O  O396  1  0.62844355  0.38137340  0.13463481  1
  O  O397  1  0.63090167  0.38098306  0.63148265  1
  O  O398  1  0.62242070  0.88218815  0.13142056  1
  O  O399  1  0.62997225  0.88069445  0.63239674  1
  O  O400  1  0.12460576  0.25957924  0.25400740  1
  O  O401  1  0.12072330  0.25537212  0.75484944  1
  O  O402  1  0.11950769  0.74819571  0.25996303  1
  O  O403  1  0.11854602  0.75613294  0.75618624  1
  O  O404  1  0.61969501  0.25528574  0.25537330  1
  O  O405  1  0.61993520  0.25390177  0.75423756  1
  O  O406  1  0.61725179  0.75686741  0.25115383  1
  O  O407  1  0.61900567  0.75647292  0.75228892  1
  O  O408  1  0.38106092  0.24435219  0.24454516  1
  O  O409  1  0.37952835  0.24308842  0.74435139  1
  O  O410  1  0.37986973  0.74612718  0.24386162  1
  O  O411  1  0.38141877  0.74326130  0.74467223  1
  O  O412  1  0.87380788  0.23598345  0.24875091  1
  O  O413  1  0.88152698  0.24449617  0.75067658  1
  O  O414  1  0.88070730  0.74387884  0.24527718  1
  O  O415  1  0.87990194  0.74477567  0.74553524  1
  O  O416  1  0.38202533  0.50083783  0.49538746  1
  O  O417  1  0.38898359  0.50026863  1.00175664  1
  O  O418  1  0.38122263  0.99977945  0.49259201  1
  O  O419  1  0.37997137  0.99590462  0.99366110  1
  O  O420  1  0.88115293  0.49492709  0.49581638  1
  O  O421  1  0.88085694  0.49457129  0.99445924  1
  O  O422  1  0.87904727  1.00240002  0.48924664  1
  O  O423  1  0.88016127  0.99575837  0.99303638  1
  O  O424  1  0.11923865  0.00579828  0.00210100  1
  O  O425  1  0.11840663  0.00513088  0.50171620  1
  O  O426  1  0.11612759  0.50222159  0.00172022  1
  O  O427  1  0.12474403  0.50772209  0.50795333  1
  O  O428  1  0.61809456  0.00565547  0.00448550  1
  O  O429  1  0.61823582  0.00092443  0.50720590  1
  O  O430  1  0.62071763  0.50672692  0.00655536  1
  O  O431  1  0.61973597  0.50559888  0.50768197  1
  O  O432  1  0.36642797  0.36831712  0.12487268  1
  O  O433  1  0.37182755  0.36529359  0.62192162  1
  O  O434  1  0.37469231  0.86603171  0.11901477  1
  O  O435  1  0.37511783  0.86245862  0.62695592  1
  O  O436  1  0.87369486  0.37193691  0.11714913  1
  O  O437  1  0.86665413  0.37242027  0.62339827  1
  O  O438  1  0.87511767  0.86894433  0.11809594  1
  O  O439  1  0.86751330  0.86891952  0.62485015  1
  O  O440  1  0.12975106  0.12963576  0.37718088  1
  O  O441  1  0.13009577  0.13030235  0.87866956  1
  O  O442  1  0.13011193  0.63182494  0.37967782  1
  O  O443  1  0.12408709  0.63872683  0.87452774  1
  O  O444  1  0.62676649  0.13394143  0.37687875  1
  O  O445  1  0.62986570  0.12909100  0.87970491  1
  O  O446  1  0.63176376  0.62748899  0.38416337  1
  O  O447  1  0.63206834  0.62457931  0.88644691  1
