# generated using pymatgen
data_V3Zn3O8
_symmetry_space_group_name_H-M   'P 1'
_cell_length_a   17.08959192
_cell_length_b   17.08869601
_cell_length_c   17.08915819
_cell_angle_alpha   90.01227536
_cell_angle_beta   90.00283649
_cell_angle_gamma   89.99443531
_symmetry_Int_Tables_number   1
_chemical_formula_structural   V3Zn3O8
_chemical_formula_sum   'V96 Zn96 O256'
_cell_volume   4990.69781164
_cell_formula_units_Z   32
loop_
 _symmetry_equiv_pos_site_id
 _symmetry_equiv_pos_as_xyz
  1  'x, y, z'
loop_
 _atom_site_type_symbol
 _atom_site_label
 _atom_site_symmetry_multiplicity
 _atom_site_fract_x
 _atom_site_fract_y
 _atom_site_fract_z
 _atom_site_occupancy
  V  V0  1  0.62337177  0.62546547  0.50078450  1
  V  V1  1  0.25155876  0.75037552  0.00211320  1
  V  V2  1  0.62373553  0.50044100  0.12446309  1
  V  V3  1  0.87427834  0.49998464  0.37406418  1
  V  V4  1  0.87204585  0.49971328  0.87347952  1
  V  V5  1  0.12542281  0.12483332  0.00076867  1
  V  V6  1  0.25047190  0.87434637  0.62445761  1
  V  V7  1  0.24914727  0.62362999  0.37661610  1
  V  V8  1  0.00024221  0.12547035  0.12624383  1
  V  V9  1  0.25174810  0.25020402  0.50155722  1
  V  V10  1  0.12449057  0.75047865  0.87448977  1
  V  V11  1  0.87704565  0.87524629  -0.00137554  1
  V  V12  1  0.75106536  0.12449716  0.37426581  1
  V  V13  1  0.74989591  0.25049338  0.49934140  1
  V  V14  1  0.62562596  0.12508967  0.50026501  1
  V  V15  1  0.24799593  0.37428484  0.12533088  1
  V  V16  1  0.62562936  0.75048360  0.87570579  1
  V  V17  1  0.12501331  0.87443078  0.75073464  1
  V  V18  1  0.37514031  0.00000891  0.37595935  1
  V  V19  1  0.87495553  0.25007805  0.12515448  1
  V  V20  1  0.75106648  0.00031463  0.24943978  1
  V  V21  1  0.87396237  0.37536741  0.49920407  1
  V  V22  1  0.74784591  0.37699563  0.62469245  1
  V  V23  1  0.00104611  0.74959284  0.25011834  1
  V  V24  1  0.37533810  0.25100515  0.62559079  1
  V  V25  1  0.87369009  0.37516585  -0.00010609  1
  V  V26  1  0.12606437  0.12469186  0.50146173  1
  V  V27  1  0.62537149  0.87590893  0.74945017  1
  V  V28  1  -0.00010828  0.12535258  0.62493293  1
  V  V29  1  0.00009101  0.62458824  0.62406631  1
  V  V30  1  0.49950419  0.50069365  0.00105691  1
  V  V31  1  0.12285344  0.24876582  0.87479211  1
  V  V32  1  -0.00170439  0.49993524  -0.00048154  1
  V  V33  1  0.62525785  0.75174702  0.37256282  1
  V  V34  1  0.74996551  0.75166467  0.49926521  1
  V  V35  1  0.62502777  0.24986573  0.87554353  1
  V  V36  1  0.37350157  0.49984123  0.87574923  1
  V  V37  1  0.62463770  0.37688750  0.74897852  1
  V  V38  1  0.87492831  0.24962365  0.62490931  1
  V  V39  1  0.00014006  0.49885780  0.49960793  1
  V  V40  1  0.75003371  0.74967362  -0.00091035  1
  V  V41  1  0.74968111  0.37475669  0.12431731  1
  V  V42  1  0.25010228  0.74852762  0.50016173  1
  V  V43  1  0.00003334  0.87488189  0.37567431  1
  V  V44  1  0.12613812  -0.00135574  0.12536037  1
  V  V45  1  0.37525646  0.87383207  0.00150854  1
  V  V46  1  0.87560522  0.12528262  0.24979510  1
  V  V47  1  0.87739827  -0.00013177  0.87551260  1
  V  V48  1  0.62578024  0.12545290  -0.00085323  1
  V  V49  1  0.87469606  0.62425595  0.24942444  1
  V  V50  1  0.24887779  0.62468969  0.87559210  1
  V  V51  1  0.37531014  0.12455826  0.75118453  1
  V  V52  1  0.49863498  0.75023505  0.74965812  1
  V  V53  1  0.37543682  0.00125457  0.87452060  1
  V  V54  1  0.62465154  0.62526400  0.00013181  1
  V  V55  1  0.12623023  -0.00044181  0.62559091  1
  V  V56  1  0.00068545  -0.00105404  0.49926317  1
  V  V57  1  0.87415421  0.75092027  0.62329550  1
  V  V58  1  0.50177268  0.12533654  0.62467963  1
  V  V59  1  0.12429530  0.49862540  0.12474495  1
  V  V60  1  0.50074402  -0.00053605  0.00029688  1
  V  V61  1  0.25170394  0.12380008  0.37681778  1
  V  V62  1  0.24871215  0.24909811  0.00035830  1
  V  V63  1  0.12343212  0.37532260  0.74953086  1
  V  V64  1  0.50108015  0.87571499  0.87552045  1
  V  V65  1  0.75024525  0.50085617  0.24964932  1
  V  V66  1  0.49962398  0.25093878  0.75050198  1
  V  V67  1  0.50024429  0.87573794  0.37396416  1
  V  V68  1  0.75053725  0.87618311  0.62441662  1
  V  V69  1  0.49905780  0.37519662  0.87493046  1
  V  V70  1  0.62611865  0.00087850  0.62512879  1
  V  V71  1  0.49960378  0.12580995  0.12526670  1
  V  V72  1  0.12391643  0.25140725  0.37390099  1
  V  V73  1  0.87160922  0.62518237  0.74929702  1
  V  V74  1  0.87561213  0.12571821  0.75001519  1
  V  V75  1  0.25092320  -0.00097185  0.25058735  1
  V  V76  1  0.37537180  0.37504980  0.50109688  1
  V  V77  1  0.62399599  0.37522259  0.24966276  1
  V  V78  1  0.37499845  0.62670108  0.75064379  1
  V  V79  1  0.37361769  0.37493295  -0.00005579  1
  V  V80  1  0.62630229  -0.00010626  0.12476022  1
  V  V81  1  0.50017582  0.50164312  0.50057837  1
  V  V82  1  0.75086700  0.87603627  0.12534646  1
  V  V83  1  0.12475619  0.62506029  -0.00085086  1
  V  V84  1  0.50042734  0.37453785  0.37454294  1
  V  V85  1  0.37411707  0.49870759  0.37572049  1
  V  V86  1  0.37499506  0.24873720  0.12544611  1
  V  V87  1  0.24832539  0.49999333  0.75063169  1
  V  V88  1  0.62480816  0.25063806  0.37405140  1
  V  V89  1  0.75073297  0.12583511  0.87491275  1
  V  V90  1  0.12482179  0.74723625  0.37571426  1
  V  V91  1  0.37421664  0.87448610  0.50065571  1
  V  V92  1  0.87598316  0.75048222  0.12382968  1
  V  V93  1  -0.00003130  0.62520706  0.12437089  1
  V  V94  1  0.37641128  0.62560558  0.24861597  1
  V  V95  1  0.24831259  0.49781189  0.25025827  1
  Zn  Zn96  1  -0.00051488  0.37394895  0.37279428  1
  Zn  Zn97  1  0.12724464  0.62174554  0.50222636  1
  Zn  Zn98  1  0.75031157  0.62669791  0.37395234  1
  Zn  Zn99  1  0.12575872  0.49858927  0.62525757  1
  Zn  Zn100  1  0.25097872  0.00149867  0.75072336  1
  Zn  Zn101  1  0.12237198  0.37364757  0.24964991  1
  Zn  Zn102  1  -0.00070618  0.25104930  0.74951263  1
  Zn  Zn103  1  0.25198995  0.87243953  0.12652348  1
  Zn  Zn104  1  0.50018801  0.74963261  0.24732746  1
  Zn  Zn105  1  0.00285003  -0.00175127  0.00020212  1
  Zn  Zn106  1  0.25001962  0.37675990  0.62563617  1
  Zn  Zn107  1  -0.00102132  0.75075168  0.75019096  1
  Zn  Zn108  1  0.74627834  0.50103156  0.74756998  1
  Zn  Zn109  1  0.62533701  0.87492056  0.24859456  1
  Zn  Zn110  1  0.75099539  0.00016504  0.74918073  1
  Zn  Zn111  1  -0.00030041  0.25164053  0.25129231  1
  Zn  Zn112  1  0.24958875  0.12284875  0.87367849  1
  Zn  Zn113  1  0.37671700  0.75122705  0.12608521  1
  Zn  Zn114  1  0.75014120  0.25031612  0.00021296  1
  Zn  Zn115  1  0.49966038  0.62701968  0.12542036  1
  Zn  Zn116  1  0.62367985  0.50239185  0.62706789  1
  Zn  Zn117  1  0.74808531  0.62574058  0.87346869  1
  Zn  Zn118  1  0.37784896  0.12647949  0.25139183  1
  Zn  Zn119  1  0.87560952  0.00027444  0.37580635  1
  Zn  Zn120  1  -0.00357587  0.37355370  0.87366772  1
  Zn  Zn121  1  0.12661444  0.87207006  0.24879960  1
  Zn  Zn122  1  0.50013761  0.00071299  0.49995653  1
  Zn  Zn123  1  0.37561892  0.74973896  0.62537888  1
  Zn  Zn124  1  0.49776769  0.62675236  0.62544551  1
  Zn  Zn125  1  0.00089610  0.87347174  0.87548235  1
  Zn  Zn126  1  0.87472624  0.87673069  0.50045035  1
  Zn  Zn127  1  0.49856891  0.24897018  0.24985951  1
  Zn  Zn128  1  0.18922168  0.18506964  0.18924020  1
  Zn  Zn129  1  0.18985546  0.18762002  0.68861958  1
  Zn  Zn130  1  0.18898064  0.68608420  0.18777909  1
  Zn  Zn131  1  0.18777088  0.68806107  0.68710507  1
  Zn  Zn132  1  0.68789994  0.18803959  0.18750078  1
  Zn  Zn133  1  0.68910873  0.18858657  0.68873884  1
  Zn  Zn134  1  0.68848361  0.68703249  0.18604541  1
  Zn  Zn135  1  0.68656750  0.69073228  0.68601670  1
  Zn  Zn136  1  0.31214881  0.31178818  0.31165631  1
  Zn  Zn137  1  0.30970460  0.31170705  0.81274389  1
  Zn  Zn138  1  0.31239696  0.81160119  0.31435417  1
  Zn  Zn139  1  0.31192108  0.81327366  0.81435654  1
  Zn  Zn140  1  0.81251591  0.31285458  0.31117642  1
  Zn  Zn141  1  0.80975864  0.31221735  0.81067158  1
  Zn  Zn142  1  0.81375168  0.81341146  0.31125688  1
  Zn  Zn143  1  0.81142158  0.81322774  0.81119979  1
  Zn  Zn144  1  0.18779480  0.43587022  0.43872869  1
  Zn  Zn145  1  0.18575719  0.43575999  0.93688803  1
  Zn  Zn146  1  0.18643899  0.93533907  0.43767081  1
  Zn  Zn147  1  0.19144434  0.93717992  0.93721148  1
  Zn  Zn148  1  0.68770696  0.43918319  0.43643651  1
  Zn  Zn149  1  0.68742531  0.43758032  0.93720551  1
  Zn  Zn150  1  0.68781895  0.93912875  0.43815508  1
  Zn  Zn151  1  0.69024758  0.93799454  0.93759145  1
  Zn  Zn152  1  0.31295712  0.06288246  0.06158458  1
  Zn  Zn153  1  0.31381789  0.06156451  0.56381683  1
  Zn  Zn154  1  0.31071605  0.56223274  0.06390751  1
  Zn  Zn155  1  0.31321095  0.56227180  0.56605199  1
  Zn  Zn156  1  0.81319285  0.06323695  0.06107029  1
  Zn  Zn157  1  0.81360589  0.06129988  0.56120780  1
  Zn  Zn158  1  0.81047246  0.56300761  0.06186261  1
  Zn  Zn159  1  0.80976720  0.56264302  0.56114170  1
  Zn  Zn160  1  0.43694089  0.43691679  0.18728165  1
  Zn  Zn161  1  0.43827512  0.44060582  0.68626198  1
  Zn  Zn162  1  0.43719776  0.93795714  0.18749654  1
  Zn  Zn163  1  0.43861967  0.93825093  0.68716188  1
  Zn  Zn164  1  0.93883239  0.43500533  0.18859762  1
  Zn  Zn165  1  0.93634756  0.43683955  0.68710956  1
  Zn  Zn166  1  0.93846757  0.93775218  0.18896985  1
  Zn  Zn167  1  0.93857240  0.93840330  0.68775249  1
  Zn  Zn168  1  0.06340906  0.06358334  0.31172932  1
  Zn  Zn169  1  0.06133386  0.06233092  0.81090244  1
  Zn  Zn170  1  0.06255349  0.56207299  0.31256101  1
  Zn  Zn171  1  0.05944028  0.56217188  0.81244397  1
  Zn  Zn172  1  0.56350484  0.06246553  0.31052841  1
  Zn  Zn173  1  0.56250393  0.06247669  0.81158087  1
  Zn  Zn174  1  0.56204660  0.56184226  0.31380732  1
  Zn  Zn175  1  0.56102393  0.56337938  0.81366174  1
  Zn  Zn176  1  0.43863938  0.18788953  0.43807715  1
  Zn  Zn177  1  0.43765190  0.18693647  0.93834325  1
  Zn  Zn178  1  0.43666778  0.68892287  0.43584194  1
  Zn  Zn179  1  0.43819901  0.68788411  0.93743744  1
  Zn  Zn180  1  0.93801118  0.18624467  0.43825775  1
  Zn  Zn181  1  0.93899478  0.18654593  0.94050428  1
  Zn  Zn182  1  0.93625717  0.68685660  0.43729863  1
  Zn  Zn183  1  0.93856825  0.68794486  0.93528043  1
  Zn  Zn184  1  0.05921812  0.31275209  0.06193519  1
  Zn  Zn185  1  0.06224474  0.31197946  0.56258327  1
  Zn  Zn186  1  0.06329766  0.81403734  0.06119000  1
  Zn  Zn187  1  0.06388220  0.81074096  0.56169627  1
  Zn  Zn188  1  0.56139420  0.31199866  0.06207254  1
  Zn  Zn189  1  0.56254525  0.31334086  0.56233353  1
  Zn  Zn190  1  0.56143861  0.81101526  0.06469503  1
  Zn  Zn191  1  0.56124553  0.81311292  0.56285050  1
  O  O192  1  0.12128807  0.11713086  0.12118746  1
  O  O193  1  0.12062636  0.12037368  0.62049406  1
  O  O194  1  0.11935641  0.61870818  0.11857221  1
  O  O195  1  0.11148039  0.62214044  0.62568969  1
  O  O196  1  0.62058331  0.11972907  0.11869612  1
  O  O197  1  0.62124846  0.12170390  0.62041609  1
  O  O198  1  0.62400633  0.61767924  0.11856580  1
  O  O199  1  0.62268387  0.62733490  0.61091173  1
  O  O200  1  0.38006326  0.37939619  0.38100732  1
  O  O201  1  0.37882063  0.37971110  0.88043626  1
  O  O202  1  0.38234211  0.87940258  0.38020951  1
  O  O203  1  0.38220338  0.88103575  0.88064347  1
  O  O204  1  0.87584054  0.38120726  0.38181307  1
  O  O205  1  0.87424395  0.38383198  0.87900892  1
  O  O206  1  0.88894667  0.87518932  0.37649492  1
  O  O207  1  0.87553458  0.88395569  0.87853781  1
  O  O208  1  0.25357225  0.00373860  0.36881121  1
  O  O209  1  0.25990910  0.00285904  0.87251171  1
  O  O210  1  0.25505254  0.50346767  0.37081120  1
  O  O211  1  0.25428648  0.50545918  0.87148453  1
  O  O212  1  0.75150580  0.00641317  0.36841122  1
  O  O213  1  0.76161576  0.00600239  0.87379695  1
  O  O214  1  0.75624236  0.50237217  0.36720442  1
  O  O215  1  0.76175329  0.50332835  0.87320777  1
  O  O216  1  0.24318427  0.49380676  0.12945050  1
  O  O217  1  0.24591656  0.49762401  0.63463307  1
  O  O218  1  0.24231603  1.00095460  0.13411992  1
  O  O219  1  0.24317769  0.99260804  0.62607341  1
  O  O220  1  0.74395763  0.49449183  0.13023499  1
  O  O221  1  0.74570089  0.49235263  0.62549941  1
  O  O222  1  0.74578812  0.99540592  0.12886442  1
  O  O223  1  0.74432057  0.99439789  0.62620999  1
  O  O224  1  0.00481844  0.37028863  0.25489191  1
  O  O225  1  0.00962972  0.37289624  0.75243978  1
  O  O226  1  0.00241655  0.86808783  0.25883048  1
  O  O227  1  0.01385799  0.87294677  0.74962633  1
  O  O228  1  0.50643009  0.37462610  0.25690903  1
  O  O229  1  0.50373364  0.37021138  0.75619176  1
  O  O230  1  0.50148688  0.87388047  0.26300242  1
  O  O231  1  0.50602716  0.87048861  0.75659383  1
  O  O232  1  0.49826297  0.12714279  0.24125516  1
  O  O233  1  0.49595501  0.13229719  0.74449246  1
  O  O234  1  0.48737030  0.62379574  0.25099261  1
  O  O235  1  0.49299083  0.63264097  0.75144317  1
  O  O236  1  0.99372149  0.12685455  0.24407190  1
  O  O237  1  0.99398615  0.12749134  0.74187581  1
  O  O238  1  0.99434896  0.62971506  0.24340934  1
  O  O239  1  0.98867150  0.62371825  0.73993646  1
  O  O240  1  0.36880365  0.25598339  0.00424015  1
  O  O241  1  0.37106548  0.25550465  0.50571478  1
  O  O242  1  0.36887538  0.75571251  -0.00049398  1
  O  O243  1  0.36777477  0.75680396  0.49967592  1
  O  O244  1  0.87351519  0.25700170  0.00643675  1
  O  O245  1  0.86898270  0.25498604  0.50467501  1
  O  O246  1  0.87049610  0.75435534  0.00461503  1
  O  O247  1  0.86753352  0.75053114  0.50566758  1
  O  O248  1  0.13144388  0.24438685  0.49403989  1
  O  O249  1  0.12876149  0.24592103  0.99288094  1
  O  O250  1  0.13194711  0.74529604  0.49361612  1
  O  O251  1  0.13051592  0.74403980  0.99492160  1
  O  O252  1  0.63096591  0.24527243  0.49404475  1
  O  O253  1  0.62529642  0.24376254  0.99281763  1
  O  O254  1  0.62849521  0.74431054  0.49127876  1
  O  O255  1  0.63029908  0.74550509  0.99491127  1
  O  O256  1  0.49298426  0.24412880  0.12497811  1
  O  O257  1  0.49510211  0.24515847  0.63099476  1
  O  O258  1  0.49601597  0.74514501  0.13061859  1
  O  O259  1  0.49710487  0.74946463  0.63409853  1
  O  O260  1  0.99349561  0.24299833  0.12675415  1
  O  O261  1  0.99258528  0.24270866  0.62395950  1
  O  O262  1  0.99580805  0.74459633  0.12968207  1
  O  O263  1  0.99379763  0.73889506  0.62408838  1
  O  O264  1  0.01268018  0.24968286  0.37665155  1
  O  O265  1  0.01205476  0.25107802  0.87438826  1
  O  O266  1  0.00462773  0.75541965  0.37056643  1
  O  O267  1  0.00862941  0.75179349  0.87060603  1
  O  O268  1  0.50699442  0.25689317  0.37416923  1
  O  O269  1  0.50473415  0.25614626  0.87009043  1
  O  O270  1  0.50849720  0.75892667  0.37366436  1
  O  O271  1  0.50661684  0.75712507  0.87048333  1
  O  O272  1  0.24525049  0.13007348  0.49629218  1
  O  O273  1  0.24293836  0.13223142  0.99826957  1
  O  O274  1  0.24987688  0.62912694  0.49405614  1
  O  O275  1  0.24375125  0.62889448  0.99444251  1
  O  O276  1  0.74536245  0.13132258  0.49448918  1
  O  O277  1  0.74303175  0.12666548  0.99299966  1
  O  O278  1  0.73994806  0.63209673  0.49662911  1
  O  O279  1  0.74323625  0.63262311  0.99857576  1
  O  O280  1  0.25437679  0.36941613  0.00525001  1
  O  O281  1  0.25787565  0.36865481  0.50250302  1
  O  O282  1  0.25774214  0.86769288  0.00116638  1
  O  O283  1  0.25442321  0.86846612  0.50418465  1
  O  O284  1  0.75600572  0.37475021  0.00688152  1
  O  O285  1  0.75422887  0.36971802  0.50414362  1
  O  O286  1  0.75695240  0.86938963  0.00588687  1
  O  O287  1  0.75143783  0.86929934  0.50615395  1
  O  O288  1  0.13094433  0.49944964  0.24277449  1
  O  O289  1  0.12864290  0.49049451  0.75224741  1
  O  O290  1  0.13459464  1.00018409  0.24225576  1
  O  O291  1  0.12649050  0.99107990  0.74424229  1
  O  O292  1  0.63003539  0.49526768  0.24521832  1
  O  O293  1  0.62581949  0.49351937  0.74908218  1
  O  O294  1  0.63327956  0.99869652  0.24220568  1
  O  O295  1  0.62703972  0.99369342  0.74383750  1
  O  O296  1  0.36557048  0.00137032  0.25651509  1
  O  O297  1  0.37631951  0.00661719  0.75669425  1
  O  O298  1  0.36850076  0.50542303  0.25617931  1
  O  O299  1  0.36927814  0.50495553  0.75758521  1
  O  O300  1  0.86874810  0.00729516  0.25113772  1
  O  O301  1  0.87462714  0.00623653  0.75920119  1
  O  O302  1  0.87001708  0.50502743  0.25365791  1
  O  O303  1  0.87333613  0.50777756  0.75720535  1
  O  O304  1  0.12463788  0.36206574  0.37553441  1
  O  O305  1  0.12219168  0.36611617  0.86751674  1
  O  O306  1  0.11482838  0.86749054  0.37385177  1
  O  O307  1  0.12575193  0.87058306  0.86617665  1
  O  O308  1  0.62036521  0.37043789  0.36987491  1
  O  O309  1  0.61858783  0.37014638  0.87014782  1
  O  O310  1  0.61700090  0.86767996  0.37554271  1
  O  O311  1  0.62072033  0.87087107  0.87033530  1
  O  O312  1  0.38189107  0.13104507  0.12427594  1
  O  O313  1  0.38212740  0.13094576  0.62995755  1
  O  O314  1  0.37502037  0.62326826  0.13783784  1
  O  O315  1  0.37673010  0.62858999  0.63543894  1
  O  O316  1  0.88003773  0.12992953  0.12942637  1
  O  O317  1  0.87969939  0.13000447  0.62957774  1
  O  O318  1  0.88067324  0.63069502  0.12892059  1
  O  O319  1  0.88048602  0.62911045  0.63110814  1
  O  O320  1  0.25392689  0.25429185  0.11956007  1
  O  O321  1  0.25772930  0.25157306  0.61875733  1
  O  O322  1  0.25246663  0.75135109  0.11768241  1
  O  O323  1  0.25118886  0.75637757  0.61797091  1
  O  O324  1  0.75623236  0.25716330  0.12313952  1
  O  O325  1  0.75526475  0.25569037  0.61816179  1
  O  O326  1  0.75671424  0.75600443  0.11946945  1
  O  O327  1  0.75438439  0.75677426  0.61843870  1
  O  O328  1  0.24395455  0.24391298  0.38169256  1
  O  O329  1  0.23815794  0.24896284  0.88158871  1
  O  O330  1  0.24402403  0.74388201  0.38050878  1
  O  O331  1  0.24377853  0.74349406  0.88151289  1
  O  O332  1  0.74435215  0.24505675  0.38027688  1
  O  O333  1  0.74261448  0.24399403  0.87699614  1
  O  O334  1  0.74041823  0.75172461  0.37975138  1
  O  O335  1  0.74366436  0.74949519  0.88135500  1
  O  O336  1  0.00804885  0.12124731  0.00856070  1
  O  O337  1  0.00679455  0.11878832  0.50552183  1
  O  O338  1  0.00499703  0.62008537  0.00517996  1
  O  O339  1  -0.00208125  0.61523509  0.50874138  1
  O  O340  1  0.50637135  0.11859524  0.00483680  1
  O  O341  1  0.50800204  0.12471988  0.50686285  1
  O  O342  1  0.50620595  0.61751999  0.00036974  1
  O  O343  1  0.50803635  0.62117711  0.49812936  1
  O  O344  1  0.49530082  0.38082028  0.49383496  1
  O  O345  1  0.49312299  0.38050542  0.99406926  1
  O  O346  1  0.49458924  0.87599722  0.48895451  1
  O  O347  1  0.49621773  0.88060963  0.99422395  1
  O  O348  1  0.99305707  0.38469266  0.50044665  1
  O  O349  1  0.99179410  0.38303646  0.99761577  1
  O  O350  1  1.00056425  0.87952960  0.49136676  1
  O  O351  1  0.99260870  0.87835230  0.99683097  1
  O  O352  1  0.49396514  0.49377881  0.38095366  1
  O  O353  1  0.49272165  0.49387103  0.88132656  1
  O  O354  1  0.49562411  0.99122475  0.37608258  1
  O  O355  1  0.49630307  0.99477432  0.88127134  1
  O  O356  1  0.99394599  0.50053834  0.38554751  1
  O  O357  1  0.98712028  0.50031458  0.88055627  1
  O  O358  1  1.00222890  0.99072167  0.37969543  1
  O  O359  1  0.98815108  0.99916663  0.87695149  1
  O  O360  1  0.01168399  0.00559524  0.12633091  1
  O  O361  1  0.00684631  0.00533201  0.61895751  1
  O  O362  1  0.00387743  0.50602063  0.11898498  1
  O  O363  1  -0.00279828  0.50809815  0.61579697  1
  O  O364  1  0.50637881  0.00481528  0.11917119  1
  O  O365  1  0.50778725  0.00737020  0.62294467  1
  O  O366  1  0.50617439  0.50030632  0.11803688  1
  O  O367  1  0.50322208  0.50490162  0.61587556  1
  O  O368  1  0.24758979  0.38092083  0.24313186  1
  O  O369  1  0.23969353  0.38110390  0.75102270  1
  O  O370  1  0.24814834  0.88709111  0.25080484  1
  O  O371  1  0.23964165  0.87546387  0.74434346  1
  O  O372  1  0.74379705  0.38154964  0.24389241  1
  O  O373  1  0.74219699  0.37616452  0.74244195  1
  O  O374  1  0.75043232  0.88175099  0.24245485  1
  O  O375  1  0.74276380  0.87637558  0.74224323  1
  O  O376  1  0.25244283  0.11330604  0.25735552  1
  O  O377  1  0.25964133  0.12275902  0.75234618  1
  O  O378  1  0.25739884  0.61730581  0.25655278  1
  O  O379  1  0.25366043  0.62007214  0.75724620  1
  O  O380  1  0.75549009  0.11965615  0.25474293  1
  O  O381  1  0.75748680  0.12353452  0.75701872  1
  O  O382  1  0.75703125  0.61881119  0.25028137  1
  O  O383  1  0.76106833  0.62418343  0.74875963  1
  O  O384  1  0.36919024  0.11829960  0.37577567  1
  O  O385  1  0.37607396  0.11938037  0.86902459  1
  O  O386  1  0.36917750  0.61809366  0.36805354  1
  O  O387  1  0.36830080  0.61878455  0.87112664  1
  O  O388  1  0.86845652  0.12449059  0.36891140  1
  O  O389  1  0.87143422  0.11865065  0.87136242  1
  O  O390  1  0.87320051  0.61907115  0.36702714  1
  O  O391  1  0.87396964  0.61800489  0.86531100  1
  O  O392  1  0.13081584  0.38091846  0.12403974  1
  O  O393  1  0.12636609  0.37488571  0.63764081  1
  O  O394  1  0.12762258  0.88682906  0.12731767  1
  O  O395  1  0.13002173  0.87900162  0.63180897  1
  O  O396  1  0.62939576  0.38071212  0.12940173  1
  O  O397  1  0.63008119  0.37590726  0.63090385  1
  O  O398  1  0.63250370  0.88158600  0.12564768  1
  O  O399  1  0.63019723  0.88073407  0.62965964  1
  O  O400  1  0.12601613  0.24852508  0.26309152  1
  O  O401  1  0.12493809  0.25754010  0.75869420  1
  O  O402  1  0.11890295  0.74927886  0.25651549  1
  O  O403  1  0.12450606  0.75862824  0.75551775  1
  O  O404  1  0.62432269  0.25770603  0.25650107  1
  O  O405  1  0.61833213  0.25582720  0.75583101  1
  O  O406  1  0.62511779  0.75119090  0.26174804  1
  O  O407  1  0.61969806  0.75607764  0.75595076  1
  O  O408  1  0.37646754  0.24742124  0.24141098  1
  O  O409  1  0.38081332  0.24597146  0.74603488  1
  O  O410  1  0.37426372  0.73657353  0.25178164  1
  O  O411  1  0.38084201  0.74444653  0.75224955  1
  O  O412  1  0.87508983  0.24289668  0.24309507  1
  O  O413  1  0.87672332  0.24435563  0.74306750  1
  O  O414  1  0.88098021  0.74429493  0.24316964  1
  O  O415  1  0.87630072  0.74066310  0.74369107  1
  O  O416  1  0.37987723  0.49502753  0.49455122  1
  O  O417  1  0.37821324  0.49453729  0.99496368  1
  O  O418  1  0.37645145  0.99255880  0.49316610  1
  O  O419  1  0.38191227  0.99487737  0.99482526  1
  O  O420  1  0.88128676  0.49556969  0.49456043  1
  O  O421  1  0.87847477  0.49674095  0.99213425  1
  O  O422  1  0.88472656  0.99746385  0.49658000  1
  O  O423  1  0.87644347  0.99456330  0.99087112  1
  O  O424  1  0.12741375  0.00523298  0.01022251  1
  O  O425  1  0.12082820  0.00544821  0.50565688  1
  O  O426  1  0.11892629  0.50550180  0.00398256  1
  O  O427  1  0.11302612  0.49986346  0.50274268  1
  O  O428  1  0.62022311  0.00514177  0.00471896  1
  O  O429  1  0.62407712  0.00805467  0.50679736  1
  O  O430  1  0.61932637  0.50475277  0.00446548  1
  O  O431  1  0.61933912  0.51151739  0.49691216  1
  O  O432  1  0.36820486  0.37005602  0.11858634  1
  O  O433  1  0.37516652  0.36845975  0.61919797  1
  O  O434  1  0.37311906  0.87385893  0.11701166  1
  O  O435  1  0.36856256  0.87459525  0.61870914  1
  O  O436  1  0.86898185  0.37071086  0.11987468  1
  O  O437  1  0.86859250  0.36958744  0.61893374  1
  O  O438  1  0.87124114  0.86953843  0.11937629  1
  O  O439  1  0.86989254  0.86850439  0.62475312  1
  O  O440  1  0.13139748  0.13162360  0.38206405  1
  O  O441  1  0.12502995  0.13333049  0.88010248  1
  O  O442  1  0.13149156  0.62949147  0.37741246  1
  O  O443  1  0.12919415  0.62923560  0.87977671  1
  O  O444  1  0.63107084  0.13059547  0.37995507  1
  O  O445  1  0.62967775  0.12995797  0.87928092  1
  O  O446  1  0.62499634  0.63526605  0.38312116  1
  O  O447  1  0.62671158  0.63219056  0.88144265  1
