# generated using pymatgen
data_V3Zn3O8
_symmetry_space_group_name_H-M   'P 1'
_cell_length_a   17.09248765
_cell_length_b   17.09182428
_cell_length_c   17.09147468
_cell_angle_alpha   90.00072545
_cell_angle_beta   90.01658628
_cell_angle_gamma   89.99841694
_symmetry_Int_Tables_number   1
_chemical_formula_structural   V3Zn3O8
_chemical_formula_sum   'V96 Zn96 O256'
_cell_volume   4993.13388790
_cell_formula_units_Z   32
loop_
 _symmetry_equiv_pos_site_id
 _symmetry_equiv_pos_as_xyz
  1  'x, y, z'
loop_
 _atom_site_type_symbol
 _atom_site_label
 _atom_site_symmetry_multiplicity
 _atom_site_fract_x
 _atom_site_fract_y
 _atom_site_fract_z
 _atom_site_occupancy
  V  V0  1  0.75025861  0.00129712  0.75072812  1
  V  V1  1  0.50098628  0.75031240  0.25103171  1
  V  V2  1  0.12487883  0.87615833  0.75124837  1
  V  V3  1  0.37374589  0.87452443  0.00003025  1
  V  V4  1  0.87255348  0.00126788  0.87484356  1
  V  V5  1  0.62365615  0.75042599  0.87383519  1
  V  V6  1  0.00021705  0.50006691  -0.00047737  1
  V  V7  1  0.75134001  0.37440967  0.12312847  1
  V  V8  1  0.24949136  0.87479492  0.12470975  1
  V  V9  1  0.24980859  0.75035007  0.00035295  1
  V  V10  1  -0.00080116  0.12498634  0.12612300  1
  V  V11  1  0.24926999  0.00096977  0.75072243  1
  V  V12  1  0.24986201  0.62468454  0.87548813  1
  V  V13  1  0.75076826  0.24926125  0.49860983  1
  V  V14  1  0.12578244  0.87540854  0.25012243  1
  V  V15  1  0.49919072  0.62714171  0.62658713  1
  V  V16  1  0.49955056  0.87505450  0.87411231  1
  V  V17  1  0.62601540  0.49977932  0.62370043  1
  V  V18  1  0.24975654  0.25008109  0.00082265  1
  V  V19  1  0.00078721  0.49889396  0.49990499  1
  V  V20  1  0.62705201  0.62500987  0.49931090  1
  V  V21  1  0.12642977  0.50000058  0.62558004  1
  V  V22  1  0.62482080  -0.00024778  0.62472265  1
  V  V23  1  -0.00080479  0.24922363  0.74955220  1
  V  V24  1  0.62403769  0.87488733  0.75005166  1
  V  V25  1  0.37634047  0.49904483  0.87620504  1
  V  V26  1  0.62449569  0.12457857  0.49947160  1
  V  V27  1  0.87528805  0.74992184  0.62569537  1
  V  V28  1  -0.00010021  0.62571132  0.12532050  1
  V  V29  1  0.00017112  0.24954099  0.25001909  1
  V  V30  1  0.24981824  0.75079009  0.50148058  1
  V  V31  1  0.50165225  0.50069851  0.49766576  1
  V  V32  1  0.12593813  0.37534820  0.24957266  1
  V  V33  1  0.00026925  0.74943783  0.24993956  1
  V  V34  1  0.37505257  0.24911123  0.12635336  1
  V  V35  1  0.24993470  0.12526212  0.87492111  1
  V  V36  1  0.25122158  0.12475969  0.37465442  1
  V  V37  1  0.87421350  0.12532296  0.75024741  1
  V  V38  1  0.87368382  0.87473959  -0.00002074  1
  V  V39  1  0.12449055  0.62429443  -0.00050443  1
  V  V40  1  0.74858398  -0.00237006  0.25073761  1
  V  V41  1  -0.00138548  -0.00025573  0.00054047  1
  V  V42  1  0.12452664  -0.00069166  0.12573075  1
  V  V43  1  0.37520543  0.50027804  0.37449756  1
  V  V44  1  0.37513904  0.37513699  0.00080057  1
  V  V45  1  0.74976307  0.75070263  -0.00015950  1
  V  V46  1  0.12541019  0.37552200  0.74919610  1
  V  V47  1  0.87578190  0.87550473  0.50011493  1
  V  V48  1  0.37461495  -0.00009251  0.37470002  1
  V  V49  1  0.62487144  0.62462151  -0.00083748  1
  V  V50  1  0.62707071  0.50061373  0.12371410  1
  V  V51  1  0.50215332  0.37563104  0.37412778  1
  V  V52  1  0.24865375  0.37567485  0.12709165  1
  V  V53  1  0.87519609  0.62572239  0.74889289  1
  V  V54  1  0.50110815  0.62412300  0.12463895  1
  V  V55  1  0.37366520  0.62429623  0.24937936  1
  V  V56  1  0.74897317  0.87414337  0.12509561  1
  V  V57  1  -0.00048057  0.87523562  0.87503859  1
  V  V58  1  0.49917801  -0.00071251  0.50002855  1
  V  V59  1  0.87636596  0.37413960  0.49899322  1
  V  V60  1  0.87466177  -0.00092370  0.37508878  1
  V  V61  1  0.75035613  0.74938720  0.49938252  1
  V  V62  1  0.37384045  0.87402730  0.50224686  1
  V  V63  1  0.49987954  0.24949651  0.25058338  1
  V  V64  1  0.12358275  0.12347527  0.50185780  1
  V  V65  1  0.12417088  0.75097656  0.87523980  1
  V  V66  1  0.24947534  0.50045119  0.75026596  1
  V  V67  1  0.62237518  0.37174231  0.75140940  1
  V  V68  1  0.37422444  0.00143329  0.87478507  1
  V  V69  1  0.75023390  0.87515010  0.62471745  1
  V  V70  1  0.75047202  0.49991275  0.74868379  1
  V  V71  1  0.37516300  0.12445934  0.25029600  1
  V  V72  1  0.75276518  0.50064736  0.24995966  1
  V  V73  1  0.62529220  0.24968372  0.37344193  1
  V  V74  1  0.49958980  0.00034668  0.00050712  1
  V  V75  1  0.24931972  0.87600355  0.62643404  1
  V  V76  1  0.74945138  0.62526123  0.87396629  1
  V  V77  1  0.87414580  0.24949238  0.12364570  1
  V  V78  1  0.12588268  0.75007018  0.37644520  1
  V  V79  1  0.12420657  0.25041104  0.87528745  1
  V  V80  1  0.12405664  0.12521807  0.00056322  1
  V  V81  1  0.87584823  0.50029819  0.87443402  1
  V  V82  1  0.25320139  0.25275351  0.50267104  1
  V  V83  1  0.87603678  0.24875866  0.62518600  1
  V  V84  1  0.49928768  0.87332725  0.37607272  1
  V  V85  1  0.62253925  0.00007610  0.12452892  1
  V  V86  1  -0.00020610  0.62519794  0.62530984  1
  V  V87  1  0.75031095  0.12316011  0.37443145  1
  V  V88  1  0.00040762  0.37462849  0.37543301  1
  V  V89  1  0.75240057  0.62486418  0.37443758  1
  V  V90  1  0.75038553  0.37473993  0.62362241  1
  V  V91  1  -0.00065082  0.37573183  0.87528348  1
  V  V92  1  0.49656667  0.12831001  0.62666834  1
  V  V93  1  0.12593927  0.62555409  0.50028170  1
  V  V94  1  0.00010991  0.87570182  0.37590692  1
  V  V95  1  0.12560005  0.24992918  0.37485064  1
  Zn  Zn96  1  0.62471471  0.87349081  0.25248124  1
  Zn  Zn97  1  0.62599527  0.37354714  0.24902946  1
  Zn  Zn98  1  0.37415364  0.74999542  0.62850148  1
  Zn  Zn99  1  0.00014849  0.12231936  0.62533186  1
  Zn  Zn100  1  0.87661374  0.62650910  0.24958311  1
  Zn  Zn101  1  0.49648425  0.25038901  0.75402957  1
  Zn  Zn102  1  0.87735642  0.49945466  0.37416231  1
  Zn  Zn103  1  0.12264545  0.00015793  0.62592027  1
  Zn  Zn104  1  0.00004456  0.75088776  0.75029985  1
  Zn  Zn105  1  0.37500423  0.62658915  0.75067088  1
  Zn  Zn106  1  0.74544699  0.24659918  -0.00085406  1
  Zn  Zn107  1  0.37623072  0.37600719  0.50096894  1
  Zn  Zn108  1  0.37312182  0.12980712  0.74959806  1
  Zn  Zn109  1  0.25008647  -0.00045672  0.24991253  1
  Zn  Zn110  1  0.87498078  0.37407994  -0.00254101  1
  Zn  Zn111  1  0.24975233  0.62502007  0.37551543  1
  Zn  Zn112  1  0.62572415  0.75147901  0.37540588  1
  Zn  Zn113  1  0.37765019  0.25782878  0.62750320  1
  Zn  Zn114  1  0.87323129  0.75083288  0.12663037  1
  Zn  Zn115  1  0.62404270  0.12726953  -0.00406110  1
  Zn  Zn116  1  0.00030097  -0.00005253  0.50192937  1
  Zn  Zn117  1  0.49983728  0.12573949  0.12347390  1
  Zn  Zn118  1  0.50148472  0.49876241  0.00009135  1
  Zn  Zn119  1  0.50132231  0.37246942  0.87807104  1
  Zn  Zn120  1  0.25358578  0.37704902  0.62479271  1
  Zn  Zn121  1  0.49720933  0.75050065  0.75011020  1
  Zn  Zn122  1  0.87464584  0.12303303  0.25059937  1
  Zn  Zn123  1  0.62295095  0.24855724  0.88013496  1
  Zn  Zn124  1  0.12580539  0.49937520  0.12658143  1
  Zn  Zn125  1  0.74716089  0.12961700  0.87749180  1
  Zn  Zn126  1  0.24749977  0.50086947  0.25037639  1
  Zn  Zn127  1  0.37498977  0.74942427  0.12350812  1
  Zn  Zn128  1  0.18836291  0.18746156  0.18800835  1
  Zn  Zn129  1  0.18788504  0.18810813  0.68684142  1
  Zn  Zn130  1  0.18689910  0.68893805  0.18695677  1
  Zn  Zn131  1  0.18773063  0.68861747  0.68901780  1
  Zn  Zn132  1  0.68702078  0.18462506  0.18802727  1
  Zn  Zn133  1  0.68751655  0.18711676  0.68777401  1
  Zn  Zn134  1  0.68671617  0.68704602  0.18699708  1
  Zn  Zn135  1  0.68622029  0.68861753  0.68725427  1
  Zn  Zn136  1  0.31303897  0.31279077  0.31347028  1
  Zn  Zn137  1  0.31306986  0.31265172  0.81091137  1
  Zn  Zn138  1  0.31216843  0.81215278  0.31349801  1
  Zn  Zn139  1  0.31326707  0.81172900  0.81149843  1
  Zn  Zn140  1  0.81388555  0.31205030  0.31085698  1
  Zn  Zn141  1  0.81008710  0.31137838  0.81320297  1
  Zn  Zn142  1  0.81405993  0.81225916  0.31125776  1
  Zn  Zn143  1  0.81205454  0.81320972  0.81201936  1
  Zn  Zn144  1  0.18802326  0.43781760  0.43650882  1
  Zn  Zn145  1  0.18756207  0.43737111  0.93824915  1
  Zn  Zn146  1  0.18862330  0.93831776  0.43734600  1
  Zn  Zn147  1  0.18721625  0.93835143  0.93757197  1
  Zn  Zn148  1  0.68798826  0.43683480  0.43613423  1
  Zn  Zn149  1  0.68849844  0.43744230  0.93698944  1
  Zn  Zn150  1  0.68612917  0.93626195  0.43738660  1
  Zn  Zn151  1  0.68669369  0.93899066  0.93770350  1
  Zn  Zn152  1  0.31232615  0.06210533  0.06298300  1
  Zn  Zn153  1  0.31129333  0.06207777  0.56325133  1
  Zn  Zn154  1  0.31124752  0.56094527  0.06339840  1
  Zn  Zn155  1  0.31301948  0.56349694  0.56220890  1
  Zn  Zn156  1  0.80934596  0.06318870  0.06216304  1
  Zn  Zn157  1  0.81344520  0.06220258  0.56275164  1
  Zn  Zn158  1  0.81521281  0.56385493  0.06099580  1
  Zn  Zn159  1  0.81445551  0.56105469  0.56175494  1
  Zn  Zn160  1  0.43903741  0.43617553  0.18720289  1
  Zn  Zn161  1  0.43671954  0.43969490  0.68638584  1
  Zn  Zn162  1  0.43586382  0.93649307  0.18760255  1
  Zn  Zn163  1  0.43587868  0.94001903  0.68842599  1
  Zn  Zn164  1  0.93829000  0.43733440  0.18695817  1
  Zn  Zn165  1  0.93829528  0.43676463  0.68696003  1
  Zn  Zn166  1  0.93609302  0.93605520  0.18814818  1
  Zn  Zn167  1  0.93946484  0.93980018  0.68713022  1
  Zn  Zn168  1  0.06223111  0.06219701  0.31334799  1
  Zn  Zn169  1  0.06132310  0.06256618  0.81283828  1
  Zn  Zn170  1  0.06378322  0.56186478  0.31283681  1
  Zn  Zn171  1  0.06219271  0.56307307  0.81194522  1
  Zn  Zn172  1  0.56146542  0.06188784  0.31099524  1
  Zn  Zn173  1  0.56305679  0.06352645  0.81281988  1
  Zn  Zn174  1  0.56540319  0.56301488  0.31047098  1
  Zn  Zn175  1  0.56234127  0.55935288  0.81135500  1
  Zn  Zn176  1  0.43750273  0.18761547  0.43745961  1
  Zn  Zn177  1  0.44037524  0.18826283  0.93655563  1
  Zn  Zn178  1  0.43661021  0.68791445  0.43890709  1
  Zn  Zn179  1  0.43765173  0.68718492  0.93790191  1
  Zn  Zn180  1  0.93758398  0.18661416  0.43654182  1
  Zn  Zn181  1  0.93540413  0.18673550  0.93710944  1
  Zn  Zn182  1  0.93785181  0.68795355  0.43788328  1
  Zn  Zn183  1  0.93676482  0.68858781  0.93745208  1
  Zn  Zn184  1  0.06165242  0.31329032  0.06300653  1
  Zn  Zn185  1  0.06408478  0.31159024  0.56385873  1
  Zn  Zn186  1  0.06228160  0.81198175  0.06227330  1
  Zn  Zn187  1  0.06264405  0.81300169  0.56431693  1
  Zn  Zn188  1  0.56165912  0.31326796  0.06279455  1
  Zn  Zn189  1  0.56317722  0.31310013  0.56075547  1
  Zn  Zn190  1  0.56187720  0.81275247  0.06282743  1
  Zn  Zn191  1  0.56367726  0.81101827  0.56163039  1
  O  O192  1  0.11923551  0.12028906  0.11973419  1
  O  O193  1  0.12419538  0.12503015  0.61285868  1
  O  O194  1  0.11492401  0.62450566  0.11891941  1
  O  O195  1  0.11904841  0.62003991  0.62020955  1
  O  O196  1  0.62264581  0.10894914  0.12589249  1
  O  O197  1  0.61801820  0.11913369  0.61854736  1
  O  O198  1  0.62137961  0.61973646  0.11847570  1
  O  O199  1  0.61989783  0.61930866  0.61902752  1
  O  O200  1  0.38254813  0.38651905  0.37449229  1
  O  O201  1  0.37215167  0.38559779  0.88186519  1
  O  O202  1  0.37998729  0.87996830  0.38187852  1
  O  O203  1  0.37935275  0.88130647  0.88080459  1
  O  O204  1  0.88227711  0.37454301  0.38155408  1
  O  O205  1  0.88165413  0.38261778  0.87463844  1
  O  O206  1  0.88020617  0.87928406  0.38102744  1
  O  O207  1  0.87960767  0.88088548  0.88028019  1
  O  O208  1  0.25750636  0.00643995  0.37353466  1
  O  O209  1  0.25441049  0.00591190  0.87142597  1
  O  O210  1  0.26250466  0.50242537  0.37276153  1
  O  O211  1  0.25659517  0.50517125  0.87095783  1
  O  O212  1  0.75407090  0.00357162  0.37062412  1
  O  O213  1  0.75687269  -0.00184376  0.86698632  1
  O  O214  1  0.75171606  0.50692040  0.36668620  1
  O  O215  1  0.75613947  0.50633235  0.86866760  1
  O  O216  1  0.24710906  0.49151523  0.12893831  1
  O  O217  1  0.24300817  0.50127850  0.63134020  1
  O  O218  1  0.24176932  0.99321680  0.12574008  1
  O  O219  1  0.24717083  0.99408417  0.63242200  1
  O  O220  1  0.74864591  0.49502139  0.13174636  1
  O  O221  1  0.74567227  0.49476543  0.62870674  1
  O  O222  1  0.74161869  0.99317565  0.13059266  1
  O  O223  1  0.74436447  0.99411036  0.62960888  1
  O  O224  1  0.00530577  0.36899940  0.25535284  1
  O  O225  1  0.00545222  0.36974650  0.75593268  1
  O  O226  1  0.00635936  0.86937389  0.25542442  1
  O  O227  1  0.00578489  0.87430398  0.75802593  1
  O  O228  1  0.50328618  0.36799864  0.25646864  1
  O  O229  1  0.51326189  0.37772849  0.74769305  1
  O  O230  1  0.49681631  0.86356213  0.25626408  1
  O  O231  1  0.50681913  0.87578254  0.75596173  1
  O  O232  1  0.49225845  0.13163606  0.24906382  1
  O  O233  1  0.49925654  0.12451528  0.73629249  1
  O  O234  1  0.49352614  0.63192088  0.24591152  1
  O  O235  1  0.50151934  0.62470727  0.73726608  1
  O  O236  1  0.99908905  0.13176980  0.24394722  1
  O  O237  1  0.99334161  0.13243928  0.74978800  1
  O  O238  1  1.00086731  0.62956936  0.24115044  1
  O  O239  1  0.99294711  0.62627295  0.74323340  1
  O  O240  1  0.36821156  0.25492516  0.00632434  1
  O  O241  1  0.36386083  0.25166968  0.49960438  1
  O  O242  1  0.36769876  0.75639214  0.00050458  1
  O  O243  1  0.36817025  0.75658295  0.50247051  1
  O  O244  1  0.87568656  0.25223554  0.01457013  1
  O  O245  1  0.86984995  0.25465653  0.50475147  1
  O  O246  1  0.86686475  0.75699216  -0.00002784  1
  O  O247  1  0.86934934  0.75527315  0.50598809  1
  O  O248  1  0.13289986  0.24307524  0.49441303  1
  O  O249  1  0.12920901  0.24459496  0.99503244  1
  O  O250  1  0.12975925  0.74504369  0.49549821  1
  O  O251  1  0.13020419  0.74458588  0.99411701  1
  O  O252  1  0.63181976  0.24426293  0.49322222  1
  O  O253  1  0.62694923  0.24657630  1.00142075  1
  O  O254  1  0.63348369  0.74261199  0.49822747  1
  O  O255  1  0.63035871  0.74495595  0.99360983  1
  O  O256  1  0.49210810  0.24880195  0.13309994  1
  O  O257  1  0.50070370  0.23827402  0.62280167  1
  O  O258  1  0.49782669  0.74402838  0.13441251  1
  O  O259  1  0.50075245  0.73787170  0.62508519  1
  O  O260  1  0.99282427  0.24528007  0.13014967  1
  O  O261  1  0.99356021  0.24892871  0.63206736  1
  O  O262  1  1.00045483  0.74074700  0.13017714  1
  O  O263  1  0.99287350  0.74301759  0.62659816  1
  O  O264  1  0.00567026  0.25515335  0.36958991  1
  O  O265  1  0.00456956  0.25556361  0.87015381  1
  O  O266  1  0.00605988  0.75546840  0.37045308  1
  O  O267  1  0.00609763  0.75716352  0.87465620  1
  O  O268  1  0.50580092  0.25537084  0.37098297  1
  O  O269  1  0.50358384  0.25600634  0.87073741  1
  O  O270  1  0.50049131  0.75375848  0.36680504  1
  O  O271  1  0.50689772  0.75658377  0.87469458  1
  O  O272  1  0.24320512  0.13301188  0.49452741  1
  O  O273  1  0.24310938  0.13052112  0.99538331  1
  O  O274  1  0.24320919  0.63226634  0.49919992  1
  O  O275  1  0.24402875  0.63015973  0.99567138  1
  O  O276  1  0.74410099  0.12984567  0.49469505  1
  O  O277  1  0.74493759  0.12695095  0.99759592  1
  O  O278  1  0.74715361  0.62838893  0.49278121  1
  O  O279  1  0.74501185  0.63034555  0.99338922  1
  O  O280  1  0.25397295  0.36850469  0.00631149  1
  O  O281  1  0.25014150  0.36373522  0.49942748  1
  O  O282  1  0.25381148  0.86980582  0.00465703  1
  O  O283  1  0.25423676  0.87052287  0.50613884  1
  O  O284  1  0.75393518  0.37730436  0.01457762  1
  O  O285  1  0.75558591  0.36899256  0.50387441  1
  O  O286  1  0.75431450  0.86979887  0.00478611  1
  O  O287  1  0.75523337  0.86927680  0.50541283  1
  O  O288  1  0.12757319  0.49109490  0.24901545  1
  O  O289  1  0.12948289  0.49515205  0.74556370  1
  O  O290  1  0.12592734  0.99323546  0.24354149  1
  O  O291  1  0.13186769  0.99369648  0.75191762  1
  O  O292  1  0.63832132  0.50000556  0.24360876  1
  O  O293  1  0.63226628  0.49323726  0.74295503  1
  O  O294  1  0.62859880  0.99581772  0.24197121  1
  O  O295  1  0.63057067  0.99343409  0.74313697  1
  O  O296  1  0.37366064  0.00566881  0.25709596  1
  O  O297  1  0.36692738  0.00292507  0.75794762  1
  O  O298  1  0.37768353  0.50929035  0.25850850  1
  O  O299  1  0.36852927  0.50169588  0.76086847  1
  O  O300  1  0.86726861  -0.00027265  0.25690855  1
  O  O301  1  0.86953245  0.00514099  0.75509232  1
  O  O302  1  0.86395565  0.50251085  0.25126064  1
  O  O303  1  0.86974714  0.50576875  0.75383147  1
  O  O304  1  0.11945051  0.36888499  0.37014289  1
  O  O305  1  0.11928988  0.36936546  0.86969014  1
  O  O306  1  0.12001302  0.87005362  0.37038313  1
  O  O307  1  0.11910992  0.87043385  0.87178366  1
  O  O308  1  0.62080001  0.36765184  0.37218709  1
  O  O309  1  0.62441184  0.37867767  0.86185528  1
  O  O310  1  0.61529258  0.87166472  0.37332554  1
  O  O311  1  0.61932224  0.87022615  0.86964865  1
  O  O312  1  0.37430755  0.13149977  0.13227179  1
  O  O313  1  0.38711386  0.12500284  0.62397852  1
  O  O314  1  0.38110473  0.62448558  0.13484724  1
  O  O315  1  0.38830154  0.62471084  0.62561448  1
  O  O316  1  0.88069716  0.13296205  0.12748252  1
  O  O317  1  0.87605755  0.13206841  0.63072260  1
  O  O318  1  0.88831675  0.62846294  0.12491670  1
  O  O319  1  0.87981231  0.62982809  0.62933756  1
  O  O320  1  0.25510939  0.25509118  0.11964769  1
  O  O321  1  0.25084485  0.25174186  0.61281099  1
  O  O322  1  0.25114680  0.75644761  0.11768459  1
  O  O323  1  0.25036905  0.75733130  0.61894081  1
  O  O324  1  0.75853374  0.25891880  0.12943158  1
  O  O325  1  0.75559841  0.25520693  0.61746217  1
  O  O326  1  0.74907551  0.75558237  0.11778502  1
  O  O327  1  0.75534465  0.75521226  0.61923866  1
  O  O328  1  0.24524933  0.24485027  0.38296901  1
  O  O329  1  0.24319369  0.24534015  0.88154449  1
  O  O330  1  0.24326833  0.74925950  0.38297963  1
  O  O331  1  0.24384628  0.74464944  0.88140109  1
  O  O332  1  0.74575830  0.24407477  0.37906377  1
  O  O333  1  0.74565483  0.24994652  0.88039300  1
  O  O334  1  0.74967316  0.74045835  0.37983635  1
  O  O335  1  0.74359834  0.74465273  0.87961503  1
  O  O336  1  0.00486533  0.11948612  0.00591696  1
  O  O337  1  0.01277585  0.12585018  0.49952021  1
  O  O338  1  0.00500916  0.62103171  0.00659821  1
  O  O339  1  0.00557039  0.61927756  0.50551555  1
  O  O340  1  0.49963358  0.11301151  0.00391575  1
  O  O341  1  0.50554004  0.11880961  0.50580177  1
  O  O342  1  0.50714251  0.62364927  0.00710871  1
  O  O343  1  0.50716554  0.62020470  0.50593353  1
  O  O344  1  0.50063220  0.38335650  0.49187184  1
  O  O345  1  0.48967711  0.38001084  1.00040283  1
  O  O346  1  0.49424794  0.87991223  0.49663096  1
  O  O347  1  0.49364923  0.87998400  0.99398877  1
  O  O348  1  0.99635005  0.37879001  0.49503426  1
  O  O349  1  0.99906329  0.38163265  0.99296284  1
  O  O350  1  0.99345008  0.87452644  0.49311475  1
  O  O351  1  0.99454480  0.88066603  0.99516948  1
  O  O352  1  0.49534625  0.49663106  0.37766069  1
  O  O353  1  0.48752835  0.49834081  0.87679449  1
  O  O354  1  0.49424757  0.99418954  0.38119104  1
  O  O355  1  0.49400573  0.99372926  0.88068882  1
  O  O356  1  0.99918198  0.49300961  0.38203722  1
  O  O357  1  0.99484635  0.49553378  0.87913497  1
  O  O358  1  0.99314013  0.99294274  0.37679353  1
  O  O359  1  0.99328880  0.99497689  0.88184358  1
  O  O360  1  0.00448196  0.00476173  0.11984697  1
  O  O361  1  0.00448323  0.00424314  0.61978431  1
  O  O362  1  0.00113548  0.50967788  0.11928426  1
  O  O363  1  0.00598050  0.50537169  0.61947456  1
  O  O364  1  0.50747203  -0.00261855  0.11953220  1
  O  O365  1  0.50549784  0.00720798  0.61881319  1
  O  O366  1  0.50905698  0.50669735  0.12602514  1
  O  O367  1  0.50683193  0.50889726  0.61738679  1
  O  O368  1  0.24354297  0.37425179  0.24466721  1
  O  O369  1  0.24153537  0.38247818  0.74940767  1
  O  O370  1  0.24342297  0.87505861  0.24351968  1
  O  O371  1  0.24424853  0.88132144  0.74669032  1
  O  O372  1  0.75075915  0.38386941  0.24121362  1
  O  O373  1  0.74366448  0.38154441  0.74198823  1
  O  O374  1  0.74714840  0.87916836  0.24398850  1
  O  O375  1  0.74446406  0.88069640  0.74345740  1
  O  O376  1  0.25653311  0.12425771  0.25731218  1
  O  O377  1  0.24855147  0.11929556  0.75786727  1
  O  O378  1  0.26241220  0.62553127  0.25157888  1
  O  O379  1  0.25001954  0.61802564  0.75819763  1
  O  O380  1  0.75102170  0.11614085  0.25764293  1
  O  O381  1  0.75702819  0.11748272  0.74889163  1
  O  O382  1  0.75132720  0.61779835  0.25701016  1
  O  O383  1  0.75465531  0.61951801  0.75415278  1
  O  O384  1  0.37079716  0.11925076  0.37021547  1
  O  O385  1  0.36677515  0.11849297  0.87540644  1
  O  O386  1  0.37663963  0.61660007  0.36588870  1
  O  O387  1  0.36855522  0.61476082  0.87685073  1
  O  O388  1  0.86772045  0.11819528  0.37409090  1
  O  O389  1  0.87373943  0.11775761  0.86782229  1
  O  O390  1  0.86360443  0.62208329  0.37427430  1
  O  O391  1  0.86913915  0.62048828  0.86877367  1
  O  O392  1  0.13065947  0.37440230  0.13189744  1
  O  O393  1  0.12605256  0.38268729  0.63187901  1
  O  O394  1  0.12915234  0.88005328  0.12984031  1
  O  O395  1  0.13149649  0.87618271  0.63292107  1
  O  O396  1  0.63635693  0.38183158  0.12793607  1
  O  O397  1  0.63152377  0.38119683  0.62926422  1
  O  O398  1  0.62986019  0.88398076  0.12702038  1
  O  O399  1  0.63057662  0.88026222  0.62888040  1
  O  O400  1  0.11968787  0.25467075  0.25585219  1
  O  O401  1  0.11964582  0.25517029  0.75623095  1
  O  O402  1  0.11986679  0.75570701  0.25661441  1
  O  O403  1  0.12366776  0.75753434  0.75845793  1
  O  O404  1  0.61868511  0.24939982  0.25640921  1
  O  O405  1  0.62466223  0.26407768  0.74652835  1
  O  O406  1  0.61151833  0.74922249  0.25209515  1
  O  O407  1  0.62380232  0.75736335  0.75643978  1
  O  O408  1  0.38032617  0.24444313  0.24661001  1
  O  O409  1  0.37750745  0.24705595  0.74432170  1
  O  O410  1  0.38392314  0.73995241  0.25054232  1
  O  O411  1  0.37926303  0.74473594  0.74696668  1
  O  O412  1  0.88138752  0.24832856  0.23957056  1
  O  O413  1  0.87988977  0.24559417  0.74413269  1
  O  O414  1  0.88459121  0.74739097  0.24693876  1
  O  O415  1  0.87508829  0.74338277  0.74341221  1
  O  O416  1  0.38231589  0.50331392  0.48750497  1
  O  O417  1  0.37359040  0.49436829  0.99109032  1
  O  O418  1  0.37975696  0.99421544  0.49421835  1
  O  O419  1  0.37926262  0.99358663  0.99475763  1
  O  O420  1  0.88264995  0.49153935  0.49926422  1
  O  O421  1  0.88218838  0.49959079  0.99161087  1
  O  O422  1  0.87460906  0.99260102  0.49290907  1
  O  O423  1  0.88001602  0.99404106  0.99542779  1
  O  O424  1  0.11812828  0.00568064  0.00532560  1
  O  O425  1  0.12564186  0.01295639  0.49953071  1
  O  O426  1  0.11776515  0.50717784  0.00030301  1
  O  O427  1  0.12026444  0.50541569  0.50510808  1
  O  O428  1  0.61700910  -0.00298387  0.00991626  1
  O  O429  1  0.61933941  0.00485737  0.50528699  1
  O  O430  1  0.62564027  0.50733494  0.00576010  1
  O  O431  1  0.62196771  0.50531820  0.50438098  1
  O  O432  1  0.36867067  0.36892517  0.12145247  1
  O  O433  1  0.37145845  0.37655768  0.61792929  1
  O  O434  1  0.36743871  0.87341836  0.11790170  1
  O  O435  1  0.36818314  0.87511422  0.61885075  1
  O  O436  1  0.86839593  0.36669484  0.12468092  1
  O  O437  1  0.86977542  0.36903495  0.61926892  1
  O  O438  1  0.86782212  0.87377652  0.11719588  1
  O  O439  1  0.86917840  0.86984302  0.62043537  1
  O  O440  1  0.13088604  0.13083567  0.38170543  1
  O  O441  1  0.12902652  0.13092921  0.88192732  1
  O  O442  1  0.12641336  0.63182342  0.38206635  1
  O  O443  1  0.12961719  0.63052144  0.88024986  1
  O  O444  1  0.62994248  0.12903835  0.38081733  1
  O  O445  1  0.62848578  0.12767111  0.87608316  1
  O  O446  1  0.63742530  0.62487479  0.38021421  1
  O  O447  1  0.63042025  0.62908489  0.87877465  1
