# generated using pymatgen
data_V3Zn3O8
_symmetry_space_group_name_H-M   'P 1'
_cell_length_a   17.08776073
_cell_length_b   17.08815255
_cell_length_c   17.08730418
_cell_angle_alpha   89.99850449
_cell_angle_beta   89.99920003
_cell_angle_gamma   89.98752453
_symmetry_Int_Tables_number   1
_chemical_formula_structural   V3Zn3O8
_chemical_formula_sum   'V96 Zn96 O256'
_cell_volume   4989.46300303
_cell_formula_units_Z   32
loop_
 _symmetry_equiv_pos_site_id
 _symmetry_equiv_pos_as_xyz
  1  'x, y, z'
loop_
 _atom_site_type_symbol
 _atom_site_label
 _atom_site_symmetry_multiplicity
 _atom_site_fract_x
 _atom_site_fract_y
 _atom_site_fract_z
 _atom_site_occupancy
  V  V0  1  0.74984730  0.12500635  0.87549630  1
  V  V1  1  0.37466077  0.37480851  0.49992911  1
  V  V2  1  0.00066656  0.87380806  0.87411964  1
  V  V3  1  0.62416505  0.12472823  0.00046551  1
  V  V4  1  0.74987223  0.87518423  0.12600422  1
  V  V5  1  0.62447317  0.75081165  0.87393775  1
  V  V6  1  0.12548118  0.12579411  0.49982180  1
  V  V7  1  -0.00011917  0.49830221  -0.00027308  1
  V  V8  1  0.24973385  -0.00052121  0.24963921  1
  V  V9  1  0.87438213  0.37528190  -0.00010118  1
  V  V10  1  0.12565140  0.87454708  0.24922923  1
  V  V11  1  0.37468584  0.25006524  0.12510792  1
  V  V12  1  0.49947143  0.37572065  0.87519342  1
  V  V13  1  0.50062726  0.00166461  0.49933270  1
  V  V14  1  0.37484598  0.00046860  0.37395301  1
  V  V15  1  0.62540732  0.24963130  0.37489745  1
  V  V16  1  0.25044089  0.12267987  0.87468523  1
  V  V17  1  0.87509542  0.49996784  0.87615482  1
  V  V18  1  0.75049462  0.75122648  0.50057687  1
  V  V19  1  0.00005303  0.49993542  0.49980266  1
  V  V20  1  0.49949524  0.62724832  0.12595602  1
  V  V21  1  0.74983731  0.62394620  0.37641951  1
  V  V22  1  0.25018795  0.62372514  0.87501090  1
  V  V23  1  0.24959465  0.37371444  0.12540712  1
  V  V24  1  0.62406813  0.50096788  0.12564220  1
  V  V25  1  0.12431128  0.62554650  0.50003507  1
  V  V26  1  0.12590021  0.62373284  -0.00009523  1
  V  V27  1  0.87571363  0.74863217  0.12581246  1
  V  V28  1  0.00043535  0.12524175  0.62450345  1
  V  V29  1  0.74941850  0.37550494  0.12518767  1
  V  V30  1  0.24945327  0.87574771  0.62486133  1
  V  V31  1  0.49903769  0.12556980  0.12441270  1
  V  V32  1  0.00047647  -0.00078821  0.00068605  1
  V  V33  1  0.12561181  0.25002567  0.37509304  1
  V  V34  1  0.00000714  0.74889066  0.24965233  1
  V  V35  1  0.37388804  0.37415844  0.00100461  1
  V  V36  1  0.24962046  0.37487993  0.62464987  1
  V  V37  1  0.87579037  0.87394601  -0.00019610  1
  V  V38  1  -0.00070030  0.87513476  0.37515982  1
  V  V39  1  0.37420252  0.87375636  -0.00103522  1
  V  V40  1  0.62492066  0.00244064  0.62425917  1
  V  V41  1  0.12550917  0.49826611  0.12511359  1
  V  V42  1  0.62399329  0.75203953  0.37516013  1
  V  V43  1  0.49956875  0.50060346  0.00077377  1
  V  V44  1  0.75087165  0.62501138  0.87576726  1
  V  V45  1  0.00020907  0.24925031  0.75034904  1
  V  V46  1  0.62514519  0.12593283  0.49899025  1
  V  V47  1  0.37425191  0.49962950  0.87487770  1
  V  V48  1  0.12443161  0.74956963  0.87392161  1
  V  V49  1  0.37520959  0.87580435  0.50023727  1
  V  V50  1  0.49899559  0.24970586  0.24915751  1
  V  V51  1  0.00027678  0.12398130  0.12495948  1
  V  V52  1  0.87446855  0.37433740  0.50089162  1
  V  V53  1  0.37492940  0.62594432  0.25175091  1
  V  V54  1  0.62508919  0.87567583  0.75030716  1
  V  V55  1  0.25089419  0.74964429  -0.00002407  1
  V  V56  1  0.24932701  0.49883032  0.74962387  1
  V  V57  1  0.74998221  0.25086736  0.00088114  1
  V  V58  1  0.74942378  0.37542106  0.62665935  1
  V  V59  1  0.62561401  0.37599678  0.75039281  1
  V  V60  1  0.87564454  0.62538483  0.74951228  1
  V  V61  1  0.75013539  0.12597642  0.37419516  1
  V  V62  1  0.12538768  0.00018358  0.62403174  1
  V  V63  1  0.12568812  0.49992132  0.62537603  1
  V  V64  1  0.74972286  0.00077142  0.75011082  1
  V  V65  1  0.25045025  0.62487836  0.37479671  1
  V  V66  1  0.49933787  0.37530327  0.37594337  1
  V  V67  1  0.62398495  0.37518878  0.25062022  1
  V  V68  1  -0.00024097  0.24957363  0.24899941  1
  V  V69  1  0.25012897  0.75024843  0.50019394  1
  V  V70  1  0.12363151  0.24995121  0.87480612  1
  V  V71  1  0.12447186  0.74986342  0.37505104  1
  V  V72  1  0.00033624  0.62457591  0.12569584  1
  V  V73  1  0.75125366  0.87607221  0.62368945  1
  V  V74  1  0.37584873  0.12511456  0.74920999  1
  V  V75  1  0.49912356  -0.00106799  -0.00122374  1
  V  V76  1  0.50048964  0.87515389  0.37359080  1
  V  V77  1  0.24996673  0.25111476  0.49948754  1
  V  V78  1  0.37641071  0.62583110  0.74851828  1
  V  V79  1  0.50178667  0.50087011  0.50326409  1
  V  V80  1  0.87565324  0.00031465  0.37439734  1
  V  V81  1  -0.00088601  0.62566519  0.62510350  1
  V  V82  1  0.75056942  0.74967676  0.00053750  1
  V  V83  1  0.12417455  0.12259352  -0.00013266  1
  V  V84  1  0.12513284  0.87494871  0.74877054  1
  V  V85  1  0.74937681  -0.00052216  0.24825555  1
  V  V86  1  0.62458845  0.25101017  0.87553848  1
  V  V87  1  0.74916495  0.50051882  0.25161293  1
  V  V88  1  0.87506140  0.87609205  0.49923368  1
  V  V89  1  0.87521442  0.12523634  0.74925194  1
  V  V90  1  0.87559837  0.12568321  0.24937627  1
  V  V91  1  0.12482597  0.37499718  0.24903397  1
  V  V92  1  0.37660960  0.74989236  0.62600141  1
  V  V93  1  -0.00033119  0.37585584  0.37487158  1
  V  V94  1  0.49934735  0.25022433  0.74960862  1
  V  V95  1  0.87477490  -0.00082584  0.87521702  1
  Zn  Zn96  1  0.37363213  0.12494068  0.25013772  1
  Zn  Zn97  1  0.74876205  0.50004636  0.75137874  1
  Zn  Zn98  1  0.49986430  0.12728490  0.62371223  1
  Zn  Zn99  1  0.00039105  0.00099759  0.49906972  1
  Zn  Zn100  1  0.62478961  0.50348240  0.62881527  1
  Zn  Zn101  1  0.62282565  0.87670762  0.24743579  1
  Zn  Zn102  1  0.12377278  0.37521341  0.75064246  1
  Zn  Zn103  1  0.87573777  0.75139638  0.62491434  1
  Zn  Zn104  1  0.87471092  0.25033422  0.12453722  1
  Zn  Zn105  1  0.62521113  0.62566288  0.00026986  1
  Zn  Zn106  1  0.37416358  0.75020295  0.12498590  1
  Zn  Zn107  1  0.24975067  0.24737858  0.00158793  1
  Zn  Zn108  1  -0.00029064  0.75105582  0.74788174  1
  Zn  Zn109  1  0.50390280  0.62730681  0.62622103  1
  Zn  Zn110  1  0.37514948  -0.00214734  0.87269492  1
  Zn  Zn111  1  0.12618333  -0.00192333  0.12459398  1
  Zn  Zn112  1  0.37556836  0.24969001  0.62335492  1
  Zn  Zn113  1  0.25036330  0.49979125  0.25159044  1
  Zn  Zn114  1  -0.00048154  0.37483364  0.87381561  1
  Zn  Zn115  1  0.50057302  0.75047144  0.74834430  1
  Zn  Zn116  1  0.25104267  0.12578906  0.37481960  1
  Zn  Zn117  1  0.24908935  0.87325091  0.12421641  1
  Zn  Zn118  1  0.87538983  0.62302808  0.25069171  1
  Zn  Zn119  1  0.87450856  0.50031376  0.37381608  1
  Zn  Zn120  1  0.62515898  -0.00160507  0.12527096  1
  Zn  Zn121  1  0.87549001  0.24982304  0.62572406  1
  Zn  Zn122  1  0.49991607  0.75264511  0.24911763  1
  Zn  Zn123  1  0.75025702  0.24978609  0.50075943  1
  Zn  Zn124  1  0.49862162  0.87443031  0.87256714  1
  Zn  Zn125  1  0.62559302  0.62442364  0.50509589  1
  Zn  Zn126  1  0.25215306  -0.00086423  0.74821569  1
  Zn  Zn127  1  0.37411970  0.50068711  0.37592744  1
  Zn  Zn128  1  0.18697438  0.18580301  0.18773669  1
  Zn  Zn129  1  0.18815096  0.18788472  0.68678950  1
  Zn  Zn130  1  0.18885325  0.68772424  0.18629940  1
  Zn  Zn131  1  0.18834214  0.68785929  0.68773087  1
  Zn  Zn132  1  0.68654404  0.18709438  0.18653398  1
  Zn  Zn133  1  0.68737555  0.18969371  0.68657249  1
  Zn  Zn134  1  0.68739023  0.68837269  0.19009476  1
  Zn  Zn135  1  0.68865859  0.68764996  0.68711583  1
  Zn  Zn136  1  0.31284245  0.31347693  0.31249867  1
  Zn  Zn137  1  0.31119552  0.31103372  0.81193535  1
  Zn  Zn138  1  0.31296151  0.81225730  0.31278798  1
  Zn  Zn139  1  0.31154191  0.81148665  0.81221221  1
  Zn  Zn140  1  0.81298478  0.31208705  0.31255603  1
  Zn  Zn141  1  0.81325100  0.31225827  0.81304607  1
  Zn  Zn142  1  0.81276242  0.81246198  0.31144437  1
  Zn  Zn143  1  0.81171539  0.81159228  0.81137847  1
  Zn  Zn144  1  0.18813626  0.43859847  0.43650164  1
  Zn  Zn145  1  0.18811940  0.43536073  0.93847323  1
  Zn  Zn146  1  0.18710275  0.93824187  0.43663295  1
  Zn  Zn147  1  0.18742790  0.93717832  0.93584859  1
  Zn  Zn148  1  0.68572497  0.43724335  0.43936865  1
  Zn  Zn149  1  0.68728950  0.43950843  0.93837234  1
  Zn  Zn150  1  0.68803420  0.93885936  0.43607837  1
  Zn  Zn151  1  0.68714994  0.93683863  0.93879974  1
  Zn  Zn152  1  0.31301413  0.06113108  0.06371462  1
  Zn  Zn153  1  0.31190416  0.06359591  0.56242448  1
  Zn  Zn154  1  0.31233980  0.56104365  0.06426887  1
  Zn  Zn155  1  0.31444925  0.56249705  0.56273602  1
  Zn  Zn156  1  0.81333213  0.06228926  0.06333069  1
  Zn  Zn157  1  0.81281381  0.06301718  0.56138375  1
  Zn  Zn158  1  0.81256712  0.56291963  0.06292268  1
  Zn  Zn159  1  0.81205302  0.56079445  0.56333112  1
  Zn  Zn160  1  0.43595996  0.43889336  0.18866833  1
  Zn  Zn161  1  0.43613745  0.43678065  0.68656776  1
  Zn  Zn162  1  0.43625739  0.93647804  0.18587715  1
  Zn  Zn163  1  0.43963546  0.93822437  0.68683646  1
  Zn  Zn164  1  0.93563194  0.43812184  0.18759543  1
  Zn  Zn165  1  0.93861244  0.43755362  0.68866062  1
  Zn  Zn166  1  0.93765462  0.93729499  0.18756345  1
  Zn  Zn167  1  0.93895377  0.93890809  0.68648254  1
  Zn  Zn168  1  0.06360704  0.06251533  0.31308426  1
  Zn  Zn169  1  0.06259381  0.06057553  0.81063233  1
  Zn  Zn170  1  0.06290519  0.56139291  0.31230352  1
  Zn  Zn171  1  0.06163167  0.56211874  0.81221028  1
  Zn  Zn172  1  0.56297293  0.06248241  0.31063909  1
  Zn  Zn173  1  0.56193342  0.06274464  0.81358644  1
  Zn  Zn174  1  0.56224207  0.56279052  0.31532783  1
  Zn  Zn175  1  0.56239235  0.56345264  0.81123513  1
  Zn  Zn176  1  0.43627527  0.18695866  0.43577231  1
  Zn  Zn177  1  0.43682429  0.18831672  0.93736413  1
  Zn  Zn178  1  0.43852898  0.68692441  0.43932585  1
  Zn  Zn179  1  0.43825488  0.68758018  0.93619023  1
  Zn  Zn180  1  0.93871132  0.18878755  0.43751588  1
  Zn  Zn181  1  0.93674597  0.18688572  0.93841223  1
  Zn  Zn182  1  0.93544958  0.68852795  0.43779795  1
  Zn  Zn183  1  0.93899817  0.68687877  0.93758411  1
  Zn  Zn184  1  0.06162019  0.31054947  0.06155882  1
  Zn  Zn185  1  0.06328948  0.31199607  0.56351436  1
  Zn  Zn186  1  0.06428740  0.81192263  0.06305004  1
  Zn  Zn187  1  0.06042777  0.81234126  0.56256942  1
  Zn  Zn188  1  0.56175943  0.31324439  0.06299322  1
  Zn  Zn189  1  0.56265073  0.31199214  0.56363888  1
  Zn  Zn190  1  0.56351723  0.81290715  0.06150959  1
  Zn  Zn191  1  0.56260535  0.81416679  0.56256266  1
  O  O192  1  0.11803621  0.12256592  0.11766888  1
  O  O193  1  0.12047894  0.12014863  0.61979488  1
  O  O194  1  0.12022212  0.61879702  0.11893056  1
  O  O195  1  0.12021252  0.62006273  0.61898089  1
  O  O196  1  0.61733200  0.12395476  0.11673555  1
  O  O197  1  0.62493031  0.11948343  0.61818672  1
  O  O198  1  0.61528192  0.62012699  0.12574480  1
  O  O199  1  0.62289298  0.62158086  0.62263261  1
  O  O200  1  0.38201611  0.37708658  0.38121446  1
  O  O201  1  0.37952640  0.37999332  0.88017523  1
  O  O202  1  0.38055140  0.87980801  0.38162577  1
  O  O203  1  0.37651879  0.87668133  0.88525469  1
  O  O204  1  0.88027910  0.37622148  0.38461096  1
  O  O205  1  0.87532863  0.38189143  0.88229316  1
  O  O206  1  0.87987176  0.88045206  0.37908022  1
  O  O207  1  0.87964394  0.87955607  0.87996920  1
  O  O208  1  0.25603273  -0.00048853  0.36565623  1
  O  O209  1  0.25042197  0.01278249  0.87137073  1
  O  O210  1  0.25213609  0.50949222  0.37273502  1
  O  O211  1  0.25490696  0.50446782  0.87048024  1
  O  O212  1  0.75609638  0.00644982  0.36833759  1
  O  O213  1  0.75508458  0.00541093  0.87034255  1
  O  O214  1  0.74754310  0.50936621  0.37100322  1
  O  O215  1  0.75715909  0.50731322  0.87562849  1
  O  O216  1  0.24269189  0.49245007  0.12662305  1
  O  O217  1  0.24459759  0.49535568  0.62984514  1
  O  O218  1  0.24855858  0.99696283  0.13668383  1
  O  O219  1  0.24350078  0.99294896  0.62538930  1
  O  O220  1  0.74327638  0.49580704  0.13057088  1
  O  O221  1  0.74875060  0.48643583  0.62787391  1
  O  O222  1  0.75027700  0.99322938  0.12998196  1
  O  O223  1  0.74447414  0.99600260  0.63078998  1
  O  O224  1  0.00468186  0.36967311  0.25457527  1
  O  O225  1  0.00302658  0.36607862  0.75361946  1
  O  O226  1  0.00517213  0.86854158  0.25553020  1
  O  O227  1  0.00597197  0.87386406  0.75659609  1
  O  O228  1  0.50506053  0.37054140  0.25506927  1
  O  O229  1  0.50417153  0.37034768  0.75688720  1
  O  O230  1  0.50116151  0.87256029  0.25717533  1
  O  O231  1  0.50935080  0.87358164  0.75330927  1
  O  O232  1  0.49881999  0.13174860  0.24228101  1
  O  O233  1  0.49113272  0.13104834  0.75199675  1
  O  O234  1  0.49290972  0.62567123  0.24280136  1
  O  O235  1  0.49049080  0.62725762  0.74816208  1
  O  O236  1  0.99538742  0.12982525  0.24534023  1
  O  O237  1  0.99447095  0.12933118  0.74482586  1
  O  O238  1  0.99962050  0.63114044  0.24379496  1
  O  O239  1  0.99110160  0.62563102  0.74464872  1
  O  O240  1  0.37411608  0.25708020  0.00648619  1
  O  O241  1  0.36860426  0.25679108  0.50018574  1
  O  O242  1  0.36971267  0.75796263  -0.00187133  1
  O  O243  1  0.36925122  0.75639241  0.50487971  1
  O  O244  1  0.86750023  0.25630912  0.00068665  1
  O  O245  1  0.87469444  0.26314245  0.50203677  1
  O  O246  1  0.87073187  0.75495393  0.00536467  1
  O  O247  1  0.86739854  0.75828972  0.50061636  1
  O  O248  1  0.13007268  0.24593806  0.49421194  1
  O  O249  1  0.12513510  0.24151107  0.98988611  1
  O  O250  1  0.13027028  0.74486841  0.49450522  1
  O  O251  1  0.13039236  0.74335688  0.99362953  1
  O  O252  1  0.62604640  0.24435475  0.49214740  1
  O  O253  1  0.62945782  0.24559648  0.99416862  1
  O  O254  1  0.63167689  0.75115253  0.48960157  1
  O  O255  1  0.63204090  0.74931957  0.98984698  1
  O  O256  1  0.49452321  0.24606680  0.12989478  1
  O  O257  1  0.49725974  0.24776432  0.63428701  1
  O  O258  1  0.49914904  0.73814586  0.12572969  1
  O  O259  1  0.49175549  0.74996693  0.62637187  1
  O  O260  1  0.99826764  0.24244476  0.13139507  1
  O  O261  1  0.99993237  0.24316368  0.63308316  1
  O  O262  1  0.99570822  0.74392690  0.12963961  1
  O  O263  1  0.99643133  0.74131874  0.62687721  1
  O  O264  1  0.00610292  0.25654075  0.36881878  1
  O  O265  1  0.00972374  0.24726759  0.86932892  1
  O  O266  1  0.00517471  0.75457722  0.36973484  1
  O  O267  1  0.00716514  0.75614580  0.87429445  1
  O  O268  1  0.50589886  0.25557118  0.36890816  1
  O  O269  1  0.50549481  0.25660412  0.87064446  1
  O  O270  1  0.50953153  0.75568928  0.37700854  1
  O  O271  1  0.51350322  0.75091046  0.87368459  1
  O  O272  1  0.24334112  0.13284746  0.49858814  1
  O  O273  1  0.24470883  0.12460711  0.99054718  1
  O  O274  1  0.24420256  0.63110402  0.49534855  1
  O  O275  1  0.24535874  0.62825600  0.99415346  1
  O  O276  1  0.74416235  0.12703496  0.49216187  1
  O  O277  1  0.74485286  0.12988954  0.99461038  1
  O  O278  1  0.74942227  0.63028774  0.49182386  1
  O  O279  1  0.74890618  0.63241350  0.99435290  1
  O  O280  1  0.25660025  0.37182668  0.00685359  1
  O  O281  1  0.25465386  0.37085824  0.50464237  1
  O  O282  1  0.25827266  0.86972471  -0.00143707  1
  O  O283  1  0.25544269  0.86936807  0.50435869  1
  O  O284  1  0.75393071  0.37041835  0.00582836  1
  O  O285  1  0.75820590  0.37464172  0.50756503  1
  O  O286  1  0.75734933  0.86951014  0.00503971  1
  O  O287  1  0.75556842  0.87157013  0.50417120  1
  O  O288  1  0.12518426  0.49256935  0.24244662  1
  O  O289  1  0.13167524  0.49957888  0.74379376  1
  O  O290  1  0.13401124  0.99313166  0.25107720  1
  O  O291  1  0.12713409  0.99299283  0.74221003  1
  O  O292  1  0.62907708  0.49421574  0.24564726  1
  O  O293  1  0.62790346  0.49078370  0.75037571  1
  O  O294  1  0.63392038  0.99821690  0.24651707  1
  O  O295  1  0.63099904  0.99669316  0.74564655  1
  O  O296  1  0.36549496  -0.00126537  0.25522257  1
  O  O297  1  0.37482246  0.01113011  0.75289775  1
  O  O298  1  0.37361715  0.51334641  0.25304447  1
  O  O299  1  0.36878905  0.50471243  0.75613312  1
  O  O300  1  0.86992165  0.00607266  0.25539535  1
  O  O301  1  0.86928178  0.00529068  0.75616454  1
  O  O302  1  0.86566939  0.50209808  0.25375402  1
  O  O303  1  0.87490092  0.51036288  0.75675316  1
  O  O304  1  0.11891163  0.37010441  0.36957902  1
  O  O305  1  0.12474909  0.36107478  0.87493834  1
  O  O306  1  0.11935078  0.86830980  0.37001656  1
  O  O307  1  0.12013868  0.86939382  0.86913128  1
  O  O308  1  0.61987462  0.36920349  0.36941066  1
  O  O309  1  0.61928711  0.37006431  0.87124505  1
  O  O310  1  0.61973657  0.86695503  0.37468956  1
  O  O311  1  0.62699534  0.86550265  0.86958408  1
  O  O312  1  0.38164657  0.13195540  0.12575645  1
  O  O313  1  0.37620093  0.12724416  0.63691329  1
  O  O314  1  0.38364866  0.62454652  0.13288600  1
  O  O315  1  0.37467982  0.63288481  0.63158332  1
  O  O316  1  0.88173482  0.12663586  0.13158228  1
  O  O317  1  0.88063752  0.12633017  0.63137382  1
  O  O318  1  0.88251220  0.63123958  0.12607345  1
  O  O319  1  0.87956968  0.62432078  0.63410479  1
  O  O320  1  0.25589329  0.25541495  0.12386209  1
  O  O321  1  0.25020632  0.25734618  0.61754361  1
  O  O322  1  0.25292513  0.75114447  0.11483420  1
  O  O323  1  0.25530252  0.75616346  0.61861380  1
  O  O324  1  0.74992970  0.25751292  0.11837728  1
  O  O325  1  0.75343091  0.26233638  0.62314563  1
  O  O326  1  0.75559300  0.75412354  0.12041891  1
  O  O327  1  0.75139693  0.75869620  0.61796986  1
  O  O328  1  0.24256295  0.25022776  0.38087394  1
  O  O329  1  0.24070252  0.23929082  0.87584868  1
  O  O330  1  0.24374857  0.74526728  0.38133782  1
  O  O331  1  0.24376015  0.74269425  0.88040809  1
  O  O332  1  0.74296857  0.24370549  0.37493838  1
  O  O333  1  0.74405742  0.24441604  0.88077844  1
  O  O334  1  0.74319155  0.74371133  0.37962094  1
  O  O335  1  0.74344787  0.74553339  0.88080271  1
  O  O336  1  0.00386192  0.11807098  0.00445208  1
  O  O337  1  0.00695638  0.12521448  0.50654189  1
  O  O338  1  0.00658305  0.61886628  0.00570089  1
  O  O339  1  0.00429063  0.62006161  0.50436995  1
  O  O340  1  0.50361778  0.11793471  0.00365525  1
  O  O341  1  0.50675035  0.11883285  0.49993942  1
  O  O342  1  0.49944941  0.61896448  0.01017683  1
  O  O343  1  0.50141793  0.61320979  0.50168386  1
  O  O344  1  0.49498931  0.38084481  0.49529463  1
  O  O345  1  0.49413174  0.38098840  0.99488261  1
  O  O346  1  0.49419488  0.88236679  0.49412844  1
  O  O347  1  0.49242431  0.88267506  0.99840835  1
  O  O348  1  0.99314176  0.37985565  0.49600283  1
  O  O349  1  0.99301210  0.38072949  0.99857456  1
  O  O350  1  0.99344251  0.87630586  0.49227715  1
  O  O351  1  0.99494401  0.87896114  0.99420685  1
  O  O352  1  0.49940606  0.49329327  0.38505627  1
  O  O353  1  0.49376986  0.49513708  0.88093797  1
  O  O354  1  0.49503957  0.99482951  0.37976395  1
  O  O355  1  0.49849530  0.99899421  0.88829355  1
  O  O356  1  0.99897633  0.49364131  0.38207752  1
  O  O357  1  0.99420178  0.49850428  0.88257642  1
  O  O358  1  0.99333172  0.99285664  0.37490438  1
  O  O359  1  0.99405914  0.99403564  0.88031117  1
  O  O360  1  0.00106169  0.00559367  0.11835925  1
  O  O361  1  0.00729492  0.00757416  0.62263867  1
  O  O362  1  0.00566962  0.50472431  0.11937455  1
  O  O363  1  0.00596113  0.50571010  0.61920260  1
  O  O364  1  0.50003252  0.00534772  0.11311524  1
  O  O365  1  0.50781915  0.00253472  0.61706852  1
  O  O366  1  0.50431174  0.50802665  0.12102476  1
  O  O367  1  0.50100370  0.49934915  0.61436985  1
  O  O368  1  0.24266840  0.37644894  0.24336417  1
  O  O369  1  0.24822405  0.38126877  0.74408165  1
  O  O370  1  0.24462131  0.88264194  0.24989978  1
  O  O371  1  0.24365499  0.87632380  0.74291550  1
  O  O372  1  0.74313068  0.38010671  0.24559837  1
  O  O373  1  0.74563111  0.37516545  0.74262754  1
  O  O374  1  0.75074996  0.88171743  0.24309195  1
  O  O375  1  0.74569005  0.88210242  0.74445607  1
  O  O376  1  0.25052544  0.11278515  0.25256577  1
  O  O377  1  0.25867464  0.12520689  0.75778029  1
  O  O378  1  0.25872440  0.62492528  0.25550790  1
  O  O379  1  0.25551131  0.61871227  0.75599969  1
  O  O380  1  0.75572878  0.12040997  0.25424304  1
  O  O381  1  0.75454524  0.12031039  0.75602665  1
  O  O382  1  0.74979799  0.61942910  0.26041045  1
  O  O383  1  0.76085247  0.62350828  0.75626675  1
  O  O384  1  0.37212856  0.11600434  0.37132797  1
  O  O385  1  0.36587088  0.12600723  0.86770260  1
  O  O386  1  0.36973111  0.62593153  0.36690614  1
  O  O387  1  0.36922680  0.61884456  0.87024421  1
  O  O388  1  0.87058857  0.12090920  0.36909965  1
  O  O389  1  0.86907422  0.11840921  0.87032100  1
  O  O390  1  0.86161832  0.62384395  0.37426867  1
  O  O391  1  0.87134582  0.62057627  0.86859996  1
  O  O392  1  0.12931763  0.37844746  0.12912496  1
  O  O393  1  0.13136066  0.38287361  0.62566614  1
  O  O394  1  0.12735055  0.87700098  0.13326170  1
  O  O395  1  0.12990951  0.87952477  0.62854992  1
  O  O396  1  0.62903165  0.38139321  0.13096270  1
  O  O397  1  0.63468609  0.37455169  0.63181984  1
  O  O398  1  0.63414373  0.87624437  0.12630482  1
  O  O399  1  0.63179796  0.88252807  0.62974061  1
  O  O400  1  0.11895149  0.25550018  0.25499176  1
  O  O401  1  0.11889196  0.24835310  0.76025977  1
  O  O402  1  0.11999283  0.75409988  0.25586019  1
  O  O403  1  0.12393562  0.75589032  0.75655517  1
  O  O404  1  0.61871069  0.25594865  0.25463558  1
  O  O405  1  0.61966060  0.25539857  0.75730730  1
  O  O406  1  0.62378093  0.75248414  0.26420808  1
  O  O407  1  0.62780870  0.75701139  0.75994817  1
  O  O408  1  0.38197032  0.24951415  0.24326972  1
  O  O409  1  0.38059954  0.24076510  0.75050464  1
  O  O410  1  0.37721495  0.73845034  0.24817873  1
  O  O411  1  0.37515126  0.74360277  0.74411901  1
  O  O412  1  0.88209107  0.24377503  0.24868383  1
  O  O413  1  0.88267658  0.24229842  0.75110629  1
  O  O414  1  0.88233022  0.74804168  0.24341879  1
  O  O415  1  0.87651294  0.73758947  0.74904801  1
  O  O416  1  0.38410479  0.49363113  0.49867471  1
  O  O417  1  0.37978938  0.49412856  0.99441322  1
  O  O418  1  0.37985553  0.99497561  0.49472612  1
  O  O419  1  0.38241009  0.99187038  0.99791280  1
  O  O420  1  0.88099166  0.48923479  0.49876601  1
  O  O421  1  0.88027719  0.49531150  0.99566782  1
  O  O422  1  0.87618238  0.99415413  0.49154418  1
  O  O423  1  0.88012955  0.99378883  0.99372997  1
  O  O424  1  0.11791697  0.00512865  -0.00019959  1
  O  O425  1  0.12384910  0.00697617  0.50563545  1
  O  O426  1  0.12002782  0.50442093  0.00490173  1
  O  O427  1  0.11945717  0.50662269  0.50529797  1
  O  O428  1  0.61566932  0.00575419  0.00035600  1
  O  O429  1  0.62046801  0.00612990  0.50410052  1
  O  O430  1  0.61745883  0.50249752  0.00713865  1
  O  O431  1  0.61320927  0.49943300  0.50343829  1
  O  O432  1  0.37015385  0.37040375  0.12044642  1
  O  O433  1  0.36652513  0.37301510  0.61829208  1
  O  O434  1  0.37326537  0.87153408  0.11094310  1
  O  O435  1  0.36936571  0.87096211  0.61934928  1
  O  O436  1  0.86684979  0.37430509  0.11828080  1
  O  O437  1  0.86824490  0.37463670  0.61744352  1
  O  O438  1  0.87100117  0.86819233  0.11870876  1
  O  O439  1  0.86851908  0.87619193  0.61858358  1
  O  O440  1  0.12576933  0.13275771  0.38155191  1
  O  O441  1  0.13175334  0.13055979  0.87837456  1
  O  O442  1  0.12940488  0.63099009  0.38076408  1
  O  O443  1  0.13071157  0.62874738  0.88061239  1
  O  O444  1  0.63071275  0.13018308  0.37918794  1
  O  O445  1  0.63055538  0.13129746  0.88053286  1
  O  O446  1  0.63410833  0.63391754  0.37790139  1
  O  O447  1  0.63154856  0.63482498  0.87539166  1
