# generated using pymatgen
data_V3Zn3O8
_symmetry_space_group_name_H-M   'P 1'
_cell_length_a   17.08638499
_cell_length_b   17.08691464
_cell_length_c   17.08483888
_cell_angle_alpha   90.00002954
_cell_angle_beta   90.01533212
_cell_angle_gamma   90.01208843
_symmetry_Int_Tables_number   1
_chemical_formula_structural   V3Zn3O8
_chemical_formula_sum   'V96 Zn96 O256'
_cell_volume   4987.97995804
_cell_formula_units_Z   32
loop_
 _symmetry_equiv_pos_site_id
 _symmetry_equiv_pos_as_xyz
  1  'x, y, z'
loop_
 _atom_site_type_symbol
 _atom_site_label
 _atom_site_symmetry_multiplicity
 _atom_site_fract_x
 _atom_site_fract_y
 _atom_site_fract_z
 _atom_site_occupancy
  V  V0  1  0.37353306  0.87406322  0.50001691  1
  V  V1  1  0.12566988  0.87385057  0.24778078  1
  V  V2  1  0.50186187  0.00002725  0.00090726  1
  V  V3  1  0.24985000  -0.00164876  0.25042618  1
  V  V4  1  0.50013659  0.12488448  0.62453811  1
  V  V5  1  -0.00119462  0.50004852  0.49973742  1
  V  V6  1  0.00144210  0.87416745  0.87283855  1
  V  V7  1  0.12415213  0.62436515  0.49898253  1
  V  V8  1  0.24855401  0.37624891  0.62588751  1
  V  V9  1  0.87330043  0.37480040  0.50076557  1
  V  V10  1  -0.00048972  0.12605399  0.12553374  1
  V  V11  1  0.37525492  0.37612688  0.50050951  1
  V  V12  1  0.62588490  -0.00035124  0.12570114  1
  V  V13  1  0.62380870  0.62551443  0.50131138  1
  V  V14  1  0.74868740  0.62560315  0.37531478  1
  V  V15  1  0.25039623  0.00034921  0.75056037  1
  V  V16  1  0.25070841  0.24876885  0.00014067  1
  V  V17  1  0.74930835  0.12737582  0.37601843  1
  V  V18  1  0.49971302  0.37364120  0.87542257  1
  V  V19  1  0.74965642  0.37568587  0.62595433  1
  V  V20  1  0.12417780  0.12509502  0.49951727  1
  V  V21  1  0.37533349  0.24931838  0.12570344  1
  V  V22  1  0.75028130  0.12553403  0.87563467  1
  V  V23  1  0.50032535  0.87519604  0.37519309  1
  V  V24  1  0.12572528  0.49989371  0.12412415  1
  V  V25  1  -0.00200381  0.62627053  0.62448132  1
  V  V26  1  0.12458320  -0.00032824  0.62486359  1
  V  V27  1  0.37608187  0.62490005  0.24923154  1
  V  V28  1  0.62473704  0.00082795  0.62486717  1
  V  V29  1  0.37478624  -0.00054076  0.37587677  1
  V  V30  1  0.62540504  0.87544156  0.25042863  1
  V  V31  1  0.25007484  0.62443875  0.37416541  1
  V  V32  1  0.37574286  0.87433797  0.00099699  1
  V  V33  1  0.50009318  0.25049295  0.25178775  1
  V  V34  1  0.37487904  0.25089274  0.62559858  1
  V  V35  1  -0.00028013  0.37440513  0.37476144  1
  V  V36  1  0.12430367  0.74872041  0.37302475  1
  V  V37  1  -0.00106283  0.74940173  0.24879695  1
  V  V38  1  0.87488747  0.00112605  0.37274328  1
  V  V39  1  0.37596107  0.37389597  0.00014970  1
  V  V40  1  0.37341751  0.50128366  0.87368284  1
  V  V41  1  0.87477590  0.87423110  -0.00058008  1
  V  V42  1  0.49921338  0.62489798  0.62542155  1
  V  V43  1  0.50071787  0.12374598  0.12588019  1
  V  V44  1  0.87369266  0.37306289  0.00188275  1
  V  V45  1  0.12673656  0.74937424  0.87413799  1
  V  V46  1  0.87407850  0.74958952  0.12366112  1
  V  V47  1  0.75082637  0.00045149  0.24923124  1
  V  V48  1  0.62502292  0.49947113  0.12492138  1
  V  V49  1  0.49985272  0.00082462  0.50106150  1
  V  V50  1  0.87494216  0.50234918  0.87564385  1
  V  V51  1  0.12606857  0.12343300  0.00013365  1
  V  V52  1  0.74976525  0.00004461  0.74853083  1
  V  V53  1  0.62420354  0.75127122  0.37464066  1
  V  V54  1  0.49988656  0.62549950  0.12661335  1
  V  V55  1  0.25065002  0.37414765  0.12581211  1
  V  V56  1  0.00008145  0.25013281  0.75028247  1
  V  V57  1  0.87396093  0.49965355  0.37487538  1
  V  V58  1  0.62621887  0.62446988  -0.00045866  1
  V  V59  1  -0.00033248  0.00005956  0.49895603  1
  V  V60  1  0.25084082  0.87337960  0.12428556  1
  V  V61  1  0.62411662  0.37447894  0.25131985  1
  V  V62  1  0.62652374  0.74992650  0.87512601  1
  V  V63  1  0.24876524  0.87472962  0.62344638  1
  V  V64  1  0.24915849  0.12468150  0.37528857  1
  V  V65  1  -0.00070712  0.12496689  0.62493212  1
  V  V66  1  0.87544006  0.74961163  0.62460037  1
  V  V67  1  0.87599602  -0.00035533  0.87437215  1
  V  V68  1  0.87446304  0.62504878  0.24886168  1
  V  V69  1  0.12703472  0.62361760  -0.00048028  1
  V  V70  1  -0.00018699  0.37564050  0.87568487  1
  V  V71  1  0.24899283  0.75024752  0.49966098  1
  V  V72  1  0.49972164  0.37532786  0.37623876  1
  V  V73  1  0.37409115  0.12464271  0.75013141  1
  V  V74  1  0.87358065  0.25107471  0.62537870  1
  V  V75  1  0.12481464  0.37446183  0.25058844  1
  V  V76  1  -0.00044521  0.87523056  0.37298822  1
  V  V77  1  0.75003429  0.37367427  0.12535092  1
  V  V78  1  0.74881102  0.50116649  0.74996199  1
  V  V79  1  0.49718182  0.75046881  0.74978761  1
  V  V80  1  0.87454072  0.87549000  0.49866520  1
  V  V81  1  0.12473388  0.37592834  0.74956826  1
  V  V82  1  0.74932931  0.75108842  0.49998652  1
  V  V83  1  0.12377307  0.25068693  0.37474699  1
  V  V84  1  0.50043418  0.87618453  0.87578484  1
  V  V85  1  0.49929715  0.25000093  0.75047571  1
  V  V86  1  0.25056443  0.49957205  0.25017398  1
  V  V87  1  0.24926389  0.25019207  0.50081256  1
  V  V88  1  0.12612174  0.25033195  0.87505032  1
  V  V89  1  0.12390115  0.49981489  0.62504866  1
  V  V90  1  0.74926181  0.49936892  0.25069773  1
  V  V91  1  0.87548991  0.12533088  0.75051823  1
  V  V92  1  0.37544560  0.49973216  0.37640497  1
  V  V93  1  0.62608241  0.24931512  0.87609871  1
  V  V94  1  0.37470321  0.12473945  0.25108143  1
  V  V95  1  0.74936692  0.87622036  0.62434006  1
  Zn  Zn96  1  0.00205185  0.00020725  -0.00012703  1
  Zn  Zn97  1  0.75136585  0.74951898  -0.00173992  1
  Zn  Zn98  1  0.50026978  0.49843338  -0.00133874  1
  Zn  Zn99  1  0.62485953  0.87590708  0.74984704  1
  Zn  Zn100  1  0.25248161  0.62765820  0.87211501  1
  Zn  Zn101  1  0.62382184  0.37644994  0.74935004  1
  Zn  Zn102  1  0.37637071  0.74860954  0.12581528  1
  Zn  Zn103  1  0.37181889  0.62445845  0.74969220  1
  Zn  Zn104  1  0.87378320  0.24898022  0.12759494  1
  Zn  Zn105  1  0.25267594  0.74921499  -0.00077888  1
  Zn  Zn106  1  0.62454346  0.12823336  0.49999066  1
  Zn  Zn107  1  0.00055431  0.62245126  0.12449869  1
  Zn  Zn108  1  0.12415156  -0.00164602  0.12368507  1
  Zn  Zn109  1  0.49958472  0.75111496  0.25053881  1
  Zn  Zn110  1  -0.00137781  0.24939672  0.24951593  1
  Zn  Zn111  1  0.37125832  0.74891183  0.62631352  1
  Zn  Zn112  1  0.87558738  0.62843004  0.75138478  1
  Zn  Zn113  1  0.75132884  0.62604185  0.87410481  1
  Zn  Zn114  1  0.12519858  0.87380975  0.74900827  1
  Zn  Zn115  1  0.62392110  0.49884712  0.62582039  1
  Zn  Zn116  1  0.50091166  0.49966831  0.50267402  1
  Zn  Zn117  1  0.62737270  0.12349488  0.00161269  1
  Zn  Zn118  1  0.62516731  0.25087895  0.37845566  1
  Zn  Zn119  1  0.74952630  0.87568369  0.12405293  1
  Zn  Zn120  1  0.37654686  0.00181082  0.87531092  1
  Zn  Zn121  1  0.87650447  0.12734966  0.24831776  1
  Zn  Zn122  1  0.74684596  0.25069839  0.50124502  1
  Zn  Zn123  1  0.25186225  0.12426297  0.87567608  1
  Zn  Zn124  1  0.74948837  0.24682157  0.00331714  1
  Zn  Zn125  1  -0.00038344  0.74900852  0.74748848  1
  Zn  Zn126  1  0.00081539  0.49937022  0.00196334  1
  Zn  Zn127  1  0.24809225  0.50422300  0.75013374  1
  Zn  Zn128  1  0.18609910  0.18761039  0.18757056  1
  Zn  Zn129  1  0.18705962  0.18742592  0.68737554  1
  Zn  Zn130  1  0.18897632  0.68728884  0.18558727  1
  Zn  Zn131  1  0.18634840  0.68640055  0.68905323  1
  Zn  Zn132  1  0.68748291  0.18794399  0.18965183  1
  Zn  Zn133  1  0.68677491  0.18759745  0.68868439  1
  Zn  Zn134  1  0.68794981  0.68915847  0.18783023  1
  Zn  Zn135  1  0.68741245  0.68680004  0.68835089  1
  Zn  Zn136  1  0.31260861  0.31225046  0.31363865  1
  Zn  Zn137  1  0.31119882  0.31364557  0.81249710  1
  Zn  Zn138  1  0.31418787  0.81013319  0.31163674  1
  Zn  Zn139  1  0.31241261  0.81557493  0.81349373  1
  Zn  Zn140  1  0.81422875  0.30959134  0.31042940  1
  Zn  Zn141  1  0.81137529  0.31400623  0.81278627  1
  Zn  Zn142  1  0.81117065  0.81328264  0.31125508  1
  Zn  Zn143  1  0.81239864  0.81253644  0.80964817  1
  Zn  Zn144  1  0.18741104  0.43755399  0.43811115  1
  Zn  Zn145  1  0.18989186  0.43725432  0.93746434  1
  Zn  Zn146  1  0.18605717  0.93674983  0.43615595  1
  Zn  Zn147  1  0.18885953  0.93794654  0.93677950  1
  Zn  Zn148  1  0.68528403  0.43854801  0.44006151  1
  Zn  Zn149  1  0.68805654  0.43667379  0.93737461  1
  Zn  Zn150  1  0.68640034  0.94096634  0.43763291  1
  Zn  Zn151  1  0.68848611  0.93784605  0.93750529  1
  Zn  Zn152  1  0.31331558  0.06024986  0.06378536  1
  Zn  Zn153  1  0.31274909  0.06253169  0.56335262  1
  Zn  Zn154  1  0.31228513  0.56094007  0.05973535  1
  Zn  Zn155  1  0.31284054  0.56309935  0.56334749  1
  Zn  Zn156  1  0.81338473  0.06130781  0.06126578  1
  Zn  Zn157  1  0.81234761  0.06348798  0.56088419  1
  Zn  Zn158  1  0.81095771  0.56149469  0.06238259  1
  Zn  Zn159  1  0.81164944  0.56306947  0.56313654  1
  Zn  Zn160  1  0.43835907  0.43838712  0.18818633  1
  Zn  Zn161  1  0.43721880  0.43772329  0.68965570  1
  Zn  Zn162  1  0.43849439  0.93761821  0.18828438  1
  Zn  Zn163  1  0.43623932  0.93612356  0.68654905  1
  Zn  Zn164  1  0.93928503  0.43798913  0.18736534  1
  Zn  Zn165  1  0.93664581  0.43876152  0.68854214  1
  Zn  Zn166  1  0.93853188  0.94048410  0.18540006  1
  Zn  Zn167  1  0.93678971  0.93669931  0.68738211  1
  Zn  Zn168  1  0.06369156  0.06143747  0.31013102  1
  Zn  Zn169  1  0.06363316  0.06216077  0.81305919  1
  Zn  Zn170  1  0.06123990  0.56130667  0.31064990  1
  Zn  Zn171  1  0.06042403  0.56385600  0.81121094  1
  Zn  Zn172  1  0.56429884  0.06228583  0.31296991  1
  Zn  Zn173  1  0.56315917  0.06299873  0.81203526  1
  Zn  Zn174  1  0.56203315  0.56131871  0.31360600  1
  Zn  Zn175  1  0.56029114  0.56226979  0.81238832  1
  Zn  Zn176  1  0.43716411  0.18853197  0.43847688  1
  Zn  Zn177  1  0.43788924  0.18487423  0.93732680  1
  Zn  Zn178  1  0.43688342  0.68855108  0.43816037  1
  Zn  Zn179  1  0.43950252  0.68715751  0.93835093  1
  Zn  Zn180  1  0.93500933  0.18864311  0.43758162  1
  Zn  Zn181  1  0.93880384  0.18851048  0.93851009  1
  Zn  Zn182  1  0.93625298  0.68756519  0.43715133  1
  Zn  Zn183  1  0.94259091  0.68662672  0.93900099  1
  Zn  Zn184  1  0.06181687  0.31140189  0.06226097  1
  Zn  Zn185  1  0.06089777  0.31272084  0.56227255  1
  Zn  Zn186  1  0.06204117  0.80962432  0.06067394  1
  Zn  Zn187  1  0.06249818  0.81267804  0.56094501  1
  Zn  Zn188  1  0.56227894  0.31102785  0.06217947  1
  Zn  Zn189  1  0.56511057  0.31281712  0.56234284  1
  Zn  Zn190  1  0.56304133  0.81221957  0.06354214  1
  Zn  Zn191  1  0.56233947  0.81325970  0.56308770  1
  O  O192  1  0.11930774  0.12449599  0.11514097  1
  O  O193  1  0.11857778  0.12019481  0.61878748  1
  O  O194  1  0.12645535  0.61941053  0.11620866  1
  O  O195  1  0.11837033  0.61990393  0.61739064  1
  O  O196  1  0.61805703  0.11829391  0.12514264  1
  O  O197  1  0.61760423  0.11871870  0.62511370  1
  O  O198  1  0.61958746  0.62051357  0.11904138  1
  O  O199  1  0.61497245  0.62620508  0.61992014  1
  O  O200  1  0.37903559  0.38009308  0.38065183  1
  O  O201  1  0.37972905  0.38019671  0.88063922  1
  O  O202  1  0.37933347  0.88054845  0.37995430  1
  O  O203  1  0.38134912  0.87771643  0.88531792  1
  O  O204  1  0.87939908  0.38121945  0.38019494  1
  O  O205  1  0.87866785  0.38301549  0.88264651  1
  O  O206  1  0.88043054  0.88008509  0.37920920  1
  O  O207  1  0.88267214  0.87759215  0.88073780  1
  O  O208  1  0.25491193  0.00504009  0.37050673  1
  O  O209  1  0.25142722  0.00104503  0.86169520  1
  O  O210  1  0.25485116  0.50519196  0.36988910  1
  O  O211  1  0.26201754  0.49980567  0.87354586  1
  O  O212  1  0.75549273  0.00747038  0.37001226  1
  O  O213  1  0.75612957  0.00463147  0.86858325  1
  O  O214  1  0.75480140  0.50595627  0.37002834  1
  O  O215  1  0.75881024  0.49999470  0.86764780  1
  O  O216  1  0.24623452  0.49316677  0.13085661  1
  O  O217  1  0.24167509  0.49366593  0.62453999  1
  O  O218  1  0.24971603  0.98859948  0.13179732  1
  O  O219  1  0.24416573  0.99551750  0.63141655  1
  O  O220  1  0.74409995  0.49463229  0.13171285  1
  O  O221  1  0.75138787  0.49509527  0.63539427  1
  O  O222  1  0.74432350  0.99870947  0.13107808  1
  O  O223  1  0.74592472  0.99589101  0.62915180  1
  O  O224  1  0.00767479  0.37530223  0.25770816  1
  O  O225  1  0.00459007  0.36915489  0.75512855  1
  O  O226  1  0.00521087  0.86956130  0.25379928  1
  O  O227  1  0.00168564  0.87416695  0.76191758  1
  O  O228  1  0.50402961  0.37017474  0.25567986  1
  O  O229  1  0.50069783  0.36685788  0.75709983  1
  O  O230  1  0.50655899  0.87474139  0.25769939  1
  O  O231  1  0.50143005  0.86641446  0.75555567  1
  O  O232  1  0.49344747  0.12940068  0.24633920  1
  O  O233  1  0.49338460  0.12998203  0.74391731  1
  O  O234  1  0.49531534  0.62417856  0.24127208  1
  O  O235  1  0.49938834  0.63463858  0.74254528  1
  O  O236  1  1.00206374  0.12552585  0.23817055  1
  O  O237  1  0.99544165  0.13010608  0.74466981  1
  O  O238  1  0.99239191  0.63160410  0.24896328  1
  O  O239  1  0.99613250  0.62736194  0.73996695  1
  O  O240  1  0.37052911  0.25360040  0.00651084  1
  O  O241  1  0.36814152  0.25563300  0.50602426  1
  O  O242  1  0.37535824  0.76255125  0.00202775  1
  O  O243  1  0.36591152  0.75675266  0.49981170  1
  O  O244  1  0.87286778  0.26348416  -0.00045039  1
  O  O245  1  0.87328515  0.25748532  0.50805452  1
  O  O246  1  0.87601662  0.75636648  0.00677039  1
  O  O247  1  0.86847410  0.75654636  0.50314456  1
  O  O248  1  0.12976289  0.24457290  0.49544658  1
  O  O249  1  0.13116495  0.24248330  0.99504927  1
  O  O250  1  0.12902952  0.74416241  0.49183881  1
  O  O251  1  0.12600420  0.74135473  0.99135705  1
  O  O252  1  0.62903204  0.24602690  0.49623852  1
  O  O253  1  0.62562230  0.24694295  0.98759394  1
  O  O254  1  0.63082311  0.74613609  0.49438193  1
  O  O255  1  0.62549689  0.74252708  0.99161172  1
  O  O256  1  0.49413930  0.24432069  0.13174940  1
  O  O257  1  0.49362366  0.24537635  0.63067702  1
  O  O258  1  0.50049471  0.73673174  0.12752044  1
  O  O259  1  0.49949398  0.74383959  0.63435207  1
  O  O260  1  0.99980865  0.23868067  0.12569483  1
  O  O261  1  0.99437422  0.24444488  0.63060963  1
  O  O262  1  0.98933641  0.74835167  0.13018468  1
  O  O263  1  0.99371440  0.74477912  0.62247807  1
  O  O264  1  0.00703044  0.25681259  0.37636376  1
  O  O265  1  0.00579494  0.25566007  0.86909235  1
  O  O266  1  0.00423104  0.75553793  0.36895788  1
  O  O267  1  0.00877401  0.75855594  0.87430016  1
  O  O268  1  0.49858388  0.25702382  0.36845304  1
  O  O269  1  0.50701355  0.25296253  0.87024878  1
  O  O270  1  0.50685513  0.75740992  0.37518385  1
  O  O271  1  0.50798831  0.75466768  0.86865455  1
  O  O272  1  0.24412232  0.13002731  0.49522728  1
  O  O273  1  0.24241446  0.12976598  1.00077015  1
  O  O274  1  0.24344108  0.62973577  0.49373000  1
  O  O275  1  0.23938099  0.62785188  0.99684433  1
  O  O276  1  0.74919878  0.12561495  0.48853480  1
  O  O277  1  0.74872936  0.12673425  0.99094070  1
  O  O278  1  0.74469489  0.63152301  0.49457182  1
  O  O279  1  0.73687593  0.62694664  0.99843863  1
  O  O280  1  0.25567749  0.36785261  0.00684831  1
  O  O281  1  0.25444346  0.36912935  0.50554897  1
  O  O282  1  0.25906631  0.87689429  0.00792010  1
  O  O283  1  0.25343503  0.87017219  0.50328613  1
  O  O284  1  0.75864920  0.37482569  0.00625493  1
  O  O285  1  0.75697870  0.37621153  0.50742869  1
  O  O286  1  0.76394768  0.87186884  -0.00027207  1
  O  O287  1  0.75540403  0.87099126  0.50387967  1
  O  O288  1  0.13206180  0.49459051  0.24537216  1
  O  O289  1  0.12374554  0.49285707  0.74294557  1
  O  O290  1  0.13290071  0.99100846  0.24883742  1
  O  O291  1  0.13391185  0.99966364  0.74352390  1
  O  O292  1  0.63047997  0.49472484  0.24484579  1
  O  O293  1  0.63709714  0.49910373  0.75145582  1
  O  O294  1  0.63043394  0.99423801  0.24497112  1
  O  O295  1  0.63201851  0.99858888  0.74348232  1
  O  O296  1  0.36962091  0.00516815  0.25664256  1
  O  O297  1  0.36512973  0.00538057  0.74825625  1
  O  O298  1  0.36896519  0.50468326  0.25601183  1
  O  O299  1  0.37288250  0.50030778  0.76224568  1
  O  O300  1  0.86936653  0.00143713  0.25598403  1
  O  O301  1  0.87016603  0.00580893  0.75465691  1
  O  O302  1  0.86897805  0.50503468  0.25537433  1
  O  O303  1  0.86716363  0.50052282  0.76053044  1
  O  O304  1  0.12003024  0.37059390  0.37090491  1
  O  O305  1  0.11983010  0.36996767  0.87050763  1
  O  O306  1  0.11932951  0.86846373  0.36833150  1
  O  O307  1  0.11672715  0.86730016  0.87728410  1
  O  O308  1  0.61805186  0.37587109  0.36853522  1
  O  O309  1  0.61944385  0.36521502  0.87453122  1
  O  O310  1  0.61974864  0.87126084  0.37086172  1
  O  O311  1  0.61969489  0.86458766  0.87547980  1
  O  O312  1  0.37979334  0.12941182  0.13212378  1
  O  O313  1  0.37979925  0.13157907  0.62979561  1
  O  O314  1  0.38401644  0.62356117  0.12861127  1
  O  O315  1  0.38571203  0.62893126  0.62620614  1
  O  O316  1  0.88748531  0.12560429  0.12243659  1
  O  O317  1  0.88054483  0.12976297  0.63087076  1
  O  O318  1  0.87539585  0.63300528  0.12938707  1
  O  O319  1  0.88123849  0.63259707  0.62258124  1
  O  O320  1  0.25625642  0.25473645  0.12077392  1
  O  O321  1  0.25444517  0.25545665  0.61955156  1
  O  O322  1  0.25316073  0.76244083  0.12277162  1
  O  O323  1  0.24808226  0.75623264  0.61736329  1
  O  O324  1  0.75146464  0.25804343  0.12303010  1
  O  O325  1  0.75737798  0.25672900  0.62728244  1
  O  O326  1  0.76278868  0.75295707  0.12308979  1
  O  O327  1  0.75414582  0.75593000  0.61894243  1
  O  O328  1  0.24447037  0.24441464  0.38122494  1
  O  O329  1  0.24356031  0.24849611  0.88195617  1
  O  O330  1  0.24327789  0.74390508  0.37889802  1
  O  O331  1  0.23844739  0.75238960  0.87783221  1
  O  O332  1  0.74989999  0.23884097  0.37597805  1
  O  O333  1  0.74094448  0.24490603  0.87420668  1
  O  O334  1  0.74478830  0.74510633  0.38052573  1
  O  O335  1  0.73858348  0.74761243  0.87430703  1
  O  O336  1  0.01068424  0.12541537  0.00598322  1
  O  O337  1  0.00458960  0.11959529  0.50502007  1
  O  O338  1  0.01425284  0.62145935  0.00272046  1
  O  O339  1  0.00492373  0.61922213  0.50277702  1
  O  O340  1  0.50018269  0.11750921  0.00860485  1
  O  O341  1  0.49810059  0.11808713  0.50695312  1
  O  O342  1  0.51063815  0.62361221  0.00898350  1
  O  O343  1  0.50476207  0.62699309  0.51020419  1
  O  O344  1  0.49209924  0.37643905  0.49524804  1
  O  O345  1  0.49301006  0.37495300  0.99410747  1
  O  O346  1  0.49369807  0.88083513  0.49510701  1
  O  O347  1  0.49320589  0.87966040  0.99718629  1
  O  O348  1  0.99397190  0.38118951  0.49485959  1
  O  O349  1  0.99106720  0.37641941  0.99417480  1
  O  O350  1  0.99482162  0.88066432  0.49244459  1
  O  O351  1  0.99156039  0.87492293  0.99014804  1
  O  O352  1  0.49241394  0.49361685  0.37693177  1
  O  O353  1  0.49128396  0.49285763  0.87605821  1
  O  O354  1  0.49372416  0.99522292  0.38059205  1
  O  O355  1  0.50053290  0.99337550  0.88149567  1
  O  O356  1  0.99387661  0.49476532  0.38013780  1
  O  O357  1  0.98973660  0.49373576  0.87563956  1
  O  O358  1  0.99591781  0.99455142  0.37942894  1
  O  O359  1  0.99506176  0.99063763  0.87586114  1
  O  O360  1  0.00462131  0.01012451  0.12017690  1
  O  O361  1  0.00391707  0.00532332  0.61912872  1
  O  O362  1  0.00989325  0.50239066  0.12310587  1
  O  O363  1  0.00382238  0.50481277  0.61827168  1
  O  O364  1  0.50581971  0.00488635  0.12132365  1
  O  O365  1  0.50414260  0.00477719  0.62059990  1
  O  O366  1  0.50633178  0.50961630  0.12374204  1
  O  O367  1  0.50118673  0.51257204  0.62681005  1
  O  O368  1  0.24522099  0.38003205  0.24559531  1
  O  O369  1  0.24180677  0.37576964  0.74253616  1
  O  O370  1  0.24623219  0.87815241  0.24311539  1
  O  O371  1  0.24908677  0.88487693  0.74317740  1
  O  O372  1  0.74450159  0.38095578  0.24572967  1
  O  O373  1  0.75051521  0.38559630  0.74472196  1
  O  O374  1  0.74329154  0.88264167  0.24933605  1
  O  O375  1  0.74891969  0.88251477  0.74233986  1
  O  O376  1  0.25466615  0.11948851  0.25563086  1
  O  O377  1  0.25485953  0.11570269  0.74832783  1
  O  O378  1  0.25531895  0.61907615  0.25471147  1
  O  O379  1  0.25407392  0.62221260  0.75375850  1
  O  O380  1  0.75174766  0.11821137  0.25918668  1
  O  O381  1  0.75725662  0.11938808  0.75527365  1
  O  O382  1  0.75455203  0.61946831  0.25564877  1
  O  O383  1  0.75364585  0.61458026  0.75205596  1
  O  O384  1  0.36827636  0.11961350  0.37078179  1
  O  O385  1  0.37207147  0.12160386  0.86679413  1
  O  O386  1  0.36933124  0.61957947  0.37028987  1
  O  O387  1  0.37587192  0.61394810  0.87670692  1
  O  O388  1  0.86731431  0.11825251  0.37437491  1
  O  O389  1  0.87205765  0.12009246  0.86964550  1
  O  O390  1  0.86832989  0.62003738  0.36941040  1
  O  O391  1  0.87432751  0.61394804  0.87758106  1
  O  O392  1  0.13170070  0.37898314  0.12984892  1
  O  O393  1  0.12827108  0.38000090  0.62924202  1
  O  O394  1  0.13373024  0.87430991  0.12842243  1
  O  O395  1  0.13010924  0.88222196  0.62495489  1
  O  O396  1  0.62882345  0.38037790  0.13042451  1
  O  O397  1  0.63298004  0.37856301  0.62940441  1
  O  O398  1  0.62660049  0.88082091  0.13154882  1
  O  O399  1  0.63195793  0.88207758  0.62588127  1
  O  O400  1  0.12488381  0.25710260  0.25763601  1
  O  O401  1  0.11910828  0.25515220  0.75445997  1
  O  O402  1  0.11959455  0.75387974  0.25411799  1
  O  O403  1  0.12178698  0.75293751  0.76142586  1
  O  O404  1  0.61697870  0.25751159  0.25263797  1
  O  O405  1  0.61842957  0.25043332  0.76143013  1
  O  O406  1  0.62437251  0.75654818  0.25743462  1
  O  O407  1  0.61551198  0.75049204  0.75937393  1
  O  O408  1  0.37915851  0.24424753  0.24520261  1
  O  O409  1  0.37896776  0.24521593  0.74436089  1
  O  O410  1  0.37896533  0.74057450  0.24742181  1
  O  O411  1  0.38724384  0.74956731  0.75145110  1
  O  O412  1  0.88137710  0.24577651  0.24542628  1
  O  O413  1  0.88117115  0.24495754  0.74625024  1
  O  O414  1  0.87881184  0.74577238  0.24242116  1
  O  O415  1  0.87751442  0.74848344  0.74077151  1
  O  O416  1  0.37548573  0.49364681  0.49376256  1
  O  O417  1  0.37678294  0.49191623  0.99131734  1
  O  O418  1  0.37893976  0.99414796  0.49487561  1
  O  O419  1  0.38177409  0.98954399  1.00028417  1
  O  O420  1  0.87957644  0.49533657  0.49392786  1
  O  O421  1  0.87469148  0.49112132  0.99199395  1
  O  O422  1  0.88119988  0.99434541  0.49395843  1
  O  O423  1  0.87768436  0.98928137  0.99252240  1
  O  O424  1  0.12548554  0.01184783  0.00026198  1
  O  O425  1  0.11922340  0.00560178  0.50407706  1
  O  O426  1  0.12634792  0.50742864  0.00487852  1
  O  O427  1  0.11841622  0.50501305  0.50432881  1
  O  O428  1  0.61926799  -0.00007500  0.00704830  1
  O  O429  1  0.61697609  0.00272412  0.50702170  1
  O  O430  1  0.62383354  0.50862516  0.00512894  1
  O  O431  1  0.62163915  0.51028358  0.50416472  1
  O  O432  1  0.37034938  0.36939700  0.12118840  1
  O  O433  1  0.36914712  0.37009002  0.62050130  1
  O  O434  1  0.36856233  0.87416621  0.11818603  1
  O  O435  1  0.36709327  0.87251763  0.61733227  1
  O  O436  1  0.86973746  0.37747773  0.11583060  1
  O  O437  1  0.87071888  0.37041230  0.62047292  1
  O  O438  1  0.87678562  0.86715989  0.11559716  1
  O  O439  1  0.86977255  0.87093118  0.61739608  1
  O  O440  1  0.12998415  0.12961900  0.38045088  1
  O  O441  1  0.12591362  0.13148862  0.88415542  1
  O  O442  1  0.13001946  0.62892182  0.37878404  1
  O  O443  1  0.12447307  0.63293607  0.88221392  1
  O  O444  1  0.63659403  0.12551223  0.37617559  1
  O  O445  1  0.63078717  0.13392955  0.87555232  1
  O  O446  1  0.62986408  0.63069882  0.38005356  1
  O  O447  1  0.62234255  0.63341243  0.88397721  1
