# generated using pymatgen
data_V3Zn3O8
_symmetry_space_group_name_H-M   'P 1'
_cell_length_a   17.08372736
_cell_length_b   17.08591127
_cell_length_c   17.08499550
_cell_angle_alpha   89.98305188
_cell_angle_beta   89.98696903
_cell_angle_gamma   89.98768245
_symmetry_Int_Tables_number   1
_chemical_formula_structural   V3Zn3O8
_chemical_formula_sum   'V96 Zn96 O256'
_cell_volume   4986.95680852
_cell_formula_units_Z   32
loop_
 _symmetry_equiv_pos_site_id
 _symmetry_equiv_pos_as_xyz
  1  'x, y, z'
loop_
 _atom_site_type_symbol
 _atom_site_label
 _atom_site_symmetry_multiplicity
 _atom_site_fract_x
 _atom_site_fract_y
 _atom_site_fract_z
 _atom_site_occupancy
  V  V0  1  0.87610581  0.62624046  0.25018350  1
  V  V1  1  0.62483981  0.75186341  0.87538677  1
  V  V2  1  0.12596098  0.75026080  0.37473078  1
  V  V3  1  0.12591240  0.74957147  0.87485853  1
  V  V4  1  0.62473987  0.24898677  0.37562459  1
  V  V5  1  0.12350217  0.12448767  0.50050994  1
  V  V6  1  0.75044316  0.87458975  0.12565739  1
  V  V7  1  0.25015165  0.37458362  0.12395369  1
  V  V8  1  0.12485101  0.50017925  0.12349728  1
  V  V9  1  0.12468032  0.24950104  0.37467561  1
  V  V10  1  0.50018975  0.12359081  0.62481490  1
  V  V11  1  0.37511759  0.49891851  0.37373145  1
  V  V12  1  0.12548956  0.62542288  0.49961901  1
  V  V13  1  0.87506515  0.25105418  0.12485834  1
  V  V14  1  0.37335996  0.24912166  0.62409244  1
  V  V15  1  0.75013915  0.50022629  0.25019045  1
  V  V16  1  0.24934247  0.12587051  0.87441892  1
  V  V17  1  0.49782685  0.37405027  0.37604208  1
  V  V18  1  0.50078431  0.50108059  0.50125860  1
  V  V19  1  0.00023592  0.87557130  0.37564725  1
  V  V20  1  0.49870355  -0.00167477  0.00003475  1
  V  V21  1  0.25071031  0.74973260  0.49998993  1
  V  V22  1  0.12488313  0.00062973  0.12405363  1
  V  V23  1  0.25000260  -0.00032735  0.25014902  1
  V  V24  1  0.24868688  0.12351004  0.37484018  1
  V  V25  1  0.37513777  0.12447289  0.74972807  1
  V  V26  1  0.49995248  0.49976701  -0.00024642  1
  V  V27  1  0.87359411  0.00121114  0.37350927  1
  V  V28  1  0.00007361  0.12561238  0.12441741  1
  V  V29  1  0.50061243  0.74965863  0.25043824  1
  V  V30  1  0.87485899  0.37493423  0.50043488  1
  V  V31  1  0.00109601  0.50133227  0.50009974  1
  V  V32  1  0.12503015  0.00068534  0.62501197  1
  V  V33  1  0.37430752  -0.00081803  0.37533260  1
  V  V34  1  0.25099481  0.87407979  0.12370870  1
  V  V35  1  0.12475523  0.37629024  0.74816218  1
  V  V36  1  0.87531448  0.75039617  0.12575098  1
  V  V37  1  0.87463413  0.50042657  0.87530771  1
  V  V38  1  0.50034176  0.62467343  0.12519490  1
  V  V39  1  0.74879304  0.49960041  0.75010314  1
  V  V40  1  0.74995386  0.62551876  0.37677890  1
  V  V41  1  0.12487166  0.37571279  0.24904958  1
  V  V42  1  0.87530932  0.50103602  0.37499842  1
  V  V43  1  0.25026092  0.24977794  0.50075694  1
  V  V44  1  0.75000103  0.12456578  0.87614895  1
  V  V45  1  0.62411274  0.87473284  0.25165209  1
  V  V46  1  0.37532272  0.49946727  0.87521544  1
  V  V47  1  -0.00046926  0.25011596  0.24871673  1
  V  V48  1  0.12497572  0.87531405  0.74989398  1
  V  V49  1  0.74996803  0.25071910  0.50065649  1
  V  V50  1  0.00011100  0.62595799  0.62491597  1
  V  V51  1  0.87543038  0.00112908  0.87665507  1
  V  V52  1  -0.00002035  0.87656419  0.87510821  1
  V  V53  1  0.87523407  0.62580727  0.75009003  1
  V  V54  1  0.49915157  0.24897610  0.25030593  1
  V  V55  1  0.37474588  0.87366672  0.50033004  1
  V  V56  1  0.62508436  0.37637317  0.74939860  1
  V  V57  1  0.62579698  0.49978606  0.12602056  1
  V  V58  1  0.24985189  0.62466560  0.87409267  1
  V  V59  1  0.74931929  0.74975783  0.49992470  1
  V  V60  1  0.25069004  0.50012355  0.24977853  1
  V  V61  1  0.12525055  0.62457416  -0.00141046  1
  V  V62  1  0.49997541  0.24978741  0.74997978  1
  V  V63  1  -0.00065741  0.37563370  0.87428660  1
  V  V64  1  0.87414401  0.12641554  0.75038804  1
  V  V65  1  0.00028262  0.50124160  -0.00008084  1
  V  V66  1  0.25078093  0.87382019  0.62483990  1
  V  V67  1  0.74865914  0.00086374  0.25071971  1
  V  V68  1  0.00109226  0.00106451  0.00013944  1
  V  V69  1  0.37423359  0.74996977  0.12358604  1
  V  V70  1  0.37460873  0.24835896  0.12511923  1
  V  V71  1  0.62412437  0.00063134  0.12594133  1
  V  V72  1  0.25152990  0.50009663  0.74750528  1
  V  V73  1  0.12560230  0.24986162  0.87558456  1
  V  V74  1  0.25085614  -0.00074731  0.75041837  1
  V  V75  1  -0.00168586  0.12587969  0.62540720  1
  V  V76  1  0.62510825  0.74950917  0.37541922  1
  V  V77  1  0.75069293  0.62602321  0.87533658  1
  V  V78  1  0.00029419  0.75005361  0.24934048  1
  V  V79  1  -0.00048552  0.75022277  0.74968901  1
  V  V80  1  0.49914805  -0.00115731  0.50015956  1
  V  V81  1  0.75047285  0.87538264  0.62669251  1
  V  V82  1  0.37580635  -0.00066957  0.87546953  1
  V  V83  1  0.37562712  0.37492444  -0.00039917  1
  V  V84  1  0.50052982  0.74886953  0.74936305  1
  V  V85  1  0.37494943  0.62357498  0.24914140  1
  V  V86  1  0.62525010  0.12481060  0.00039187  1
  V  V87  1  0.62573253  0.62534983  0.00102201  1
  V  V88  1  0.87385305  0.37575281  -0.00006932  1
  V  V89  1  0.62577262  0.00031465  0.62566387  1
  V  V90  1  0.87524096  0.87555740  0.50032094  1
  V  V91  1  0.00027468  0.37535224  0.37477860  1
  V  V92  1  0.75087612  0.75091448  0.00122990  1
  V  V93  1  0.12513140  0.87451229  0.24933248  1
  V  V94  1  0.62443735  0.24862413  0.87571461  1
  V  V95  1  0.75048866  0.37575394  0.12495180  1
  Zn  Zn96  1  0.62685250  0.50086473  0.62274964  1
  Zn  Zn97  1  0.12697060  0.12629453  0.00006601  1
  Zn  Zn98  1  -0.00051742  -0.00007177  0.49903645  1
  Zn  Zn99  1  0.49955882  0.87445478  0.37586367  1
  Zn  Zn100  1  0.62586963  0.62412100  0.50300648  1
  Zn  Zn101  1  0.75041573  0.12580542  0.37401181  1
  Zn  Zn102  1  0.37404545  0.12291541  0.25005475  1
  Zn  Zn103  1  0.62595413  0.12506990  0.50035690  1
  Zn  Zn104  1  0.37208461  0.37533405  0.50170970  1
  Zn  Zn105  1  0.49923149  0.37431739  0.87501530  1
  Zn  Zn106  1  0.62576726  0.37513387  0.24913577  1
  Zn  Zn107  1  0.74868212  -0.00079569  0.75207060  1
  Zn  Zn108  1  0.25110862  0.24941675  -0.00050391  1
  Zn  Zn109  1  0.12664696  0.49949680  0.62235376  1
  Zn  Zn110  1  0.49993733  0.87423670  0.87403304  1
  Zn  Zn111  1  0.87279313  0.12675701  0.24935228  1
  Zn  Zn112  1  0.50133054  0.62384950  0.62589912  1
  Zn  Zn113  1  0.87451023  0.75122410  0.62543754  1
  Zn  Zn114  1  0.25167058  0.75074781  -0.00179262  1
  Zn  Zn115  1  0.25036426  0.62451329  0.37524060  1
  Zn  Zn116  1  0.87607310  0.87532747  0.00060200  1
  Zn  Zn117  1  0.00087622  0.62587186  0.12461750  1
  Zn  Zn118  1  0.62568310  0.87542766  0.75318143  1
  Zn  Zn119  1  0.37397902  0.87228418  -0.00203541  1
  Zn  Zn120  1  -0.00209991  0.25283822  0.74940466  1
  Zn  Zn121  1  0.87396694  0.25130684  0.62552250  1
  Zn  Zn122  1  0.37782738  0.74681896  0.62494256  1
  Zn  Zn123  1  0.37681683  0.62490312  0.74774654  1
  Zn  Zn124  1  0.74868982  0.25032475  0.00175518  1
  Zn  Zn125  1  0.25014397  0.37496472  0.62257933  1
  Zn  Zn126  1  0.75243224  0.37594147  0.62593209  1
  Zn  Zn127  1  0.49932145  0.12408115  0.12644541  1
  Zn  Zn128  1  0.18705188  0.18648652  0.18804847  1
  Zn  Zn129  1  0.18741440  0.18785368  0.68830753  1
  Zn  Zn130  1  0.18854681  0.68641394  0.18566547  1
  Zn  Zn131  1  0.18690063  0.68733730  0.68565014  1
  Zn  Zn132  1  0.68782600  0.18642460  0.18743678  1
  Zn  Zn133  1  0.68791368  0.18805916  0.68735835  1
  Zn  Zn134  1  0.68834465  0.68721220  0.18921122  1
  Zn  Zn135  1  0.68360336  0.68593031  0.68615409  1
  Zn  Zn136  1  0.31195759  0.31279101  0.31309717  1
  Zn  Zn137  1  0.31251787  0.31320059  0.81182387  1
  Zn  Zn138  1  0.31327488  0.81217532  0.31258871  1
  Zn  Zn139  1  0.31530668  0.81252282  0.81278409  1
  Zn  Zn140  1  0.81294686  0.31415871  0.31210277  1
  Zn  Zn141  1  0.80968899  0.31085028  0.81459641  1
  Zn  Zn142  1  0.81166812  0.81349164  0.31266038  1
  Zn  Zn143  1  0.81367359  0.81308947  0.81293058  1
  Zn  Zn144  1  0.18846848  0.43723247  0.43688491  1
  Zn  Zn145  1  0.18948553  0.43711545  0.93668520  1
  Zn  Zn146  1  0.18741610  0.93726348  0.43866808  1
  Zn  Zn147  1  0.18794082  0.93726909  0.93880035  1
  Zn  Zn148  1  0.68609894  0.43532711  0.43575062  1
  Zn  Zn149  1  0.68677922  0.43714359  0.93687331  1
  Zn  Zn150  1  0.68694242  0.93579058  0.43869039  1
  Zn  Zn151  1  0.68770378  0.93737710  0.93904803  1
  Zn  Zn152  1  0.31120605  0.06360690  0.06092038  1
  Zn  Zn153  1  0.31202952  0.06221681  0.56199071  1
  Zn  Zn154  1  0.31190912  0.56303403  0.06130539  1
  Zn  Zn155  1  0.31664431  0.56533036  0.56324112  1
  Zn  Zn156  1  0.81299184  0.06312638  0.06282284  1
  Zn  Zn157  1  0.81157530  0.06354296  0.55984712  1
  Zn  Zn158  1  0.81327629  0.56383328  0.06359481  1
  Zn  Zn159  1  0.81255383  0.56210713  0.56499751  1
  Zn  Zn160  1  0.43842601  0.43526877  0.18702604  1
  Zn  Zn161  1  0.43701579  0.43438150  0.68525402  1
  Zn  Zn162  1  0.43695996  0.93530954  0.18751317  1
  Zn  Zn163  1  0.43868145  0.93309886  0.68809231  1
  Zn  Zn164  1  0.93778675  0.43848822  0.18676746  1
  Zn  Zn165  1  0.93693295  0.43959270  0.68521561  1
  Zn  Zn166  1  0.93730434  0.93717872  0.18758277  1
  Zn  Zn167  1  0.93696811  0.94022318  0.68883691  1
  Zn  Zn168  1  0.06091126  0.06269126  0.31050062  1
  Zn  Zn169  1  0.06172611  0.06309399  0.81144162  1
  Zn  Zn170  1  0.06336238  0.56387711  0.31261943  1
  Zn  Zn171  1  0.06271891  0.56252066  0.81236054  1
  Zn  Zn172  1  0.56143470  0.06332748  0.31424363  1
  Zn  Zn173  1  0.56221527  0.06254266  0.81282011  1
  Zn  Zn174  1  0.56323282  0.56308158  0.31427735  1
  Zn  Zn175  1  0.56245274  0.56398257  0.81437984  1
  Zn  Zn176  1  0.43579468  0.18420409  0.43907288  1
  Zn  Zn177  1  0.43894892  0.18602111  0.93750269  1
  Zn  Zn178  1  0.43705859  0.68561496  0.43601958  1
  Zn  Zn179  1  0.43685166  0.68601875  0.93561521  1
  Zn  Zn180  1  0.93675390  0.18706335  0.43702411  1
  Zn  Zn181  1  0.93899089  0.18872088  0.93916987  1
  Zn  Zn182  1  0.93697892  0.68971232  0.43825825  1
  Zn  Zn183  1  0.93806619  0.68869636  0.93803404  1
  Zn  Zn184  1  0.06134471  0.31370093  0.06080432  1
  Zn  Zn185  1  0.06167836  0.31128013  0.56206907  1
  Zn  Zn186  1  0.06307975  0.81239013  0.06102070  1
  Zn  Zn187  1  0.06255734  0.81197661  0.56238761  1
  Zn  Zn188  1  0.56230763  0.31353772  0.06257700  1
  Zn  Zn189  1  0.56076411  0.31484366  0.56328728  1
  Zn  Zn190  1  0.56267035  0.81326300  0.06367394  1
  Zn  Zn191  1  0.56341981  0.81290444  0.56290143  1
  O  O192  1  0.11884047  0.11892320  0.12343309  1
  O  O193  1  0.11688541  0.12047091  0.62183903  1
  O  O194  1  0.12379989  0.61741700  0.11766842  1
  O  O195  1  0.11750209  0.62342363  0.61765319  1
  O  O196  1  0.62231718  0.11811151  0.11910599  1
  O  O197  1  0.61981712  0.11586594  0.62434451  1
  O  O198  1  0.62036380  0.61975426  0.12040324  1
  O  O199  1  0.62000589  0.61860409  0.62047658  1
  O  O200  1  0.38088713  0.38087635  0.37584788  1
  O  O201  1  0.37591629  0.38095742  0.88158751  1
  O  O202  1  0.37571051  0.88193939  0.38199031  1
  O  O203  1  0.37768442  0.88466426  0.87826582  1
  O  O204  1  0.88154614  0.38167321  0.37997375  1
  O  O205  1  0.87946584  0.38061560  0.87944271  1
  O  O206  1  0.87964366  0.88312334  0.37936200  1
  O  O207  1  0.88228360  0.88290198  0.87555008  1
  O  O208  1  0.25362483  0.00416697  0.36979311  1
  O  O209  1  0.25468589  0.00562097  0.86896875  1
  O  O210  1  0.25642868  0.50019264  0.36678274  1
  O  O211  1  0.25474199  0.50417280  0.86631969  1
  O  O212  1  0.75833449  -0.00051533  0.37047582  1
  O  O213  1  0.75634017  0.00652984  0.87390236  1
  O  O214  1  0.75616727  0.50445116  0.37005093  1
  O  O215  1  0.75560678  0.50678383  0.87094389  1
  O  O216  1  0.24479901  0.49377279  0.13012161  1
  O  O217  1  0.24807364  0.49804440  0.63586178  1
  O  O218  1  0.24483661  0.99548479  0.13047207  1
  O  O219  1  0.24433738  0.99496250  0.63117175  1
  O  O220  1  0.74542926  0.49628028  0.13076651  1
  O  O221  1  0.74848820  0.49608074  0.63445158  1
  O  O222  1  0.74421293  0.99453702  0.13050466  1
  O  O223  1  0.74221939  0.99286085  0.62394148  1
  O  O224  1  0.00558445  0.37069657  0.25523760  1
  O  O225  1  0.00866101  0.37632314  0.75574635  1
  O  O226  1  0.00606768  0.86952235  0.25564214  1
  O  O227  1  0.00563071  0.87116736  0.75465871  1
  O  O228  1  0.50108625  0.36339586  0.25574825  1
  O  O229  1  0.50877989  0.36872474  0.75230890  1
  O  O230  1  0.50694800  0.86742692  0.25138440  1
  O  O231  1  0.50459557  0.86410157  0.75299324  1
  O  O232  1  0.49657790  0.13783830  0.24944215  1
  O  O233  1  0.49436569  0.12958765  0.74410033  1
  O  O234  1  0.49512686  0.62934046  0.24369042  1
  O  O235  1  0.49969628  0.63602296  0.75111846  1
  O  O236  1  0.99879361  0.13290718  0.24262804  1
  O  O237  1  0.99133774  0.12654848  0.74196376  1
  O  O238  1  0.99383663  0.63237494  0.24942729  1
  O  O239  1  0.99521424  0.62989497  0.74574066  1
  O  O240  1  0.37643190  0.25514994  0.00971762  1
  O  O241  1  0.36772151  0.24884329  0.50618503  1
  O  O242  1  0.37371854  0.75061607  0.00785773  1
  O  O243  1  0.36888074  0.75598827  0.49934022  1
  O  O244  1  0.87431242  0.25849673  0.00653188  1
  O  O245  1  0.86541816  0.25621198  0.49756683  1
  O  O246  1  0.86864473  0.75139651  0.00681346  1
  O  O247  1  0.86773595  0.75815115  0.50201819  1
  O  O248  1  0.12901015  0.24358028  0.49364787  1
  O  O249  1  0.12705566  0.25215888  0.98600456  1
  O  O250  1  0.13041963  0.74577246  0.49386763  1
  O  O251  1  0.12595524  0.74290259  0.99202157  1
  O  O252  1  0.63210727  0.25166854  0.49204778  1
  O  O253  1  0.62392760  0.24309013  0.99427564  1
  O  O254  1  0.63189946  0.74984354  0.49265011  1
  O  O255  1  0.63061288  0.74410868  0.99660565  1
  O  O256  1  0.49173503  0.25058273  0.13415716  1
  O  O257  1  0.49466057  0.24314836  0.63021675  1
  O  O258  1  0.49591061  0.74352257  0.13067583  1
  O  O259  1  0.50177723  0.74998068  0.63708796  1
  O  O260  1  0.99547908  0.24675207  0.12939607  1
  O  O261  1  0.99852989  0.23702282  0.62761522  1
  O  O262  1  0.99424310  0.74957231  0.13173424  1
  O  O263  1  0.99828035  0.74485330  0.63237158  1
  O  O264  1  0.00539105  0.25543891  0.36974649  1
  O  O265  1  0.00914875  0.25678200  0.87266941  1
  O  O266  1  0.00552983  0.75678170  0.36935081  1
  O  O267  1  0.00574254  0.75628002  0.86906619  1
  O  O268  1  0.50487696  0.25305576  0.36967439  1
  O  O269  1  0.50620197  0.24973751  0.86709540  1
  O  O270  1  0.50662816  0.75025610  0.36741413  1
  O  O271  1  0.50753217  0.75028850  0.86883341  1
  O  O272  1  0.24248863  0.12942250  0.49441109  1
  O  O273  1  0.24653381  0.12917810  0.99053295  1
  O  O274  1  0.24354360  0.63131116  0.49832341  1
  O  O275  1  0.24247180  0.62469542  0.99173234  1
  O  O276  1  0.74814609  0.13771487  0.49590511  1
  O  O277  1  0.74278491  0.12606360  0.99409502  1
  O  O278  1  0.75139988  0.63151309  0.49360531  1
  O  O279  1  0.74513365  0.63075707  0.99523017  1
  O  O280  1  0.25738533  0.37337326  0.00664066  1
  O  O281  1  0.24983329  0.36576214  0.50232904  1
  O  O282  1  0.25195821  0.87254002  0.00850785  1
  O  O283  1  0.25432594  0.86986422  0.50601352  1
  O  O284  1  0.75669110  0.37527485  0.00657620  1
  O  O285  1  0.75596661  0.36643499  0.49970195  1
  O  O286  1  0.75166097  0.86835883  0.00825874  1
  O  O287  1  0.75529646  0.87019743  0.50850223  1
  O  O288  1  0.12962096  0.49459495  0.24431806  1
  O  O289  1  0.13344207  0.49097878  0.75125314  1
  O  O290  1  0.12981403  0.99358604  0.24436459  1
  O  O291  1  0.13087526  0.99498303  0.74507127  1
  O  O292  1  0.63161620  0.49907848  0.24407556  1
  O  O293  1  0.62991377  0.49022869  0.75354810  1
  O  O294  1  0.62832641  0.99513705  0.24610922  1
  O  O295  1  0.62610386  0.99877261  0.73733571  1
  O  O296  1  0.36816901  0.00034647  0.25622093  1
  O  O297  1  0.37053997  0.00512042  0.75464328  1
  O  O298  1  0.37073601  0.50380478  0.25286064  1
  O  O299  1  0.36508506  0.49698114  0.75561498  1
  O  O300  1  0.86816164  -0.00127027  0.25952748  1
  O  O301  1  0.87436726  0.01233727  0.75705538  1
  O  O302  1  0.87066104  0.50588382  0.25562001  1
  O  O303  1  0.86981663  0.50550289  0.75705239  1
  O  O304  1  0.11934888  0.36922330  0.36859232  1
  O  O305  1  0.12068090  0.36916705  0.86684531  1
  O  O306  1  0.12006822  0.87065606  0.36926262  1
  O  O307  1  0.12016040  0.87049423  0.86842249  1
  O  O308  1  0.61782768  0.36302555  0.37159707  1
  O  O309  1  0.62364944  0.36833714  0.86600157  1
  O  O310  1  0.62379520  0.86805161  0.36862391  1
  O  O311  1  0.62445205  0.86655180  0.87399178  1
  O  O312  1  0.37583309  0.13705067  0.12739608  1
  O  O313  1  0.38017369  0.12842948  0.63122241  1
  O  O314  1  0.38118657  0.62893785  0.12974965  1
  O  O315  1  0.38226062  0.62912277  0.63016857  1
  O  O316  1  0.88188367  0.13254644  0.12658893  1
  O  O317  1  0.88205938  0.12447155  0.63238540  1
  O  O318  1  0.87695517  0.63202950  0.13253769  1
  O  O319  1  0.88182588  0.62764463  0.63268084  1
  O  O320  1  0.25877663  0.25586786  0.12544147  1
  O  O321  1  0.25537070  0.24828702  0.61865834  1
  O  O322  1  0.25632464  0.75605585  0.12383949  1
  O  O323  1  0.25020323  0.75741849  0.61847558  1
  O  O324  1  0.75630274  0.25731807  0.12456169  1
  O  O325  1  0.75077854  0.25230346  0.61252602  1
  O  O326  1  0.75507980  0.75482615  0.12108382  1
  O  O327  1  0.75005294  0.76096333  0.62008656  1
  O  O328  1  0.24336470  0.24388327  0.37914931  1
  O  O329  1  0.24118590  0.24485784  0.87416920  1
  O  O330  1  0.24293242  0.74926266  0.38117876  1
  O  O331  1  0.24323369  0.74314101  0.87374863  1
  O  O332  1  0.74107541  0.25156949  0.38157812  1
  O  O333  1  0.74237642  0.24211449  0.87887816  1
  O  O334  1  0.74527141  0.74520610  0.37979987  1
  O  O335  1  0.74593306  0.74501533  0.88101630  1
  O  O336  1  0.00380355  0.11929011  0.00638570  1
  O  O337  1  0.00423097  0.12388697  0.50938136  1
  O  O338  1  0.00686134  0.61822715  -0.00002670  1
  O  O339  1  0.00477238  0.62116115  0.50441988  1
  O  O340  1  0.50603626  0.11350307  0.00157345  1
  O  O341  1  0.50157272  0.11715171  0.50827720  1
  O  O342  1  0.50642748  0.61943519  0.00625993  1
  O  O343  1  0.50208224  0.61150578  0.49723995  1
  O  O344  1  0.49685406  0.38269977  0.49306032  1
  O  O345  1  0.49377888  0.38240676  0.99873442  1
  O  O346  1  0.49300091  0.88142551  0.49910886  1
  O  O347  1  0.49966911  0.88840741  0.99957184  1
  O  O348  1  0.99611895  0.38017951  0.49373547  1
  O  O349  1  0.99402397  0.38220623  0.99343842  1
  O  O350  1  0.99402572  0.87704486  0.49390712  1
  O  O351  1  0.99934505  0.88213628  0.99248538  1
  O  O352  1  0.49521859  0.49339735  0.37995086  1
  O  O353  1  0.49338305  0.49955266  0.88293271  1
  O  O354  1  0.49336395  0.99901019  0.38207129  1
  O  O355  1  0.49515087  0.99995951  0.88411315  1
  O  O356  1  0.99488547  0.49490958  0.37966650  1
  O  O357  1  0.99416012  0.49498406  0.87995366  1
  O  O358  1  0.99036610  0.99380836  0.37412053  1
  O  O359  1  0.99597749  0.99618473  0.87986645  1
  O  O360  1  0.00518561  0.00477580  0.12081024  1
  O  O361  1  0.00557503  0.01081507  0.62459493  1
  O  O362  1  0.00708936  0.50101129  0.11786275  1
  O  O363  1  0.00245103  0.50779030  0.61752073  1
  O  O364  1  0.50489592  0.00139955  0.11761909  1
  O  O365  1  0.50764314  0.00320093  0.62076697  1
  O  O366  1  0.50561481  0.50512054  0.12022046  1
  O  O367  1  0.50080371  0.49705993  0.61184302  1
  O  O368  1  0.24381483  0.38000210  0.24406613  1
  O  O369  1  0.24059918  0.38373878  0.75036698  1
  O  O370  1  0.24382791  0.88026054  0.24429432  1
  O  O371  1  0.24428633  0.88038619  0.74516146  1
  O  O372  1  0.74953138  0.38319711  0.24330022  1
  O  O373  1  0.74121535  0.38005868  0.75169285  1
  O  O374  1  0.74326050  0.88047345  0.24487145  1
  O  O375  1  0.74971815  0.87797181  0.73850708  1
  O  O376  1  0.24946077  0.11748747  0.25746738  1
  O  O377  1  0.25547528  0.11847385  0.75461598  1
  O  O378  1  0.25671999  0.61704690  0.25001834  1
  O  O379  1  0.24737290  0.61352230  0.75510836  1
  O  O380  1  0.75237429  0.11679615  0.25362641  1
  O  O381  1  0.75937118  0.12343630  0.75508541  1
  O  O382  1  0.75677050  0.61968750  0.25650239  1
  O  O383  1  0.75533181  0.62050179  0.75660593  1
  O  O384  1  0.36601299  0.11733874  0.37409301  1
  O  O385  1  0.36942320  0.11983602  0.86841878  1
  O  O386  1  0.37328639  0.61707241  0.36568388  1
  O  O387  1  0.36731974  0.61651301  0.87203218  1
  O  O388  1  0.87468022  0.11253425  0.37238247  1
  O  O389  1  0.87150591  0.12163636  0.86846552  1
  O  O390  1  0.87011334  0.62033042  0.36980936  1
  O  O391  1  0.87017504  0.61989504  0.87017708  1
  O  O392  1  0.12990923  0.38013307  0.12936943  1
  O  O393  1  0.12495138  0.37490290  0.63758126  1
  O  O394  1  0.13002922  0.88051429  0.13078330  1
  O  O395  1  0.12981637  0.88115438  0.63067312  1
  O  O396  1  0.63183507  0.38220889  0.12612906  1
  O  O397  1  0.62660029  0.37538564  0.63958668  1
  O  O398  1  0.63089883  0.88055975  0.13176615  1
  O  O399  1  0.63546477  0.88437118  0.62505459  1
  O  O400  1  0.11969105  0.25668801  0.25497846  1
  O  O401  1  0.12492331  0.25956687  0.75927110  1
  O  O402  1  0.12037805  0.75513150  0.25439468  1
  O  O403  1  0.11923949  0.75594343  0.75536680  1
  O  O404  1  0.61616771  0.25095522  0.25768138  1
  O  O405  1  0.62042687  0.25661785  0.75509614  1
  O  O406  1  0.62043981  0.75490286  0.25503557  1
  O  O407  1  0.61824340  0.75054293  0.75853521  1
  O  O408  1  0.38233804  0.24995955  0.24209669  1
  O  O409  1  0.37981089  0.24358025  0.74538109  1
  O  O410  1  0.38076578  0.74369624  0.24443063  1
  O  O411  1  0.38722155  0.74841752  0.74993588  1
  O  O412  1  0.88242598  0.25078913  0.24371594  1
  O  O413  1  0.87609981  0.23829037  0.74939250  1
  O  O414  1  0.88028759  0.74575909  0.24608003  1
  O  O415  1  0.88202554  0.74345699  0.74949934  1
  O  O416  1  0.38320000  0.49797766  0.49217032  1
  O  O417  1  0.38052853  0.49464180  0.99590047  1
  O  O418  1  0.37882948  0.99376725  0.49521336  1
  O  O419  1  0.38454345  1.00120367  0.99484322  1
  O  O420  1  0.88104212  0.49541485  0.49355840  1
  O  O421  1  0.87991059  0.49611038  0.99454844  1
  O  O422  1  0.87522102  0.99459081  0.48909071  1
  O  O423  1  0.88287468  0.99903551  0.99402282  1
  O  O424  1  0.11871759  0.00215329  0.00655365  1
  O  O425  1  0.12308189  0.00681910  0.50694274  1
  O  O426  1  0.11990851  0.50379309  0.00350270  1
  O  O427  1  0.11857293  0.50617821  0.49957720  1
  O  O428  1  0.61735879  0.00473846  0.00591293  1
  O  O429  1  0.61993086  0.00092006  0.51012429  1
  O  O430  1  0.62048749  0.50616361  0.00564848  1
  O  O431  1  0.61390964  0.49872562  0.49862599  1
  O  O432  1  0.37006681  0.36660247  0.12032386  1
  O  O433  1  0.37087380  0.36346074  0.62340645  1
  O  O434  1  0.36834043  0.86769389  0.12408676  1
  O  O435  1  0.36722960  0.87323720  0.61827462  1
  O  O436  1  0.87035609  0.37127968  0.11917480  1
  O  O437  1  0.87474189  0.37076270  0.61687448  1
  O  O438  1  0.86799280  0.86833052  0.12496319  1
  O  O439  1  0.86564488  0.87795759  0.62000666  1
  O  O440  1  0.12796440  0.12985153  0.38025051  1
  O  O441  1  0.12967390  0.13558585  0.87220411  1
  O  O442  1  0.12632153  0.63264880  0.38120591  1
  O  O443  1  0.12977906  0.62992408  0.87900083  1
  O  O444  1  0.62542246  0.13829957  0.37812640  1
  O  O445  1  0.63068785  0.12896833  0.87969666  1
  O  O446  1  0.63349961  0.63187834  0.37610016  1
  O  O447  1  0.63221220  0.63094213  0.88265007  1
