# generated using pymatgen
data_V3Zn3O8
_symmetry_space_group_name_H-M   'P 1'
_cell_length_a   17.09053167
_cell_length_b   17.09145662
_cell_length_c   17.09173561
_cell_angle_alpha   90.01341904
_cell_angle_beta   89.98541049
_cell_angle_gamma   90.00702083
_symmetry_Int_Tables_number   1
_chemical_formula_structural   V3Zn3O8
_chemical_formula_sum   'V96 Zn96 O256'
_cell_volume   4992.53119709
_cell_formula_units_Z   32
loop_
 _symmetry_equiv_pos_site_id
 _symmetry_equiv_pos_as_xyz
  1  'x, y, z'
loop_
 _atom_site_type_symbol
 _atom_site_label
 _atom_site_symmetry_multiplicity
 _atom_site_fract_x
 _atom_site_fract_y
 _atom_site_fract_z
 _atom_site_occupancy
  V  V0  1  0.62417979  0.24985047  0.37378728  1
  V  V1  1  0.75050089  0.87219789  0.12658931  1
  V  V2  1  0.75066819  0.37380078  0.62348585  1
  V  V3  1  0.37551417  0.75075716  0.62583879  1
  V  V4  1  0.49965812  0.25118855  0.74912916  1
  V  V5  1  0.24966535  0.62617639  0.37563314  1
  V  V6  1  0.87280281  0.87362454  0.50185321  1
  V  V7  1  0.49918010  0.50127088  0.49966244  1
  V  V8  1  0.87517302  0.37326201  -0.00044982  1
  V  V9  1  0.12528809  0.62378438  0.00068305  1
  V  V10  1  0.12480325  0.49974182  0.12474547  1
  V  V11  1  0.12387827  0.50208379  0.62605935  1
  V  V12  1  -0.00042176  0.25092173  0.25030379  1
  V  V13  1  0.74948405  0.62467850  0.37613955  1
  V  V14  1  0.12457015  0.00046927  0.12470068  1
  V  V15  1  0.50047175  0.49864774  -0.00028319  1
  V  V16  1  0.24893636  0.12676630  0.37563336  1
  V  V17  1  0.25112257  0.87485683  0.12453064  1
  V  V18  1  0.49962710  -0.00109887  -0.00060643  1
  V  V19  1  0.37376613  0.25056654  0.12364217  1
  V  V20  1  0.62592614  0.49887191  0.12537837  1
  V  V21  1  0.37394690  0.50081593  0.37468335  1
  V  V22  1  0.00037433  0.49902614  0.00012690  1
  V  V23  1  0.62449350  0.75072238  0.87306377  1
  V  V24  1  0.37501866  0.37498290  -0.00002773  1
  V  V25  1  0.49980005  0.37493915  0.37397159  1
  V  V26  1  0.87444734  0.12483034  0.24931610  1
  V  V27  1  0.62459457  0.62453734  0.50025137  1
  V  V28  1  0.87678015  0.62502950  0.25029312  1
  V  V29  1  0.87376020  0.12255926  0.75072020  1
  V  V30  1  0.12699336  0.24760413  0.87624057  1
  V  V31  1  0.24950158  0.75081275  0.50036735  1
  V  V32  1  0.24992854  0.00055846  0.24998024  1
  V  V33  1  0.87498853  0.00062922  0.37419394  1
  V  V34  1  0.12359500  0.37515351  0.25053527  1
  V  V35  1  -0.00084214  0.37454729  0.87505691  1
  V  V36  1  0.37596818  0.62599959  0.24923993  1
  V  V37  1  0.87537088  0.24848104  0.12371450  1
  V  V38  1  0.74994419  0.49767875  0.24976023  1
  V  V39  1  0.25018811  0.87669137  0.62509330  1
  V  V40  1  0.37492341  0.00111375  0.37497027  1
  V  V41  1  -0.00089699  0.62698166  0.62637668  1
  V  V42  1  0.00123312  -0.00066001  0.00043685  1
  V  V43  1  0.75045039  0.49943401  0.75091671  1
  V  V44  1  0.49980687  0.00133362  0.49959894  1
  V  V45  1  -0.00261483  0.49976995  0.49984870  1
  V  V46  1  0.25093442  0.62545773  0.87537553  1
  V  V47  1  0.00096418  0.87413855  0.87587900  1
  V  V48  1  0.49945334  0.62506158  0.12617893  1
  V  V49  1  0.37500351  0.25125503  0.62466831  1
  V  V50  1  0.12522385  0.00163999  0.62481950  1
  V  V51  1  0.12649178  0.75104045  0.37591134  1
  V  V52  1  -0.00081198  0.24989137  0.74957545  1
  V  V53  1  0.75132765  0.62309317  0.87543168  1
  V  V54  1  0.62389298  0.75069131  0.37435741  1
  V  V55  1  0.62367705  0.37419255  0.75085312  1
  V  V56  1  0.87480094  0.62520865  0.75087350  1
  V  V57  1  0.74872740  0.12594105  0.37366720  1
  V  V58  1  0.25150029  0.75001993  0.00037015  1
  V  V59  1  0.49979282  0.25054461  0.24964475  1
  V  V60  1  0.87412719  -0.00148111  0.87551046  1
  V  V61  1  0.24948371  0.37665064  0.62464928  1
  V  V62  1  0.74928093  -0.00171983  0.24877169  1
  V  V63  1  0.62726234  -0.00242136  0.62648699  1
  V  V64  1  0.24999214  0.50154614  0.75000427  1
  V  V65  1  0.75215828  0.74792565  0.00201981  1
  V  V66  1  0.12421768  0.37570972  0.75009738  1
  V  V67  1  0.74948661  0.24737220  -0.00129790  1
  V  V68  1  0.25012644  0.37427075  0.12447135  1
  V  V69  1  0.49980263  0.62571279  0.62471783  1
  V  V70  1  0.37557950  0.87482611  -0.00011868  1
  V  V71  1  0.87366300  0.24973264  0.62504602  1
  V  V72  1  0.37520616  0.00105995  0.87393262  1
  V  V73  1  0.62633345  0.62283595  0.00065994  1
  V  V74  1  0.37470785  0.87653872  0.50022521  1
  V  V75  1  0.12364965  0.25145011  0.37516880  1
  V  V76  1  0.00064015  0.87626089  0.37469579  1
  V  V77  1  -0.00005868  0.75016837  0.75044090  1
  V  V78  1  0.25043019  0.00193067  0.75036036  1
  V  V79  1  0.37469679  0.12595182  0.24950719  1
  V  V80  1  0.49945892  0.12628178  0.62471264  1
  V  V81  1  0.24842305  0.25130707  0.49962084  1
  V  V82  1  0.62530866  0.12628378  0.49858136  1
  V  V83  1  0.37637932  0.62644199  0.74985153  1
  V  V84  1  -0.00052567  0.12526170  0.62427885  1
  V  V85  1  0.62509346  0.12273652  -0.00080131  1
  V  V86  1  0.00055741  0.12346801  0.12463971  1
  V  V87  1  0.12516408  0.75025644  0.87505949  1
  V  V88  1  0.50024600  0.87520602  0.37379409  1
  V  V89  1  0.37634165  0.50006330  0.87562374  1
  V  V90  1  0.12574101  0.87541088  0.25020674  1
  V  V91  1  0.00043332  0.00185673  0.50019602  1
  V  V92  1  0.37386923  0.37650947  0.49906404  1
  V  V93  1  0.49896728  0.12415291  0.12396044  1
  V  V94  1  0.24912909  0.50024844  0.25042794  1
  V  V95  1  0.00065671  0.74927136  0.25027025  1
  Zn  Zn96  1  0.62616542  0.87522695  0.75079785  1
  Zn  Zn97  1  0.74812992  0.12145419  0.87294000  1
  Zn  Zn98  1  0.74945773  -0.00259507  0.75036457  1
  Zn  Zn99  1  0.49980799  0.37295216  0.87592473  1
  Zn  Zn100  1  0.74941571  0.87183128  0.62790154  1
  Zn  Zn101  1  0.62540269  0.37383527  0.24854725  1
  Zn  Zn102  1  0.50178202  0.87381809  0.87322211  1
  Zn  Zn103  1  -0.00329540  0.37576280  0.37556944  1
  Zn  Zn104  1  0.75114613  0.74868932  0.50186655  1
  Zn  Zn105  1  0.62317132  0.87527801  0.24962135  1
  Zn  Zn106  1  0.12749009  0.12564648  0.00085254  1
  Zn  Zn107  1  0.62329132  -0.00377469  0.12596527  1
  Zn  Zn108  1  0.62308985  0.24778155  0.87428820  1
  Zn  Zn109  1  0.87710574  0.87143024  0.00186493  1
  Zn  Zn110  1  0.37464214  0.12835833  0.75036786  1
  Zn  Zn111  1  0.49886947  0.75206210  0.24724495  1
  Zn  Zn112  1  0.62465773  0.50144042  0.62455573  1
  Zn  Zn113  1  0.87495610  0.49753595  0.37635433  1
  Zn  Zn114  1  0.87847024  0.74880837  0.12402555  1
  Zn  Zn115  1  0.24990679  0.12559129  0.87728830  1
  Zn  Zn116  1  0.87430736  0.37344684  0.49705644  1
  Zn  Zn117  1  0.50156123  0.75238136  0.74958830  1
  Zn  Zn118  1  0.12443893  0.87531927  0.75012296  1
  Zn  Zn119  1  0.74900519  0.37360457  0.12450129  1
  Zn  Zn120  1  0.25073665  0.24815841  -0.00113552  1
  Zn  Zn121  1  0.00112057  0.62550477  0.12513894  1
  Zn  Zn122  1  0.37736033  0.75036710  0.12528616  1
  Zn  Zn123  1  0.12415210  0.62679320  0.50103828  1
  Zn  Zn124  1  0.87529212  0.49863348  0.87596499  1
  Zn  Zn125  1  0.75090665  0.25145054  0.49741408  1
  Zn  Zn126  1  0.87251697  0.75128090  0.62584120  1
  Zn  Zn127  1  0.12393226  0.12729160  0.49994804  1
  Zn  Zn128  1  0.18661330  0.18825168  0.18793130  1
  Zn  Zn129  1  0.18699544  0.18703845  0.68784988  1
  Zn  Zn130  1  0.18854151  0.68800954  0.18683455  1
  Zn  Zn131  1  0.18653605  0.68834368  0.68794567  1
  Zn  Zn132  1  0.68626593  0.18562593  0.18584029  1
  Zn  Zn133  1  0.68790632  0.18569121  0.68773518  1
  Zn  Zn134  1  0.68736031  0.68619655  0.18876642  1
  Zn  Zn135  1  0.69025438  0.68820775  0.68578925  1
  Zn  Zn136  1  0.31160646  0.31306987  0.31178197  1
  Zn  Zn137  1  0.31274561  0.31512124  0.81179471  1
  Zn  Zn138  1  0.31387776  0.81187364  0.31175203  1
  Zn  Zn139  1  0.31281985  0.81427797  0.81242043  1
  Zn  Zn140  1  0.81405432  0.31371686  0.31354026  1
  Zn  Zn141  1  0.81179436  0.31038482  0.81346850  1
  Zn  Zn142  1  0.81207313  0.81083440  0.31360833  1
  Zn  Zn143  1  0.81080622  0.81383404  0.81079829  1
  Zn  Zn144  1  0.18355546  0.43879543  0.43805417  1
  Zn  Zn145  1  0.18830703  0.43609667  0.93748501  1
  Zn  Zn146  1  0.18704755  0.93902746  0.43860615  1
  Zn  Zn147  1  0.18725788  0.93659940  0.93798311  1
  Zn  Zn148  1  0.68554294  0.43810841  0.43640548  1
  Zn  Zn149  1  0.68839919  0.43560133  0.93652745  1
  Zn  Zn150  1  0.68779215  0.93809333  0.43753734  1
  Zn  Zn151  1  0.68970001  0.93425400  0.94070145  1
  Zn  Zn152  1  0.31042000  0.06394039  0.05991871  1
  Zn  Zn153  1  0.31263527  0.06542020  0.56228066  1
  Zn  Zn154  1  0.31322142  0.56204363  0.06343215  1
  Zn  Zn155  1  0.31234555  0.56482750  0.56224105  1
  Zn  Zn156  1  0.81294215  0.05932141  0.06216550  1
  Zn  Zn157  1  0.81110370  0.06314662  0.56091348  1
  Zn  Zn158  1  0.81438974  0.56113851  0.06411035  1
  Zn  Zn159  1  0.81261376  0.56262108  0.56494301  1
  Zn  Zn160  1  0.43747741  0.43799337  0.18725596  1
  Zn  Zn161  1  0.43739496  0.43917566  0.68647571  1
  Zn  Zn162  1  0.43752366  0.93729714  0.18729921  1
  Zn  Zn163  1  0.44139952  0.93543649  0.68999160  1
  Zn  Zn164  1  0.93676114  0.43643306  0.18525261  1
  Zn  Zn165  1  0.93602822  0.43875300  0.68750245  1
  Zn  Zn166  1  0.93646911  0.93595118  0.18734299  1
  Zn  Zn167  1  0.93925734  0.93715593  0.68831729  1
  Zn  Zn168  1  0.06260843  0.06421122  0.31223849  1
  Zn  Zn169  1  0.06112609  0.06246954  0.81155304  1
  Zn  Zn170  1  0.06316891  0.56279458  0.31482208  1
  Zn  Zn171  1  0.06137201  0.56329367  0.81423043  1
  Zn  Zn172  1  0.56362569  0.06203691  0.31050728  1
  Zn  Zn173  1  0.56021589  0.06362015  0.81126560  1
  Zn  Zn174  1  0.56278198  0.56314561  0.31212426  1
  Zn  Zn175  1  0.56281180  0.56278921  0.81214374  1
  Zn  Zn176  1  0.43721731  0.18843594  0.43764372  1
  Zn  Zn177  1  0.43794843  0.18785368  0.93598581  1
  Zn  Zn178  1  0.43754658  0.68866077  0.43755434  1
  Zn  Zn179  1  0.43945771  0.68646476  0.93905962  1
  Zn  Zn180  1  0.93597177  0.18901011  0.43820400  1
  Zn  Zn181  1  0.93911884  0.18423504  0.93722299  1
  Zn  Zn182  1  0.93853471  0.68693453  0.43696807  1
  Zn  Zn183  1  0.93736344  0.68625782  0.93734029  1
  Zn  Zn184  1  0.06240454  0.31263451  0.06224677  1
  Zn  Zn185  1  0.06177663  0.31445411  0.56270409  1
  Zn  Zn186  1  0.06330882  0.81185827  0.06332107  1
  Zn  Zn187  1  0.06191241  0.81438364  0.56379888  1
  Zn  Zn188  1  0.56273274  0.31270918  0.06372989  1
  Zn  Zn189  1  0.56314334  0.31297729  0.56149123  1
  Zn  Zn190  1  0.56336618  0.81114259  0.06077754  1
  Zn  Zn191  1  0.56134449  0.81223060  0.56019142  1
  O  O192  1  0.11775682  0.11785618  0.12713416  1
  O  O193  1  0.11753559  0.11992119  0.62330976  1
  O  O194  1  0.12600604  0.61717365  0.11857225  1
  O  O195  1  0.11820518  0.61900768  0.62504601  1
  O  O196  1  0.61804403  0.12285298  0.11373691  1
  O  O197  1  0.61905699  0.11810002  0.61840781  1
  O  O198  1  0.62036736  0.61832901  0.11976468  1
  O  O199  1  0.61805621  0.62413381  0.61791360  1
  O  O200  1  0.37896508  0.38109056  0.37997959  1
  O  O201  1  0.37597276  0.38319062  0.88122650  1
  O  O202  1  0.37910013  0.88193924  0.38082131  1
  O  O203  1  0.37524873  0.88591871  0.88098774  1
  O  O204  1  0.87857303  0.37966695  0.37933648  1
  O  O205  1  0.88202951  0.37393207  0.88128368  1
  O  O206  1  0.88127345  0.88111497  0.38103506  1
  O  O207  1  0.88195661  0.88392668  0.87683035  1
  O  O208  1  0.25525225  0.00597719  0.36977355  1
  O  O209  1  0.25726205  -0.00076224  0.86631028  1
  O  O210  1  0.25413738  0.50555377  0.37017283  1
  O  O211  1  0.25518167  0.50589327  0.86932700  1
  O  O212  1  0.75560337  0.00602119  0.36878231  1
  O  O213  1  0.76330244  -0.00038211  0.87706321  1
  O  O214  1  0.74937787  0.50606965  0.36483050  1
  O  O215  1  0.75133435  0.50544533  0.86886720  1
  O  O216  1  0.24473867  0.49399495  0.13110562  1
  O  O217  1  0.24486167  0.49628155  0.63026924  1
  O  O218  1  0.24503007  0.99495872  0.13106450  1
  O  O219  1  0.24680337  0.99668321  0.63158050  1
  O  O220  1  0.74456990  0.49977441  0.13482205  1
  O  O221  1  0.74820118  0.48953153  0.63219679  1
  O  O222  1  0.74977251  0.98921728  0.13007571  1
  O  O223  1  0.73700115  0.99969948  0.62343225  1
  O  O224  1  0.00627192  0.36839088  0.24965073  1
  O  O225  1  0.00492757  0.36957119  0.75433874  1
  O  O226  1  0.00619454  0.87060303  0.25590503  1
  O  O227  1  0.00238418  0.86830577  0.75748469  1
  O  O228  1  0.49974440  0.36875887  0.25663949  1
  O  O229  1  0.50934141  0.37046815  0.74748289  1
  O  O230  1  0.50219488  0.87331632  0.25782329  1
  O  O231  1  0.50710918  0.86967820  0.75531866  1
  O  O232  1  0.49348450  0.13012980  0.24439125  1
  O  O233  1  0.49786865  0.13356803  0.74198640  1
  O  O234  1  0.49308033  0.62437558  0.24376733  1
  O  O235  1  0.49322040  0.62638890  0.74300380  1
  O  O236  1  0.99330386  0.13020003  0.24452957  1
  O  O237  1  0.99353651  0.13028966  0.74358651  1
  O  O238  1  0.99195917  0.62958962  0.25128454  1
  O  O239  1  0.99479261  0.63014336  0.74661723  1
  O  O240  1  0.37481199  0.25661048  0.00622126  1
  O  O241  1  0.36870280  0.25767984  0.50420895  1
  O  O242  1  0.36838911  0.75614966  -0.00018557  1
  O  O243  1  0.36885627  0.75689595  0.50529592  1
  O  O244  1  0.86847653  0.25157713  0.00418203  1
  O  O245  1  0.87141161  0.25271018  0.50935069  1
  O  O246  1  0.86746597  0.74973937  0.00338003  1
  O  O247  1  0.87639630  0.76261054  0.49901979  1
  O  O248  1  0.13117107  0.25077046  0.49423204  1
  O  O249  1  0.12554623  0.25067733  0.98753815  1
  O  O250  1  0.13172890  0.75136328  0.49369602  1
  O  O251  1  0.13156513  0.74380030  0.99469723  1
  O  O252  1  0.62529725  0.24352173  0.49217964  1
  O  O253  1  0.63225388  0.24093394  1.00014214  1
  O  O254  1  0.62477977  0.74364500  0.48875771  1
  O  O255  1  0.63225302  0.74156206  0.99282035  1
  O  O256  1  0.49327011  0.24394651  0.13001408  1
  O  O257  1  0.49433301  0.24636419  0.62873709  1
  O  O258  1  0.49905719  0.74067968  0.12611347  1
  O  O259  1  0.49248222  0.74349747  0.62421939  1
  O  O260  1  0.99511349  0.24360149  0.13021278  1
  O  O261  1  0.99470985  0.24557174  0.63110926  1
  O  O262  1  0.99991518  0.74700434  0.13463912  1
  O  O263  1  0.99908670  0.74459793  0.63221061  1
  O  O264  1  0.00564464  0.25046130  0.36776960  1
  O  O265  1  0.00736568  0.25463183  0.86911737  1
  O  O266  1  0.00720093  0.75654486  0.36983473  1
  O  O267  1  0.00632473  0.75424527  0.87074020  1
  O  O268  1  0.50365943  0.25505675  0.36900320  1
  O  O269  1  0.50151898  0.25308655  0.86519772  1
  O  O270  1  0.50812740  0.75644404  0.37488223  1
  O  O271  1  0.51315969  0.74816013  0.87589235  1
  O  O272  1  0.24871090  0.13333887  0.49330183  1
  O  O273  1  0.24473931  0.13017585  0.99535304  1
  O  O274  1  0.24869092  0.63283991  0.49367562  1
  O  O275  1  0.24562526  0.62924587  0.99420571  1
  O  O276  1  0.74320004  0.12677723  0.49089484  1
  O  O277  1  0.74148252  0.13046897  1.00059927  1
  O  O278  1  0.74331726  0.62333715  0.49303784  1
  O  O279  1  0.74546491  0.62754140  0.99607224  1
  O  O280  1  0.25699573  0.37372308  0.00715255  1
  O  O281  1  0.25437582  0.37175622  0.50521205  1
  O  O282  1  0.25542857  0.86992495  0.00532992  1
  O  O283  1  0.25605013  0.87135073  0.50531273  1
  O  O284  1  0.75516536  0.36342667  0.00040678  1
  O  O285  1  0.74854518  0.37508254  0.51289490  1
  O  O286  1  0.75302807  0.86691555  0.01107980  1
  O  O287  1  0.76375338  0.87571725  0.49881739  1
  O  O288  1  0.13021875  0.49525608  0.24523007  1
  O  O289  1  0.13020561  0.49531363  0.74608010  1
  O  O290  1  0.13055592  0.99450977  0.24560209  1
  O  O291  1  0.13457912  0.99929349  0.74479384  1
  O  O292  1  0.63527749  0.50077030  0.24482402  1
  O  O293  1  0.63033875  0.49020865  0.74781352  1
  O  O294  1  0.63372313  0.99759642  0.24676317  1
  O  O295  1  0.62454921  1.00152993  0.73771751  1
  O  O296  1  0.36914284  0.00655982  0.25559123  1
  O  O297  1  0.36770099  0.00056969  0.75737136  1
  O  O298  1  0.36836313  0.50505788  0.25595758  1
  O  O299  1  0.36903444  0.50590892  0.75490800  1
  O  O300  1  0.87014830  0.00546002  0.25554642  1
  O  O301  1  0.87709615  0.00486650  0.76036347  1
  O  O302  1  0.86716514  0.50786961  0.24987293  1
  O  O303  1  0.86852075  0.50624714  0.75318074  1
  O  O304  1  0.12307369  0.36897411  0.36757913  1
  O  O305  1  0.11985522  0.36727689  0.86896261  1
  O  O306  1  0.12074633  0.87142685  0.36938518  1
  O  O307  1  0.11925361  0.86779086  0.87390370  1
  O  O308  1  0.61710738  0.36832919  0.37253124  1
  O  O309  1  0.62396742  0.37197932  0.86160534  1
  O  O310  1  0.61933141  0.86625650  0.37623558  1
  O  O311  1  0.62571213  0.86157607  0.87785359  1
  O  O312  1  0.37926484  0.13014855  0.13031875  1
  O  O313  1  0.38164972  0.13361810  0.62502468  1
  O  O314  1  0.38127749  0.62486160  0.13131044  1
  O  O315  1  0.37928616  0.63139789  0.63016975  1
  O  O316  1  0.88072021  0.12846916  0.13031099  1
  O  O317  1  0.87991476  0.12915434  0.63057044  1
  O  O318  1  0.87735402  0.62616680  0.13906560  1
  O  O319  1  0.88182313  0.62681008  0.63343876  1
  O  O320  1  0.25624189  0.25710625  0.12562899  1
  O  O321  1  0.25422760  0.25717968  0.62035242  1
  O  O322  1  0.25107094  0.75724813  0.11781921  1
  O  O323  1  0.25524606  0.75637670  0.62034665  1
  O  O324  1  0.75600541  0.24810509  0.11395041  1
  O  O325  1  0.75473648  0.25891135  0.62491166  1
  O  O326  1  0.75063796  0.75624006  0.12112312  1
  O  O327  1  0.75422408  0.75396352  0.61837591  1
  O  O328  1  0.24454235  0.24621410  0.37981686  1
  O  O329  1  0.23863492  0.24998030  0.87248180  1
  O  O330  1  0.24561761  0.74642946  0.38083415  1
  O  O331  1  0.24552106  0.74481719  0.88024984  1
  O  O332  1  0.74262167  0.24339295  0.37374636  1
  O  O333  1  0.74886141  0.24461941  0.88804249  1
  O  O334  1  0.74042181  0.74342401  0.37749869  1
  O  O335  1  0.74328196  0.74296314  0.88178481  1
  O  O336  1  0.00304156  0.11778916  0.00795273  1
  O  O337  1  0.00002792  0.11912681  0.50643852  1
  O  O338  1  0.00783528  0.61783597  0.00102296  1
  O  O339  1  0.00157517  0.61721077  0.50691235  1
  O  O340  1  0.50678146  0.11989738  0.00453400  1
  O  O341  1  0.50489041  0.12032770  0.50426837  1
  O  O342  1  0.50630939  0.61728630  0.00605954  1
  O  O343  1  0.50362944  0.61981660  0.50455441  1
  O  O344  1  0.49327240  0.38069226  0.49415213  1
  O  O345  1  0.49372770  0.38138022  0.99924568  1
  O  O346  1  0.49283989  0.88203144  0.49360437  1
  O  O347  1  0.49380772  0.88161316  0.99803671  1
  O  O348  1  0.99783549  0.38769546  0.50171738  1
  O  O349  1  0.99469645  0.37907782  0.99461043  1
  O  O350  1  0.99308467  0.88203717  0.49368109  1
  O  O351  1  0.99901209  0.88075388  0.99430240  1
  O  O352  1  0.49321777  0.49525794  0.37968072  1
  O  O353  1  0.49381275  0.49898506  0.88176658  1
  O  O354  1  0.49399291  0.99645785  0.38014220  1
  O  O355  1  0.48973539  0.99954858  0.88033675  1
  O  O356  1  1.00034004  0.49951389  0.38758266  1
  O  O357  1  1.00015275  0.49159304  0.88193109  1
  O  O358  1  0.99477045  0.99588912  0.37897854  1
  O  O359  1  0.99401486  0.99443598  0.87992337  1
  O  O360  1  0.00499498  0.00358085  0.12107086  1
  O  O361  1  0.00566239  0.00608415  0.62032150  1
  O  O362  1  0.00792166  0.50067788  0.11815029  1
  O  O363  1  0.00476537  0.50625962  0.61992523  1
  O  O364  1  0.50015471  0.00683907  0.11755879  1
  O  O365  1  0.50648227  0.00605837  0.61858500  1
  O  O366  1  0.50591538  0.50498764  0.11949579  1
  O  O367  1  0.49960922  0.50733776  0.61681144  1
  O  O368  1  0.24445199  0.38137631  0.24468080  1
  O  O369  1  0.24440038  0.38283068  0.74374029  1
  O  O370  1  0.24549572  0.88135394  0.24549671  1
  O  O371  1  0.24983394  0.88667420  0.74370989  1
  O  O372  1  0.74974968  0.38688940  0.24796246  1
  O  O373  1  0.74261071  0.37738310  0.74357087  1
  O  O374  1  0.74951441  0.87934258  0.24287350  1
  O  O375  1  0.74449478  0.88042885  0.74575551  1
  O  O376  1  0.25546683  0.12007055  0.25549178  1
  O  O377  1  0.25286432  0.11286928  0.75095073  1
  O  O378  1  0.25500907  0.61924728  0.25578654  1
  O  O379  1  0.25589241  0.62033973  0.75565544  1
  O  O380  1  0.75569476  0.11911483  0.25345248  1
  O  O381  1  0.75768302  0.12020886  0.75353590  1
  O  O382  1  0.75746625  0.61720261  0.25525285  1
  O  O383  1  0.75502368  0.61854405  0.75528726  1
  O  O384  1  0.36924680  0.12075773  0.36941068  1
  O  O385  1  0.37314107  0.11256058  0.87287402  1
  O  O386  1  0.36915959  0.61954765  0.37033346  1
  O  O387  1  0.36975138  0.61962084  0.87045342  1
  O  O388  1  0.86902566  0.12032300  0.36853636  1
  O  O389  1  0.87668194  0.11357578  0.86951315  1
  O  O390  1  0.86927449  0.62305741  0.36491734  1
  O  O391  1  0.86816669  0.62222263  0.86894162  1
  O  O392  1  0.13040484  0.37995744  0.13074363  1
  O  O393  1  0.13053053  0.38119488  0.63179346  1
  O  O394  1  0.13136328  0.88107169  0.13139000  1
  O  O395  1  0.13239314  0.88342928  0.62681153  1
  O  O396  1  0.62838003  0.38251413  0.12848359  1
  O  O397  1  0.63335995  0.37522813  0.63415208  1
  O  O398  1  0.63711891  0.87447193  0.12710235  1
  O  O399  1  0.62395278  0.88785726  0.62118883  1
  O  O400  1  0.11914896  0.25587071  0.25514847  1
  O  O401  1  0.11930319  0.25618112  0.75617217  1
  O  O402  1  0.12178263  0.75653809  0.25626663  1
  O  O403  1  0.11930689  0.75144497  0.75782795  1
  O  O404  1  0.61735320  0.24972135  0.25489826  1
  O  O405  1  0.61921573  0.25810478  0.74974085  1
  O  O406  1  0.62309662  0.74918533  0.26419472  1
  O  O407  1  0.62562578  0.74729051  0.76344207  1
  O  O408  1  0.37989755  0.24491355  0.24455876  1
  O  O409  1  0.38091910  0.25200513  0.74189717  1
  O  O410  1  0.37697676  0.74145905  0.24744630  1
  O  O411  1  0.37498203  0.74383180  0.74399573  1
  O  O412  1  0.87935378  0.24390424  0.24334801  1
  O  O413  1  0.88041506  0.24337848  0.74554296  1
  O  O414  1  0.88150149  0.73986242  0.25158613  1
  O  O415  1  0.88256318  0.74306223  0.75041284  1
  O  O416  1  0.37834144  0.49548812  0.49370423  1
  O  O417  1  0.38058882  0.49507597  0.99515879  1
  O  O418  1  0.37965159  0.99639184  0.49447549  1
  O  O419  1  0.37858681  0.99540991  0.99164949  1
  O  O420  1  0.88628701  0.49945263  0.50055984  1
  O  O421  1  0.88154324  0.49190460  0.99938895  1
  O  O422  1  0.88098504  0.99403017  0.49319997  1
  O  O423  1  0.88273929  0.99838298  0.99086250  1
  O  O424  1  0.11912813  0.00081870  0.00731111  1
  O  O425  1  0.11830770  0.00301322  0.50610299  1
  O  O426  1  0.12090485  0.50391327  0.00490517  1
  O  O427  1  0.11578184  0.50258174  0.50802803  1
  O  O428  1  0.61955273  0.00804909  0.00082996  1
  O  O429  1  0.61863723  0.00668901  0.50536074  1
  O  O430  1  0.62099843  0.50381849  0.00482476  1
  O  O431  1  0.61632491  0.50661615  0.50057181  1
  O  O432  1  0.36959562  0.37034478  0.12007562  1
  O  O433  1  0.36852302  0.37168612  0.61831697  1
  O  O434  1  0.36796352  0.87468605  0.11799023  1
  O  O435  1  0.37030109  0.87121818  0.61905215  1
  O  O436  1  0.87294160  0.36580856  0.11730290  1
  O  O437  1  0.86381959  0.36855633  0.62736094  1
  O  O438  1  0.86362859  0.87101920  0.12492566  1
  O  O439  1  0.87627032  0.87677588  0.61230268  1
  O  O440  1  0.13158652  0.13279577  0.37563468  1
  O  O441  1  0.12407901  0.13747618  0.87418744  1
  O  O442  1  0.13268620  0.63324186  0.37647208  1
  O  O443  1  0.13199189  0.62987712  0.88092812  1
  O  O444  1  0.62907148  0.13014431  0.37919580  1
  O  O445  1  0.62546840  0.12509598  0.88769244  1
  O  O446  1  0.62844407  0.63232215  0.38057184  1
  O  O447  1  0.63158035  0.63041688  0.88140476  1
