# generated using pymatgen
data_V3Zn3O8
_symmetry_space_group_name_H-M   'P 1'
_cell_length_a   17.08727092
_cell_length_b   17.08879219
_cell_length_c   17.08734262
_cell_angle_alpha   90.00468872
_cell_angle_beta   89.99231514
_cell_angle_gamma   89.99977331
_symmetry_Int_Tables_number   1
_chemical_formula_structural   V3Zn3O8
_chemical_formula_sum   'V96 Zn96 O256'
_cell_volume   4989.51802420
_cell_formula_units_Z   32
loop_
 _symmetry_equiv_pos_site_id
 _symmetry_equiv_pos_as_xyz
  1  'x, y, z'
loop_
 _atom_site_type_symbol
 _atom_site_label
 _atom_site_symmetry_multiplicity
 _atom_site_fract_x
 _atom_site_fract_y
 _atom_site_fract_z
 _atom_site_occupancy
  V  V0  1  0.62485297  0.12560031  0.50002936  1
  V  V1  1  -0.00084122  0.12632513  0.62470863  1
  V  V2  1  0.87464677  0.62428866  0.75021724  1
  V  V3  1  0.75072802  0.62507889  0.87543880  1
  V  V4  1  0.25032297  0.50076874  0.25048126  1
  V  V5  1  0.50059750  0.87440277  0.37513518  1
  V  V6  1  0.75054906  0.74989823  0.00033543  1
  V  V7  1  0.87467843  0.25029649  0.12351304  1
  V  V8  1  0.37376578  0.24950269  0.62460420  1
  V  V9  1  0.87506430  0.25061891  0.62429407  1
  V  V10  1  0.62496377  0.12548702  -0.00064634  1
  V  V11  1  -0.00047745  0.00002216  0.49948895  1
  V  V12  1  0.62516849  0.50046567  0.12441974  1
  V  V13  1  0.75031835  0.00076681  0.75086563  1
  V  V14  1  0.12703445  0.74808005  0.87641491  1
  V  V15  1  0.37441336  0.49992384  0.37489323  1
  V  V16  1  0.12451521  -0.00010551  0.62517789  1
  V  V17  1  -0.00082486  0.87539570  0.37506641  1
  V  V18  1  0.87472841  0.12483484  0.24915671  1
  V  V19  1  0.25052119  0.87486917  0.12500967  1
  V  V20  1  0.25022858  0.00022264  0.24966861  1
  V  V21  1  0.37476319  0.87371464  0.00098312  1
  V  V22  1  0.75070103  0.50027958  0.75053205  1
  V  V23  1  0.49944367  -0.00067964  0.50029039  1
  V  V24  1  -0.00071211  0.87584758  0.87514397  1
  V  V25  1  0.75055036  0.87464496  0.62472511  1
  V  V26  1  0.00026558  0.62612152  0.12511572  1
  V  V27  1  0.62510244  0.87526104  0.75047007  1
  V  V28  1  0.24930740  -0.00027293  0.74984880  1
  V  V29  1  0.87478000  0.87561125  0.50049694  1
  V  V30  1  0.12506758  0.24876234  0.37492986  1
  V  V31  1  0.49988731  0.37480011  0.37387994  1
  V  V32  1  0.75139850  0.62509906  0.37459747  1
  V  V33  1  0.12488603  0.49993696  0.12540611  1
  V  V34  1  0.50087315  0.37489750  0.87437729  1
  V  V35  1  0.37420381  0.75087081  0.62526713  1
  V  V36  1  -0.00031186  0.49965612  -0.00115526  1
  V  V37  1  0.00061306  0.62409313  0.62414747  1
  V  V38  1  0.12456281  0.87587712  0.74881909  1
  V  V39  1  0.37359386  0.87392876  0.50149957  1
  V  V40  1  0.74969227  0.12469553  0.87472174  1
  V  V41  1  0.00015312  0.74943718  0.74997269  1
  V  V42  1  0.75007479  -0.00010319  0.24858765  1
  V  V43  1  0.12437961  0.37478442  0.24988671  1
  V  V44  1  0.00046650  0.00018769  -0.00056677  1
  V  V45  1  0.62470282  -0.00070098  0.62516298  1
  V  V46  1  0.00070402  0.12438960  0.12389612  1
  V  V47  1  0.62459131  0.50065176  0.62520542  1
  V  V48  1  0.49924363  0.74982019  0.25115126  1
  V  V49  1  0.37512565  0.12421333  0.25083373  1
  V  V50  1  0.37421560  0.00015419  0.37530243  1
  V  V51  1  0.37376080  -0.00014846  0.87441316  1
  V  V52  1  0.25011755  0.49901901  0.75013338  1
  V  V53  1  0.49994176  0.87468801  0.87579731  1
  V  V54  1  -0.00029918  0.75063429  0.24902286  1
  V  V55  1  0.49906634  0.00027729  0.00039914  1
  V  V56  1  0.62439242  0.75035305  0.37554802  1
  V  V57  1  0.12597908  0.37553605  0.74864493  1
  V  V58  1  0.62606632  0.74957199  0.87592017  1
  V  V59  1  0.87486420  0.75055660  0.62506450  1
  V  V60  1  0.62522913  -0.00000883  0.12526642  1
  V  V61  1  0.87531128  -0.00012935  0.87476533  1
  V  V62  1  0.50018934  0.25050800  0.24954797  1
  V  V63  1  0.00181240  0.50118004  0.49985986  1
  V  V64  1  0.12643562  0.74841630  0.37826073  1
  V  V65  1  0.75054209  0.37479196  0.12425835  1
  V  V66  1  0.25010833  0.37495536  0.12527960  1
  V  V67  1  -0.00007312  0.25050885  0.24820270  1
  V  V68  1  -0.00115607  0.37585928  0.37432422  1
  V  V69  1  0.75003029  0.12550945  0.37432198  1
  V  V70  1  0.74964572  0.24977195  -0.00060311  1
  V  V71  1  0.12546427  0.24958914  0.87489861  1
  V  V72  1  0.37435412  0.25031805  0.12485109  1
  V  V73  1  0.49998332  0.12491182  0.12481767  1
  V  V74  1  0.00040846  0.25054227  0.74919735  1
  V  V75  1  0.75102712  0.87361145  0.12479989  1
  V  V76  1  0.50079073  0.50047097  0.00140491  1
  V  V77  1  0.62482793  0.62501632  0.50125010  1
  V  V78  1  0.37623144  0.49996524  0.87536028  1
  V  V79  1  0.24957101  0.24952437  -0.00097688  1
  V  V80  1  0.74996233  0.50040474  0.25000384  1
  V  V81  1  -0.00054675  0.37552174  0.87492240  1
  V  V82  1  0.37524019  0.74997200  0.12635878  1
  V  V83  1  0.37447394  0.12441207  0.75013493  1
  V  V84  1  0.62452523  0.37461436  0.25059057  1
  V  V85  1  0.49993678  0.74982308  0.75133281  1
  V  V86  1  0.37508457  0.62486757  0.25120041  1
  V  V87  1  0.37447823  0.37472691  0.50041435  1
  V  V88  1  0.62476875  0.37399783  0.74908142  1
  V  V89  1  0.74999154  0.37475890  0.62396894  1
  V  V90  1  0.87459702  0.37506306  0.49936101  1
  V  V91  1  0.12473179  0.12600089  0.49835498  1
  V  V92  1  0.12498943  -0.00041037  0.12472549  1
  V  V93  1  0.49916228  0.25020395  0.75105459  1
  V  V94  1  0.37545471  0.62479969  0.75108543  1
  V  V95  1  0.50125971  0.62471781  0.62597259  1
  Zn  Zn96  1  0.25012457  0.12555097  0.37572164  1
  Zn  Zn97  1  0.49950986  0.50009080  0.50043830  1
  Zn  Zn98  1  0.24954771  0.24852041  0.49806477  1
  Zn  Zn99  1  0.12589911  0.87578704  0.25071297  1
  Zn  Zn100  1  0.87463661  0.49889252  0.87469640  1
  Zn  Zn101  1  0.24799574  0.37471033  0.62357253  1
  Zn  Zn102  1  0.75025362  0.75051380  0.49974176  1
  Zn  Zn103  1  0.87453045  0.12599715  0.74910383  1
  Zn  Zn104  1  0.87389426  0.37436789  -0.00226719  1
  Zn  Zn105  1  0.87565313  -0.00084389  0.37429948  1
  Zn  Zn106  1  0.87557338  0.50032804  0.37286669  1
  Zn  Zn107  1  0.87456027  0.62405261  0.25013632  1
  Zn  Zn108  1  0.50170396  0.62606382  0.12582963  1
  Zn  Zn109  1  0.24827567  0.87282149  0.62345593  1
  Zn  Zn110  1  0.12691983  0.50016353  0.62465272  1
  Zn  Zn111  1  0.87597423  0.87358431  -0.00028488  1
  Zn  Zn112  1  0.62672815  0.62533381  0.00227799  1
  Zn  Zn113  1  0.37555323  0.37536064  0.00006815  1
  Zn  Zn114  1  0.87531632  0.75009476  0.12379580  1
  Zn  Zn115  1  0.12803403  0.62554421  -0.00011763  1
  Zn  Zn116  1  0.62465006  0.25189867  0.37602677  1
  Zn  Zn117  1  0.62524718  0.24949979  0.87383173  1
  Zn  Zn118  1  0.12865684  0.62395457  0.50247459  1
  Zn  Zn119  1  0.25143253  0.62508533  0.87834844  1
  Zn  Zn120  1  0.12499475  0.12412650  -0.00191980  1
  Zn  Zn121  1  0.24967295  0.74753237  0.50253042  1
  Zn  Zn122  1  0.74885867  0.25195594  0.49930593  1
  Zn  Zn123  1  0.24811566  0.12408389  0.87495935  1
  Zn  Zn124  1  0.25015036  0.62484249  0.37862334  1
  Zn  Zn125  1  0.62519721  0.87487192  0.25166677  1
  Zn  Zn126  1  0.25094765  0.74703313  0.00136870  1
  Zn  Zn127  1  0.49963621  0.12366838  0.62529158  1
  Zn  Zn128  1  0.18730478  0.18548711  0.18709085  1
  Zn  Zn129  1  0.18814861  0.18633973  0.68702417  1
  Zn  Zn130  1  0.18798881  0.68750778  0.18976074  1
  Zn  Zn131  1  0.18809056  0.68502890  0.68767566  1
  Zn  Zn132  1  0.68662122  0.18863579  0.18691840  1
  Zn  Zn133  1  0.68785066  0.18805038  0.68686968  1
  Zn  Zn134  1  0.68462699  0.68762107  0.18865884  1
  Zn  Zn135  1  0.68843871  0.68827445  0.68839469  1
  Zn  Zn136  1  0.31135816  0.31177418  0.31306852  1
  Zn  Zn137  1  0.31342991  0.31428564  0.81369180  1
  Zn  Zn138  1  0.31185782  0.81365595  0.31295179  1
  Zn  Zn139  1  0.31061721  0.81384848  0.81138195  1
  Zn  Zn140  1  0.81266697  0.31210793  0.31236929  1
  Zn  Zn141  1  0.81392637  0.31235655  0.81272156  1
  Zn  Zn142  1  0.81364409  0.81174213  0.31195090  1
  Zn  Zn143  1  0.81329426  0.81277942  0.81267370  1
  Zn  Zn144  1  0.18815623  0.43559645  0.43614924  1
  Zn  Zn145  1  0.18663271  0.43631049  0.93655323  1
  Zn  Zn146  1  0.18802402  0.93564722  0.43760256  1
  Zn  Zn147  1  0.18771827  0.93540386  0.93823071  1
  Zn  Zn148  1  0.68636476  0.43995153  0.43783851  1
  Zn  Zn149  1  0.68652338  0.43701703  0.93646384  1
  Zn  Zn150  1  0.68848991  0.93838088  0.43754633  1
  Zn  Zn151  1  0.68773358  0.93759845  0.93885340  1
  Zn  Zn152  1  0.31194401  0.06288579  0.06290311  1
  Zn  Zn153  1  0.30940714  0.06276479  0.56245016  1
  Zn  Zn154  1  0.31339637  0.56531268  0.06246649  1
  Zn  Zn155  1  0.31234740  0.56417035  0.56278554  1
  Zn  Zn156  1  0.81395485  0.06173342  0.06062840  1
  Zn  Zn157  1  0.81295402  0.06222066  0.56252464  1
  Zn  Zn158  1  0.81435517  0.56362182  0.06242638  1
  Zn  Zn159  1  0.81372542  0.56208822  0.56143821  1
  Zn  Zn160  1  0.43649632  0.43751550  0.18699190  1
  Zn  Zn161  1  0.43750587  0.43741035  0.68697025  1
  Zn  Zn162  1  0.43735518  0.93625521  0.18884280  1
  Zn  Zn163  1  0.43732108  0.93686105  0.68724815  1
  Zn  Zn164  1  0.93461858  0.43837896  0.18693352  1
  Zn  Zn165  1  0.93744072  0.43754427  0.68644332  1
  Zn  Zn166  1  0.93676957  0.93768680  0.18772187  1
  Zn  Zn167  1  0.93735654  0.93831796  0.68814050  1
  Zn  Zn168  1  0.06298375  0.06211916  0.31181690  1
  Zn  Zn169  1  0.06263679  0.06482619  0.81253378  1
  Zn  Zn170  1  0.06403460  0.56407328  0.31333059  1
  Zn  Zn171  1  0.06323461  0.56318120  0.81183270  1
  Zn  Zn172  1  0.56278937  0.06144957  0.31254307  1
  Zn  Zn173  1  0.56138057  0.06364307  0.81249581  1
  Zn  Zn174  1  0.56173737  0.56212658  0.31318599  1
  Zn  Zn175  1  0.56421321  0.56251676  0.81383949  1
  Zn  Zn176  1  0.43870640  0.18761448  0.43652875  1
  Zn  Zn177  1  0.43591051  0.18717689  0.93636215  1
  Zn  Zn178  1  0.43727881  0.68680659  0.43881864  1
  Zn  Zn179  1  0.43766205  0.68610181  0.93883835  1
  Zn  Zn180  1  0.93709788  0.18851602  0.43699210  1
  Zn  Zn181  1  0.93650049  0.18632047  0.93678673  1
  Zn  Zn182  1  0.93729063  0.68873632  0.43822783  1
  Zn  Zn183  1  0.93628127  0.68768851  0.93818558  1
  Zn  Zn184  1  0.06338727  0.31320896  0.06134302  1
  Zn  Zn185  1  0.06313846  0.31390134  0.56232878  1
  Zn  Zn186  1  0.06474409  0.81515669  0.06090890  1
  Zn  Zn187  1  0.06127236  0.81283551  0.56204203  1
  Zn  Zn188  1  0.56384119  0.31320053  0.06216791  1
  Zn  Zn189  1  0.56050567  0.31150497  0.56286342  1
  Zn  Zn190  1  0.56353640  0.81209886  0.06345098  1
  Zn  Zn191  1  0.56188238  0.81154129  0.56198419  1
  O  O192  1  0.11769538  0.11813381  0.12306252  1
  O  O193  1  0.11833589  0.12022680  0.61891508  1
  O  O194  1  0.11451140  0.61907254  0.12555794  1
  O  O195  1  0.11553004  0.62142523  0.62372869  1
  O  O196  1  0.61916816  0.11954169  0.11927374  1
  O  O197  1  0.62475595  0.11836717  0.61525191  1
  O  O198  1  0.62185290  0.61626134  0.12291267  1
  O  O199  1  0.62104959  0.62060796  0.62171904  1
  O  O200  1  0.37975215  0.37867067  0.38194457  1
  O  O201  1  0.38363720  0.38252844  0.87689766  1
  O  O202  1  0.38129312  0.88062578  0.38124695  1
  O  O203  1  0.38120916  0.87980685  0.88015092  1
  O  O204  1  0.88138313  0.37580885  0.38069363  1
  O  O205  1  0.88356036  0.37854422  0.87730141  1
  O  O206  1  0.88078460  0.87616790  0.38181135  1
  O  O207  1  0.88201397  0.88183815  0.87508121  1
  O  O208  1  0.25675928  0.00076936  0.36787604  1
  O  O209  1  0.25639496  0.00006021  0.86898111  1
  O  O210  1  0.25652773  0.49892081  0.36718525  1
  O  O211  1  0.25653508  0.49927361  0.86587175  1
  O  O212  1  0.75114213  0.01042022  0.36833627  1
  O  O213  1  0.75457790  0.00443280  0.87043378  1
  O  O214  1  0.74936549  0.51024891  0.36894928  1
  O  O215  1  0.75096699  0.50641737  0.86836681  1
  O  O216  1  0.24467817  0.49456456  0.13006994  1
  O  O217  1  0.25107266  0.49788614  0.63897882  1
  O  O218  1  0.24554344  0.99499600  0.12957342  1
  O  O219  1  0.24159869  0.99824137  0.63203116  1
  O  O220  1  0.74531675  0.49494615  0.12942033  1
  O  O221  1  0.74462445  0.49495240  0.63073971  1
  O  O222  1  0.74503085  0.99307065  0.12818464  1
  O  O223  1  0.74441482  0.99421804  0.63079494  1
  O  O224  1  0.00496307  0.37044832  0.25361762  1
  O  O225  1  0.00606389  0.37067808  0.75483597  1
  O  O226  1  0.00081463  0.86596330  0.25469733  1
  O  O227  1  0.00505415  0.86920075  0.75524632  1
  O  O228  1  0.50460784  0.36975571  0.25413239  1
  O  O229  1  0.50527697  0.37023990  0.75464413  1
  O  O230  1  0.50111746  0.86869289  0.25790015  1
  O  O231  1  0.50560961  0.86972910  0.75666758  1
  O  O232  1  0.49526721  0.12970114  0.24383641  1
  O  O233  1  0.49296509  0.13120659  0.74786642  1
  O  O234  1  0.49304659  0.63160443  0.24992731  1
  O  O235  1  0.49579008  0.63065379  0.74602795  1
  O  O236  1  0.99422836  0.13077913  0.24392002  1
  O  O237  1  0.99893375  0.13286420  0.74227929  1
  O  O238  1  0.99997749  0.63244769  0.24167444  1
  O  O239  1  0.99406450  0.62970693  0.74434153  1
  O  O240  1  0.36629521  0.25180874  0.00593567  1
  O  O241  1  0.37578787  0.25702445  0.50749693  1
  O  O242  1  0.37608096  0.75665074  0.00716200  1
  O  O243  1  0.37614548  0.75673964  0.50754169  1
  O  O244  1  0.86783405  0.25031052  0.00673800  1
  O  O245  1  0.87413057  0.25748861  0.50635557  1
  O  O246  1  0.86707382  0.75371076  0.00319136  1
  O  O247  1  0.87401435  0.75753562  0.50770796  1
  O  O248  1  0.12459810  0.24463094  0.49302836  1
  O  O249  1  0.13467811  0.25016867  0.99476204  1
  O  O250  1  0.12315077  0.74867733  0.48937898  1
  O  O251  1  0.12578810  0.75025230  0.98751114  1
  O  O252  1  0.62577446  0.23819028  0.49875182  1
  O  O253  1  0.63128958  0.24257359  0.99909653  1
  O  O254  1  0.62700988  0.74301306  0.49385571  1
  O  O255  1  0.63124133  0.74868813  0.99312869  1
  O  O256  1  0.49435325  0.24473273  0.12916588  1
  O  O257  1  0.48835897  0.24866469  0.63127143  1
  O  O258  1  0.49375100  0.75021005  0.13240276  1
  O  O259  1  0.49561025  0.74470942  0.63291426  1
  O  O260  1  0.99543464  0.24525248  0.12934185  1
  O  O261  1  0.99500157  0.24589210  0.62987304  1
  O  O262  1  1.00293829  0.74326181  0.13218944  1
  O  O263  1  0.99426365  0.74468198  0.63098231  1
  O  O264  1  0.00454785  0.25586414  0.36729212  1
  O  O265  1  0.00524533  0.25540503  0.86984805  1
  O  O266  1  0.00605210  0.75406650  0.36748379  1
  O  O267  1  0.00682197  0.75511943  0.86929532  1
  O  O268  1  0.50124489  0.25660955  0.36679792  1
  O  O269  1  0.50052978  0.25670004  0.86911121  1
  O  O270  1  0.50467782  0.75534219  0.37056390  1
  O  O271  1  0.50546237  0.75549404  0.87064852  1
  O  O272  1  0.24036791  0.12744107  0.49678400  1
  O  O273  1  0.24893253  0.13830035  0.99960820  1
  O  O274  1  0.24652591  0.62848880  0.49661398  1
  O  O275  1  0.24569157  0.62847125  0.99613587  1
  O  O276  1  0.74161532  0.12397240  0.49122524  1
  O  O277  1  0.74406884  0.12937988  0.99510439  1
  O  O278  1  0.74419568  0.62562074  0.49099942  1
  O  O279  1  0.74970623  0.63129129  0.99360668  1
  O  O280  1  0.25062992  0.36523037  0.00621322  1
  O  O281  1  0.26276631  0.37216720  0.50114849  1
  O  O282  1  0.25818293  0.87272015  0.00707527  1
  O  O283  1  0.25855508  0.87129127  0.50292384  1
  O  O284  1  0.75020908  0.36867085  0.00642957  1
  O  O285  1  0.75554628  0.37515573  0.50577209  1
  O  O286  1  0.75023893  0.86962634  0.00948201  1
  O  O287  1  0.75620700  0.87457412  0.50707812  1
  O  O288  1  0.12965602  0.49391351  0.24509896  1
  O  O289  1  0.13483470  0.49447199  0.75124775  1
  O  O290  1  0.13153915  0.99878796  0.24288616  1
  O  O291  1  0.12867060  0.99535228  0.74496358  1
  O  O292  1  0.62988674  0.49380072  0.24449580  1
  O  O293  1  0.63102409  0.49430212  0.74443782  1
  O  O294  1  0.63156605  0.99880515  0.24256474  1
  O  O295  1  0.62955977  0.99415833  0.74539712  1
  O  O296  1  0.37090452  0.00546908  0.25526431  1
  O  O297  1  0.37023416  0.00409828  0.75486152  1
  O  O298  1  0.36953766  0.50423491  0.25484917  1
  O  O299  1  0.36894148  0.50429447  0.75521151  1
  O  O300  1  0.86815141  0.00769918  0.25089112  1
  O  O301  1  0.86779688  0.00179496  0.75609967  1
  O  O302  1  0.86616535  0.50321710  0.25273165  1
  O  O303  1  0.86819776  0.50681402  0.74969211  1
  O  O304  1  0.11818498  0.36910200  0.36851013  1
  O  O305  1  0.11883968  0.36878758  0.86845191  1
  O  O306  1  0.11718659  0.86581746  0.37338375  1
  O  O307  1  0.11883303  0.86756713  0.86870076  1
  O  O308  1  0.61869622  0.37445594  0.36891237  1
  O  O309  1  0.61879110  0.37288068  0.86629317  1
  O  O310  1  0.61893499  0.86912727  0.37544721  1
  O  O311  1  0.61967430  0.87028009  0.86990906  1
  O  O312  1  0.38132523  0.13013529  0.13050916  1
  O  O313  1  0.37665873  0.13369744  0.62967745  1
  O  O314  1  0.37834113  0.63170164  0.13326485  1
  O  O315  1  0.38226639  0.63038489  0.63215482  1
  O  O316  1  0.88018949  0.13044897  0.13018688  1
  O  O317  1  0.88125755  0.13200424  0.62518036  1
  O  O318  1  0.88896996  0.62739544  0.12724739  1
  O  O319  1  0.87979756  0.63101892  0.63043353  1
  O  O320  1  0.25390635  0.25484717  0.11820179  1
  O  O321  1  0.26342629  0.25218251  0.62414139  1
  O  O322  1  0.25683096  0.75696236  0.12608828  1
  O  O323  1  0.25898088  0.75172638  0.62578891  1
  O  O324  1  0.75504774  0.25471748  0.11971688  1
  O  O325  1  0.75632255  0.25725473  0.62299913  1
  O  O326  1  0.74932058  0.75840613  0.12115966  1
  O  O327  1  0.75679053  0.75706635  0.62479258  1
  O  O328  1  0.24056415  0.24719365  0.37558671  1
  O  O329  1  0.24551418  0.25116288  0.88444946  1
  O  O330  1  0.23707907  0.75025193  0.37427737  1
  O  O331  1  0.23838393  0.75003887  0.87473505  1
  O  O332  1  0.74723886  0.23729698  0.37586025  1
  O  O333  1  0.74859860  0.24313956  0.88077568  1
  O  O334  1  0.74398915  0.74084533  0.37499969  1
  O  O335  1  0.74506117  0.74576426  0.87956883  1
  O  O336  1  0.00134443  0.11861089  0.00679177  1
  O  O337  1  0.00461157  0.11984645  0.50489911  1
  O  O338  1  0.00279870  0.61755206  0.00844549  1
  O  O339  1  -0.00087213  0.61520063  0.50487323  1
  O  O340  1  0.50396014  0.11960306  0.00553626  1
  O  O341  1  0.50981660  0.11833193  0.49997422  1
  O  O342  1  0.50262266  0.61132737  0.00112242  1
  O  O343  1  0.50673952  0.62325434  0.50829432  1
  O  O344  1  0.48945274  0.37506224  0.49409444  1
  O  O345  1  0.50009056  0.38490742  0.99449906  1
  O  O346  1  0.49470393  0.88061686  0.49462265  1
  O  O347  1  0.49524407  0.88119693  0.99527269  1
  O  O348  1  0.99482534  0.38289542  0.49460753  1
  O  O349  1  1.00008616  0.38428990  0.99483220  1
  O  O350  1  0.99376140  0.88094927  0.49509903  1
  O  O351  1  0.99838317  0.88232295  0.99305537  1
  O  O352  1  0.49241435  0.49207066  0.37630004  1
  O  O353  1  0.49693380  0.49490599  0.88225187  1
  O  O354  1  0.49449124  0.99441459  0.38028928  1
  O  O355  1  0.49430089  0.99393869  0.88062115  1
  O  O356  1  0.99902883  0.49484627  0.38268182  1
  O  O357  1  1.00127137  0.49555486  0.88419289  1
  O  O358  1  0.99887658  0.99355516  0.38094848  1
  O  O359  1  0.99577334  0.99537605  0.87896206  1
  O  O360  1  0.00458993  0.00453450  0.12002030  1
  O  O361  1  0.00504180  0.00604852  0.61986432  1
  O  O362  1  0.00487501  0.50656508  0.11902281  1
  O  O363  1  0.00024667  0.50522363  0.61526250  1
  O  O364  1  0.50449607  0.00509312  0.11996565  1
  O  O365  1  0.50723504  0.00038000  0.61863600  1
  O  O366  1  0.50554998  0.49850981  0.11605847  1
  O  O367  1  0.50717294  0.50722129  0.62587457  1
  O  O368  1  0.24389563  0.38025430  0.24433544  1
  O  O369  1  0.24532198  0.38418498  0.75020606  1
  O  O370  1  0.24999571  0.88306240  0.24252448  1
  O  O371  1  0.24219018  0.88254950  0.74764799  1
  O  O372  1  0.74431962  0.37964729  0.24467134  1
  O  O373  1  0.74479296  0.38015190  0.74382616  1
  O  O374  1  0.74894324  0.88033969  0.24148714  1
  O  O375  1  0.74404871  0.88064356  0.74495767  1
  O  O376  1  0.25810224  0.11824166  0.25007717  1
  O  O377  1  0.25673260  0.11778104  0.75170091  1
  O  O378  1  0.25674167  0.61738129  0.25250379  1
  O  O379  1  0.25672017  0.61466499  0.75341228  1
  O  O380  1  0.75397207  0.12072888  0.25601561  1
  O  O381  1  0.75003326  0.11798293  0.75595035  1
  O  O382  1  0.74949992  0.62005999  0.25946667  1
  O  O383  1  0.75527761  0.62013381  0.75523941  1
  O  O384  1  0.37513176  0.11799776  0.36845132  1
  O  O385  1  0.37278615  0.11734288  0.86835571  1
  O  O386  1  0.37439522  0.61750056  0.36922346  1
  O  O387  1  0.37576886  0.61805829  0.86778606  1
  O  O388  1  0.86554512  0.12431915  0.36881486  1
  O  O389  1  0.86766180  0.11788411  0.87220221  1
  O  O390  1  0.86228213  0.62465414  0.37482031  1
  O  O391  1  0.86909500  0.62320081  0.86740431  1
  O  O392  1  0.12995225  0.38019758  0.13131708  1
  O  O393  1  0.12827493  0.37810960  0.63288115  1
  O  O394  1  0.13234568  0.88189969  0.12714306  1
  O  O395  1  0.12331787  0.88194815  0.63168438  1
  O  O396  1  0.63119488  0.38036515  0.13130325  1
  O  O397  1  0.62953919  0.38021865  0.62926276  1
  O  O398  1  0.63549072  0.88126422  0.12631476  1
  O  O399  1  0.63001933  0.87947722  0.63079006  1
  O  O400  1  0.11878803  0.25547999  0.25326734  1
  O  O401  1  0.12055174  0.25569983  0.75468435  1
  O  O402  1  0.11410554  0.75107067  0.25832639  1
  O  O403  1  0.11904969  0.75515824  0.75681995  1
  O  O404  1  0.61751647  0.25669069  0.25023899  1
  O  O405  1  0.61723126  0.25628232  0.74920281  1
  O  O406  1  0.61714739  0.75208663  0.25810088  1
  O  O407  1  0.61961266  0.75628666  0.75577193  1
  O  O408  1  0.38030086  0.24457990  0.24429024  1
  O  O409  1  0.37905539  0.24592690  0.74294432  1
  O  O410  1  0.38012144  0.74494996  0.24643748  1
  O  O411  1  0.38143344  0.74534043  0.74670417  1
  O  O412  1  0.88068126  0.24465698  0.24325982  1
  O  O413  1  0.88267256  0.24957017  0.74210699  1
  O  O414  1  0.88886735  0.74725351  0.24799038  1
  O  O415  1  0.88095391  0.74459010  0.74489612  1
  O  O416  1  0.37663649  0.48969311  0.49568157  1
  O  O417  1  0.38464365  0.49813452  0.99528995  1
  O  O418  1  0.38026708  0.99525700  0.49558520  1
  O  O419  1  0.38041606  0.99473573  0.99516809  1
  O  O420  1  0.88569255  0.49374144  0.49819421  1
  O  O421  1  0.88911650  0.49829510  0.99949527  1
  O  O422  1  0.88206864  0.99364713  0.49901195  1
  O  O423  1  0.88227653  0.99781518  0.99246524  1
  O  O424  1  0.11891043  0.00117809  0.00614692  1
  O  O425  1  0.11851124  0.00486278  0.50515859  1
  O  O426  1  0.11472432  0.50004591  0.00615023  1
  O  O427  1  0.11269123  0.49846582  0.50061871  1
  O  O428  1  0.61830747  0.00553921  0.00553011  1
  O  O429  1  0.62005384  0.00727706  0.50496357  1
  O  O430  1  0.61624120  0.50004054  0.00558852  1
  O  O431  1  0.62210890  0.50669910  0.50807871  1
  O  O432  1  0.36749518  0.36773925  0.12420454  1
  O  O433  1  0.37552194  0.36688752  0.61661374  1
  O  O434  1  0.37048795  0.87017019  0.11988689  1
  O  O435  1  0.37530097  0.86817782  0.61930037  1
  O  O436  1  0.86810068  0.36769036  0.12313225  1
  O  O437  1  0.86937584  0.37014269  0.61915512  1
  O  O438  1  0.86176912  0.87426869  0.12352853  1
  O  O439  1  0.87019247  0.86996952  0.62100133  1
  O  O440  1  0.12376339  0.13179969  0.38070850  1
  O  O441  1  0.12804418  0.13405125  0.87757343  1
  O  O442  1  0.12564796  0.63628888  0.37751977  1
  O  O443  1  0.12489340  0.63777774  0.87464243  1
  O  O444  1  0.63309210  0.12472068  0.38290571  1
  O  O445  1  0.63108090  0.12543392  0.88199165  1
  O  O446  1  0.63255724  0.62934790  0.38058346  1
  O  O447  1  0.63275106  0.63256717  0.87582383  1
