# generated using pymatgen
data_V3Zn3O8
_symmetry_space_group_name_H-M   'P 1'
_cell_length_a   17.08472029
_cell_length_b   17.08504034
_cell_length_c   17.08485608
_cell_angle_alpha   89.97000526
_cell_angle_beta   89.98934971
_cell_angle_gamma   89.99533918
_symmetry_Int_Tables_number   1
_chemical_formula_structural   V3Zn3O8
_chemical_formula_sum   'V96 Zn96 O256'
_cell_volume   4986.95142108
_cell_formula_units_Z   32
loop_
 _symmetry_equiv_pos_site_id
 _symmetry_equiv_pos_as_xyz
  1  'x, y, z'
loop_
 _atom_site_type_symbol
 _atom_site_label
 _atom_site_symmetry_multiplicity
 _atom_site_fract_x
 _atom_site_fract_y
 _atom_site_fract_z
 _atom_site_occupancy
  V  V0  1  0.87580607  0.24848267  0.62477445  1
  V  V1  1  0.37576423  0.75100658  0.12573191  1
  V  V2  1  0.00077834  0.87650391  0.37578217  1
  V  V3  1  0.12453716  0.62522094  0.50119126  1
  V  V4  1  0.00019408  0.24849856  0.74951502  1
  V  V5  1  0.87408278  0.62291181  0.75017018  1
  V  V6  1  0.12439357  0.50106390  0.12597181  1
  V  V7  1  0.37558576  0.37573078  0.49990637  1
  V  V8  1  0.50001161  0.49991027  0.49932194  1
  V  V9  1  0.62384876  0.74941556  0.87350731  1
  V  V10  1  0.75040013  0.12587762  0.37456865  1
  V  V11  1  0.37403680  0.62537998  0.75125790  1
  V  V12  1  0.25127005  -0.00070778  0.74961330  1
  V  V13  1  0.25064388  0.75074362  0.00064923  1
  V  V14  1  0.12377355  0.24971403  0.87426647  1
  V  V15  1  0.12496000  0.00090653  0.12517899  1
  V  V16  1  0.49953146  0.37323747  0.87437298  1
  V  V17  1  0.75038983  0.00059548  0.24881941  1
  V  V18  1  0.74994074  0.74951969  0.49977018  1
  V  V19  1  0.37574990  0.50003089  0.37638314  1
  V  V20  1  0.75082008  0.24900999  0.49940377  1
  V  V21  1  0.24973787  0.50097764  0.25088184  1
  V  V22  1  -0.00066269  0.37578085  0.37479327  1
  V  V23  1  0.37269415  0.37539755  0.00071354  1
  V  V24  1  0.50040478  0.25100868  0.25114059  1
  V  V25  1  0.12500096  0.49841572  0.62582467  1
  V  V26  1  0.24995147  0.12552702  0.37526995  1
  V  V27  1  0.62655207  0.12468636  0.49897199  1
  V  V28  1  0.75079200  0.12514108  0.87338231  1
  V  V29  1  0.37604177  -0.00086201  0.37458632  1
  V  V30  1  0.75112506  0.50267160  0.25179707  1
  V  V31  1  -0.00055396  0.62768723  0.12740945  1
  V  V32  1  -0.00326690  0.49893489  -0.00104500  1
  V  V33  1  0.87535322  0.12543156  0.24914084  1
  V  V34  1  0.75039105  -0.00067554  0.74974339  1
  V  V35  1  0.50009052  0.62506577  0.12511844  1
  V  V36  1  0.74905059  0.49647816  0.74951587  1
  V  V37  1  0.37632916  0.87665220  -0.00018687  1
  V  V38  1  0.75197989  0.75163873  0.00145081  1
  V  V39  1  0.12557101  0.87582280  0.25069565  1
  V  V40  1  0.25056505  0.62482747  0.87582862  1
  V  V41  1  0.50037771  -0.00101188  0.49869084  1
  V  V42  1  0.37279106  0.25073325  0.12533356  1
  V  V43  1  0.25035609  0.24960052  0.49955488  1
  V  V44  1  0.25070943  0.75081413  0.50191046  1
  V  V45  1  0.25180792  0.12482579  0.87496396  1
  V  V46  1  0.00057672  0.12437850  0.62561616  1
  V  V47  1  -0.00085822  0.87472432  0.87585202  1
  V  V48  1  0.87692683  0.00078843  0.37497760  1
  V  V49  1  0.37349451  0.50001413  0.87590126  1
  V  V50  1  -0.00019059  0.62433795  0.62513065  1
  V  V51  1  0.37452039  0.12528788  0.24875294  1
  V  V52  1  0.25035891  0.62591988  0.37639370  1
  V  V53  1  0.87479428  0.37422083  0.49958436  1
  V  V54  1  0.12453647  0.12557198  -0.00053997  1
  V  V55  1  0.00102998  0.00017282  0.50015652  1
  V  V56  1  0.75006764  0.87338494  0.62435958  1
  V  V57  1  0.50172890  0.75172655  0.25057956  1
  V  V58  1  0.87434652  0.74954124  0.62447460  1
  V  V59  1  -0.00107505  -0.00111418  -0.00060604  1
  V  V60  1  0.00033102  0.74858064  0.75064197  1
  V  V61  1  0.49917834  0.74913274  0.74988812  1
  V  V62  1  0.24914728  0.37546931  0.12551813  1
  V  V63  1  0.12606338  -0.00067240  0.62562656  1
  V  V64  1  0.25083473  0.87609322  0.12528177  1
  V  V65  1  0.37703522  0.24848305  0.62546908  1
  V  V66  1  0.62661949  0.87618253  0.24958045  1
  V  V67  1  0.62419981  0.87260892  0.74897133  1
  V  V68  1  0.12377396  0.37611632  0.25106375  1
  V  V69  1  0.50016149  -0.00003835  -0.00142659  1
  V  V70  1  0.62399064  0.50061402  0.12561189  1
  V  V71  1  0.12494606  0.62536913  0.00091693  1
  V  V72  1  0.50032142  0.12522043  0.62499322  1
  V  V73  1  0.87343527  0.25104315  0.12362953  1
  V  V74  1  0.25092108  0.00098098  0.24985120  1
  V  V75  1  0.62714111  0.00040680  0.12457892  1
  V  V76  1  0.74893783  0.62349952  0.87454846  1
  V  V77  1  0.25008752  0.37455483  0.62526201  1
  V  V78  1  0.12508463  0.75086152  0.37630349  1
  V  V79  1  0.62361842  0.62533947  0.00060606  1
  V  V80  1  0.62521642  -0.00103900  0.62375228  1
  V  V81  1  -0.00026874  0.75019958  0.25024067  1
  V  V82  1  0.74916734  0.37500669  0.12367052  1
  V  V83  1  0.62549309  0.62460936  0.49824240  1
  V  V84  1  0.12481070  0.37334956  0.74992852  1
  V  V85  1  0.37532787  0.87446945  0.50000147  1
  V  V86  1  -0.00130529  0.49907838  0.49952487  1
  V  V87  1  0.62448394  0.49802244  0.62403389  1
  V  V88  1  0.37534425  0.62622073  0.25073104  1
  V  V89  1  -0.00033819  0.12539371  0.12450308  1
  V  V90  1  0.62641696  0.75046654  0.37474127  1
  V  V91  1  0.62566898  0.12812437  -0.00122715  1
  V  V92  1  0.12457012  0.74913466  0.87506952  1
  V  V93  1  0.12653603  0.12544875  0.49958276  1
  V  V94  1  0.00023967  0.25165008  0.24998046  1
  V  V95  1  0.37452845  0.74958936  0.62557883  1
  Zn  Zn96  1  0.12570533  0.87377540  0.74876679  1
  Zn  Zn97  1  0.49859060  0.87560157  0.87299295  1
  Zn  Zn98  1  0.37951352  0.12486415  0.75094397  1
  Zn  Zn99  1  0.75300926  0.62589123  0.37436968  1
  Zn  Zn100  1  0.87422630  0.49601005  0.87480373  1
  Zn  Zn101  1  0.62544455  0.25237264  0.87102496  1
  Zn  Zn102  1  0.87476455  0.37319674  -0.00248621  1
  Zn  Zn103  1  0.75378911  0.87551112  0.12419291  1
  Zn  Zn104  1  0.24814971  0.25091348  -0.00007530  1
  Zn  Zn105  1  0.87567772  0.12296074  0.75036724  1
  Zn  Zn106  1  -0.00209625  0.37365993  0.87500583  1
  Zn  Zn107  1  0.49924201  0.12668381  0.12412582  1
  Zn  Zn108  1  0.87565214  0.87523169  0.50060765  1
  Zn  Zn109  1  0.75029344  0.25245044  -0.00293464  1
  Zn  Zn110  1  0.50114221  0.87535104  0.37440074  1
  Zn  Zn111  1  0.50202640  0.24872509  0.74913127  1
  Zn  Zn112  1  0.87512205  0.75186093  0.12736405  1
  Zn  Zn113  1  0.50207901  0.37495557  0.37473894  1
  Zn  Zn114  1  0.87564577  0.62723300  0.25263490  1
  Zn  Zn115  1  0.62467504  0.25110196  0.37440575  1
  Zn  Zn116  1  0.87368963  0.50247047  0.37564772  1
  Zn  Zn117  1  0.12546764  0.25092082  0.37491621  1
  Zn  Zn118  1  0.37675668  -0.00012111  0.87351071  1
  Zn  Zn119  1  0.62345866  0.37497339  0.25179944  1
  Zn  Zn120  1  0.87444884  -0.00139063  0.87481959  1
  Zn  Zn121  1  0.49821797  0.62397942  0.62519815  1
  Zn  Zn122  1  0.62315223  0.37369045  0.75066498  1
  Zn  Zn123  1  0.74951646  0.37135641  0.62524889  1
  Zn  Zn124  1  0.24909237  0.49902703  0.75107330  1
  Zn  Zn125  1  0.87432403  0.87561332  0.00194379  1
  Zn  Zn126  1  0.24928730  0.87474198  0.62652491  1
  Zn  Zn127  1  0.49870615  0.50001795  0.00141577  1
  Zn  Zn128  1  0.18674903  0.18924944  0.18818683  1
  Zn  Zn129  1  0.18836962  0.18675557  0.68749695  1
  Zn  Zn130  1  0.18691822  0.68865752  0.18841809  1
  Zn  Zn131  1  0.18801859  0.68680877  0.68875628  1
  Zn  Zn132  1  0.68641478  0.18765740  0.18611426  1
  Zn  Zn133  1  0.68567663  0.18908050  0.68841183  1
  Zn  Zn134  1  0.68722356  0.68735722  0.18690074  1
  Zn  Zn135  1  0.68659438  0.68458043  0.68598043  1
  Zn  Zn136  1  0.31336252  0.31318516  0.31330544  1
  Zn  Zn137  1  0.31391607  0.31087965  0.81053127  1
  Zn  Zn138  1  0.31321355  0.81334370  0.31384377  1
  Zn  Zn139  1  0.31372086  0.81403594  0.81408327  1
  Zn  Zn140  1  0.81276259  0.31438837  0.31229826  1
  Zn  Zn141  1  0.81536436  0.31148773  0.81368956  1
  Zn  Zn142  1  0.81372884  0.81395544  0.31306074  1
  Zn  Zn143  1  0.81277072  0.81144758  0.81289432  1
  Zn  Zn144  1  0.18697895  0.43722451  0.43805487  1
  Zn  Zn145  1  0.18596195  0.43705724  0.93727777  1
  Zn  Zn146  1  0.18899621  0.93781821  0.43843553  1
  Zn  Zn147  1  0.18612167  0.93777101  0.93698989  1
  Zn  Zn148  1  0.68647478  0.43342726  0.43536082  1
  Zn  Zn149  1  0.68447906  0.43928847  0.93872514  1
  Zn  Zn150  1  0.68921730  0.93632312  0.43594538  1
  Zn  Zn151  1  0.68602381  0.93691012  0.93497042  1
  Zn  Zn152  1  0.31298051  0.06394403  0.06181366  1
  Zn  Zn153  1  0.31428079  0.06218483  0.56254049  1
  Zn  Zn154  1  0.31330806  0.56224177  0.06275213  1
  Zn  Zn155  1  0.31209948  0.56234749  0.56448726  1
  Zn  Zn156  1  0.81339805  0.06184698  0.06021616  1
  Zn  Zn157  1  0.81389728  0.06227240  0.56239370  1
  Zn  Zn158  1  0.81380191  0.56610301  0.06592135  1
  Zn  Zn159  1  0.81138365  0.56194786  0.56204212  1
  Zn  Zn160  1  0.43660981  0.43716079  0.18790067  1
  Zn  Zn161  1  0.43625333  0.43846196  0.68897029  1
  Zn  Zn162  1  0.44053673  0.93848068  0.18614843  1
  Zn  Zn163  1  0.43661298  0.93675185  0.68629679  1
  Zn  Zn164  1  0.93467596  0.43858204  0.18655922  1
  Zn  Zn165  1  0.93741612  0.43431687  0.68657277  1
  Zn  Zn166  1  0.93614553  0.93541366  0.18570931  1
  Zn  Zn167  1  0.93636434  0.93667366  0.68880080  1
  Zn  Zn168  1  0.06324209  0.06409780  0.31246208  1
  Zn  Zn169  1  0.06444351  0.06174224  0.81189945  1
  Zn  Zn170  1  0.06187702  0.56307700  0.31441223  1
  Zn  Zn171  1  0.06306956  0.56092521  0.81324194  1
  Zn  Zn172  1  0.56236804  0.06431142  0.31223025  1
  Zn  Zn173  1  0.56456308  0.06211584  0.81147680  1
  Zn  Zn174  1  0.56411668  0.56319030  0.31294160  1
  Zn  Zn175  1  0.56014431  0.56106867  0.81300087  1
  Zn  Zn176  1  0.43732480  0.18629075  0.43734818  1
  Zn  Zn177  1  0.43585860  0.18986054  0.93855514  1
  Zn  Zn178  1  0.44012724  0.68761870  0.43806533  1
  Zn  Zn179  1  0.43811815  0.68834277  0.93740486  1
  Zn  Zn180  1  0.93876843  0.18830920  0.43713383  1
  Zn  Zn181  1  0.93581076  0.18714625  0.93734924  1
  Zn  Zn182  1  0.93537020  0.68711799  0.43622805  1
  Zn  Zn183  1  0.93510774  0.68428910  0.93649543  1
  Zn  Zn184  1  0.06259260  0.31303321  0.06269785  1
  Zn  Zn185  1  0.06252645  0.31156627  0.56225386  1
  Zn  Zn186  1  0.06344655  0.81300690  0.06279480  1
  Zn  Zn187  1  0.06266297  0.81414299  0.56407487  1
  Zn  Zn188  1  0.56041159  0.31350823  0.06303891  1
  Zn  Zn189  1  0.56265006  0.31198746  0.56054349  1
  Zn  Zn190  1  0.56507500  0.81396598  0.06307975  1
  Zn  Zn191  1  0.56096761  0.81108820  0.56230082  1
  O  O192  1  0.11963261  0.12013334  0.12037702  1
  O  O193  1  0.12041055  0.11917323  0.61870141  1
  O  O194  1  0.12063364  0.62036780  0.11998898  1
  O  O195  1  0.11928858  0.61945652  0.62032981  1
  O  O196  1  0.62467284  0.11902104  0.11367320  1
  O  O197  1  0.62070045  0.11750414  0.61792253  1
  O  O198  1  0.61839410  0.62073011  0.12009073  1
  O  O199  1  0.62349509  0.61289781  0.61826375  1
  O  O200  1  0.37473297  0.38340582  0.38235550  1
  O  O201  1  0.37895716  0.37957340  0.88066126  1
  O  O202  1  0.37689288  0.88162991  0.38105838  1
  O  O203  1  0.37791708  0.87884508  0.88479343  1
  O  O204  1  0.88226987  0.37718028  0.38182226  1
  O  O205  1  0.87964976  0.37881506  0.88027708  1
  O  O206  1  0.88348335  0.88356502  0.37666942  1
  O  O207  1  0.88795183  0.87442358  0.87749719  1
  O  O208  1  0.25586427  0.00553690  0.36884098  1
  O  O209  1  0.24852203  0.00911255  0.86768279  1
  O  O210  1  0.25491594  0.50695400  0.37072840  1
  O  O211  1  0.25497766  0.50742633  0.87501479  1
  O  O212  1  0.75696590  0.00631675  0.36915396  1
  O  O213  1  0.74929893  0.00804407  0.86840604  1
  O  O214  1  0.74945396  0.50006823  0.36281673  1
  O  O215  1  0.74815087  0.50544995  0.86506635  1
  O  O216  1  0.24422544  0.49634931  0.13181538  1
  O  O217  1  0.24250494  0.49278069  0.62602733  1
  O  O218  1  0.24479050  0.99552830  0.13018367  1
  O  O219  1  0.24539633  1.00106526  0.63426152  1
  O  O220  1  0.74499936  0.49421295  0.13157829  1
  O  O221  1  0.74131178  0.49886373  0.63326915  1
  O  O222  1  0.74451622  1.00043915  0.13118571  1
  O  O223  1  0.74438635  0.99399995  0.62884757  1
  O  O224  1  0.00448635  0.37158309  0.25399595  1
  O  O225  1  0.00760468  0.36663492  0.75003845  1
  O  O226  1  0.00791577  0.87156023  0.25596713  1
  O  O227  1  0.00161265  0.86747648  0.75962403  1
  O  O228  1  0.49866403  0.36323109  0.25090571  1
  O  O229  1  0.49883002  0.37533251  0.76294754  1
  O  O230  1  0.50763463  0.86922287  0.25039139  1
  O  O231  1  0.50641406  0.86805565  0.74987458  1
  O  O232  1  0.49248566  0.13294836  0.24730259  1
  O  O233  1  0.49984855  0.12507785  0.74057015  1
  O  O234  1  0.49424870  0.63185023  0.24480853  1
  O  O235  1  0.49187388  0.63128883  0.74927067  1
  O  O236  1  0.99540261  0.13048534  0.24375703  1
  O  O237  1  1.00034375  0.13014819  0.74308561  1
  O  O238  1  1.00377029  0.63260725  0.24367458  1
  O  O239  1  0.99477581  0.62868803  0.74478759  1
  O  O240  1  0.37047460  0.25690335  0.00775514  1
  O  O241  1  0.36951916  0.25531756  0.50525001  1
  O  O242  1  0.36992946  0.75585009  0.00673404  1
  O  O243  1  0.37007140  0.75386992  0.50477491  1
  O  O244  1  0.87174503  0.25089459  0.00930227  1
  O  O245  1  0.87098333  0.25399879  0.50519817  1
  O  O246  1  0.86165736  0.74840922  -0.00121716  1
  O  O247  1  0.86898040  0.75151200  0.50750035  1
  O  O248  1  0.13244693  0.24308155  0.49878011  1
  O  O249  1  0.12562042  0.24285891  0.99397221  1
  O  O250  1  0.12990346  0.74457178  0.49580143  1
  O  O251  1  0.13164378  0.74464488  0.99578709  1
  O  O252  1  0.63234460  0.24166619  0.49914995  1
  O  O253  1  0.62520543  0.23758893  0.99876871  1
  O  O254  1  0.62985687  0.74483142  0.49532526  1
  O  O255  1  0.63219297  0.74479680  0.99427903  1
  O  O256  1  0.49150709  0.24866992  0.13359218  1
  O  O257  1  0.49373016  0.24291262  0.62262164  1
  O  O258  1  0.49506213  0.74539400  0.13076079  1
  O  O259  1  0.49281751  0.74671406  0.63171281  1
  O  O260  1  0.99460800  0.24474735  0.13045590  1
  O  O261  1  0.99623795  0.24301149  0.62944366  1
  O  O262  1  1.00362613  0.74390050  0.13211897  1
  O  O263  1  0.99538609  0.74372682  0.63038169  1
  O  O264  1  0.00195877  0.25694149  0.36746243  1
  O  O265  1  0.00690026  0.24829828  0.86804394  1
  O  O266  1  0.00736686  0.75639591  0.37146549  1
  O  O267  1  0.00480941  0.75484674  0.87110202  1
  O  O268  1  0.49819469  0.24991809  0.36281946  1
  O  O269  1  0.49887995  0.26172840  0.87389199  1
  O  O270  1  0.50731666  0.75157757  0.36771441  1
  O  O271  1  0.50641120  0.75150673  0.86819605  1
  O  O272  1  0.24601787  0.12947317  0.49456980  1
  O  O273  1  0.24317575  0.12466558  0.99042861  1
  O  O274  1  0.24424269  0.63045315  0.49533631  1
  O  O275  1  0.24495421  0.63156381  0.99647328  1
  O  O276  1  0.74599793  0.12889240  0.49399036  1
  O  O277  1  0.74062269  0.12336765  0.99102197  1
  O  O278  1  0.74286873  0.63163311  0.49937100  1
  O  O279  1  0.74351124  0.63170315  0.99513380  1
  O  O280  1  0.25398727  0.37437928  0.00810062  1
  O  O281  1  0.25527861  0.36991329  0.50562187  1
  O  O282  1  0.25455090  0.87070636  0.00634264  1
  O  O283  1  0.25693278  0.86809740  0.50111211  1
  O  O284  1  0.74998937  0.37578696  0.01236811  1
  O  O285  1  0.75718936  0.36705071  0.50106916  1
  O  O286  1  0.74944427  0.86318220  -0.00179853  1
  O  O287  1  0.75165451  0.86820286  0.50721143  1
  O  O288  1  0.13071223  0.49633523  0.24551139  1
  O  O289  1  0.12538855  0.49279916  0.74310103  1
  O  O290  1  0.13126858  0.99566761  0.24470710  1
  O  O291  1  0.13535317  0.99945238  0.74392885  1
  O  O292  1  0.63330921  0.49928743  0.24303026  1
  O  O293  1  0.63245108  0.50011262  0.74125013  1
  O  O294  1  0.63075585  0.99716237  0.24481320  1
  O  O295  1  0.63059245  0.99255151  0.74269532  1
  O  O296  1  0.36976906  0.00465886  0.25353576  1
  O  O297  1  0.36455875  0.00273552  0.75172592  1
  O  O298  1  0.36889953  0.50699354  0.25550446  1
  O  O299  1  0.37150847  0.50725838  0.75746514  1
  O  O300  1  0.87126307  0.00664788  0.25476173  1
  O  O301  1  0.86583548  0.00224211  0.75238159  1
  O  O302  1  0.86299103  0.50167775  0.25070598  1
  O  O303  1  0.86502174  0.50489644  0.74773336  1
  O  O304  1  0.11861693  0.37451735  0.36840036  1
  O  O305  1  0.12364447  0.36730691  0.86824472  1
  O  O306  1  0.12122602  0.87075199  0.36991086  1
  O  O307  1  0.11527432  0.86755694  0.87421592  1
  O  O308  1  0.61992429  0.36848665  0.36981906  1
  O  O309  1  0.61190978  0.37509446  0.87643926  1
  O  O310  1  0.62363685  0.86909438  0.36756227  1
  O  O311  1  0.62317160  0.86718082  0.86601348  1
  O  O312  1  0.37440314  0.13215170  0.13139331  1
  O  O313  1  0.38293131  0.13107846  0.62377747  1
  O  O314  1  0.37904644  0.63174253  0.13136708  1
  O  O315  1  0.37484879  0.63140605  0.63268359  1
  O  O316  1  0.88042337  0.13010790  0.13037819  1
  O  O317  1  0.88323804  0.13080304  0.62540796  1
  O  O318  1  0.88602511  0.63047030  0.12979680  1
  O  O319  1  0.88072001  0.63001599  0.63030994  1
  O  O320  1  0.25484577  0.25792464  0.12507609  1
  O  O321  1  0.25604827  0.25437612  0.61859501  1
  O  O322  1  0.25553521  0.75624466  0.12064429  1
  O  O323  1  0.25577493  0.75085497  0.61920974  1
  O  O324  1  0.75442975  0.25970091  0.12517762  1
  O  O325  1  0.75730581  0.24918897  0.61763456  1
  O  O326  1  0.74945235  0.75048640  0.11230637  1
  O  O327  1  0.75445281  0.75381258  0.62026319  1
  O  O328  1  0.24954495  0.24338444  0.38132093  1
  O  O329  1  0.24371474  0.23911960  0.87464004  1
  O  O330  1  0.24471260  0.74488541  0.38096843  1
  O  O331  1  0.24488182  0.74522152  0.88191131  1
  O  O332  1  0.75116501  0.24215582  0.38058613  1
  O  O333  1  0.74748332  0.23878397  0.87675141  1
  O  O334  1  0.74348588  0.75055334  0.38169378  1
  O  O335  1  0.74348075  0.74314299  0.88048469  1
  O  O336  1  0.00533149  0.11889888  0.00541492  1
  O  O337  1  0.00693827  0.11958855  0.50502479  1
  O  O338  1  0.00600396  0.61926405  0.00622863  1
  O  O339  1  0.00579053  0.62014551  0.50604797  1
  O  O340  1  0.50825082  0.11734382  -0.00043865  1
  O  O341  1  0.50621153  0.11817131  0.50435048  1
  O  O342  1  0.50547262  0.62534836  0.00771319  1
  O  O343  1  0.50715268  0.61779892  0.50216071  1
  O  O344  1  0.49239200  0.38204458  0.49824562  1
  O  O345  1  0.49122020  0.37684184  0.99229953  1
  O  O346  1  0.49370435  0.88142205  0.49798395  1
  O  O347  1  0.49605308  0.88483736  1.00018539  1
  O  O348  1  0.99543188  0.37959558  0.49502553  1
  O  O349  1  1.00020991  0.38816524  1.00120775  1
  O  O350  1  1.00007936  0.88235890  0.49340661  1
  O  O351  1  1.00182126  0.87958446  0.99059334  1
  O  O352  1  0.49255811  0.50021406  0.38070293  1
  O  O353  1  0.49201551  0.49140724  0.87835986  1
  O  O354  1  0.49336977  0.99947627  0.38068008  1
  O  O355  1  0.49985155  0.99878550  0.88700493  1
  O  O356  1  0.99977422  0.49347598  0.38251335  1
  O  O357  1  0.99977717  0.49992802  0.88762370  1
  O  O358  1  0.99676993  0.99637781  0.37993486  1
  O  O359  1  1.00162414  0.99033812  0.87994021  1
  O  O360  1  0.00633240  0.00580580  0.12060265  1
  O  O361  1  0.00580097  0.00438853  0.62041172  1
  O  O362  1  0.00570461  0.50706445  0.11932897  1
  O  O363  1  0.00543331  0.50502013  0.61937464  1
  O  O364  1  0.50688412  0.00336369  0.11424604  1
  O  O365  1  0.50601620  0.00427602  0.61805161  1
  O  O366  1  0.50505111  0.50752594  0.12561971  1
  O  O367  1  0.50851769  0.50109696  0.61934176  1
  O  O368  1  0.24466703  0.38228138  0.24579006  1
  O  O369  1  0.24316387  0.37506136  0.74254469  1
  O  O370  1  0.24541278  0.88085335  0.24493197  1
  O  O371  1  0.24800730  0.88679822  0.75086964  1
  O  O372  1  0.74899636  0.38282592  0.23892021  1
  O  O373  1  0.74840073  0.38670841  0.74862245  1
  O  O374  1  0.74412908  0.88346526  0.24929507  1
  O  O375  1  0.74397029  0.87805629  0.74394838  1
  O  O376  1  0.25440156  0.11969351  0.25481185  1
  O  O377  1  0.24996080  0.11619977  0.75922014  1
  O  O378  1  0.25512011  0.62114500  0.25623129  1
  O  O379  1  0.25577846  0.62388314  0.75885863  1
  O  O380  1  0.75610178  0.12034537  0.25435818  1
  O  O381  1  0.74807835  0.11794774  0.75901396  1
  O  O382  1  0.75074212  0.61412550  0.24930650  1
  O  O383  1  0.75399442  0.61586840  0.75384452  1
  O  O384  1  0.36867685  0.11827320  0.36917359  1
  O  O385  1  0.36301430  0.12334312  0.87477071  1
  O  O386  1  0.36938500  0.62080282  0.37008319  1
  O  O387  1  0.36909912  0.62080120  0.87177186  1
  O  O388  1  0.87139067  0.11997554  0.36836439  1
  O  O389  1  0.86239481  0.12194132  0.87377541  1
  O  O390  1  0.87114189  0.62049303  0.37113534  1
  O  O391  1  0.86705326  0.62052329  0.86705308  1
  O  O392  1  0.12937851  0.38195721  0.13171679  1
  O  O393  1  0.13043080  0.37905949  0.62938752  1
  O  O394  1  0.13165643  0.88118568  0.13082084  1
  O  O395  1  0.12856954  0.88303803  0.62814802  1
  O  O396  1  0.63305367  0.38119973  0.12617370  1
  O  O397  1  0.62658622  0.38815590  0.62457298  1
  O  O398  1  0.62873286  0.88283956  0.13191702  1
  O  O399  1  0.63054803  0.87915146  0.62953488  1
  O  O400  1  0.11784644  0.25808686  0.25081066  1
  O  O401  1  0.11975380  0.25384965  0.75402277  1
  O  O402  1  0.12157340  0.75693958  0.25707277  1
  O  O403  1  0.11797574  0.74921225  0.75734110  1
  O  O404  1  0.61185876  0.24878107  0.24951491  1
  O  O405  1  0.62040716  0.25670408  0.75227630  1
  O  O406  1  0.62096621  0.75556420  0.25432590  1
  O  O407  1  0.61961259  0.75275933  0.75336828  1
  O  O408  1  0.38037237  0.24491289  0.24509952  1
  O  O409  1  0.37799740  0.24601695  0.73965798  1
  O  O410  1  0.37996996  0.74572154  0.24516669  1
  O  O411  1  0.37906960  0.74548121  0.74592929  1
  O  O412  1  0.88065323  0.24468808  0.24352492  1
  O  O413  1  0.88231196  0.24682561  0.74241405  1
  O  O414  1  0.88542779  0.74976873  0.24981774  1
  O  O415  1  0.87992712  0.74240679  0.74453257  1
  O  O416  1  0.37966263  0.49608086  0.49590140  1
  O  O417  1  0.37542881  0.49359443  0.99428136  1
  O  O418  1  0.38037360  0.99466422  0.49422643  1
  O  O419  1  0.38494262  0.99568153  1.00109397  1
  O  O420  1  0.88156812  0.49276763  0.50086819  1
  O  O421  1  0.88709843  0.50210636  1.00101718  1
  O  O422  1  0.88337733  0.99944398  0.49302811  1
  O  O423  1  0.88425448  0.99758484  0.99645189  1
  O  O424  1  0.11973328  0.00567323  0.00658891  1
  O  O425  1  0.12132087  0.00600900  0.50538908  1
  O  O426  1  0.11740047  0.50636185  0.00650883  1
  O  O427  1  0.11937360  0.50582245  0.50595726  1
  O  O428  1  0.61825222  0.00721681  0.00351811  1
  O  O429  1  0.62088764  0.00419072  0.50453739  1
  O  O430  1  0.62248017  0.50863766  0.00820582  1
  O  O431  1  0.62119457  0.50380212  0.50637790  1
  O  O432  1  0.36766022  0.37125087  0.12078174  1
  O  O433  1  0.36975813  0.36997543  0.61915018  1
  O  O434  1  0.36984716  0.87025654  0.12044214  1
  O  O435  1  0.37220670  0.86763204  0.61774700  1
  O  O436  1  0.86515420  0.36979208  0.12303514  1
  O  O437  1  0.87424512  0.36605154  0.61724153  1
  O  O438  1  0.87192327  0.86950342  0.11943226  1
  O  O439  1  0.86837064  0.86694361  0.62446416  1
  O  O440  1  0.13239129  0.12640958  0.38112373  1
  O  O441  1  0.13299425  0.12944633  0.88001021  1
  O  O442  1  0.13096269  0.63100107  0.38176904  1
  O  O443  1  0.13018664  0.63016011  0.88152861  1
  O  O444  1  0.63299173  0.12578898  0.38142417  1
  O  O445  1  0.63326854  0.12478852  0.88333050  1
  O  O446  1  0.62788502  0.63270391  0.38119817  1
  O  O447  1  0.62946502  0.62968631  0.88026813  1
