# generated using pymatgen
data_V3Zn3O8
_symmetry_space_group_name_H-M   'P 1'
_cell_length_a   17.08961653
_cell_length_b   17.08940137
_cell_length_c   17.08872213
_cell_angle_alpha   89.99390838
_cell_angle_beta   90.00400630
_cell_angle_gamma   90.02330659
_symmetry_Int_Tables_number   1
_chemical_formula_structural   V3Zn3O8
_chemical_formula_sum   'V96 Zn96 O256'
_cell_volume   4990.78333570
_cell_formula_units_Z   32
loop_
 _symmetry_equiv_pos_site_id
 _symmetry_equiv_pos_as_xyz
  1  'x, y, z'
loop_
 _atom_site_type_symbol
 _atom_site_label
 _atom_site_symmetry_multiplicity
 _atom_site_fract_x
 _atom_site_fract_y
 _atom_site_fract_z
 _atom_site_occupancy
  V  V0  1  0.00023229  -0.00117603  0.00041284  1
  V  V1  1  0.37632766  0.24869663  0.12609153  1
  V  V2  1  0.00159735  0.37311960  0.87516081  1
  V  V3  1  0.74910567  0.74917227  -0.00031879  1
  V  V4  1  0.50103127  0.50356468  0.50118372  1
  V  V5  1  0.62468318  0.25148472  0.37459064  1
  V  V6  1  0.62551775  0.00021369  0.62496067  1
  V  V7  1  0.37517017  0.12416463  0.75053154  1
  V  V8  1  0.37443831  0.87598164  0.49944405  1
  V  V9  1  0.24994146  0.75081202  0.49968570  1
  V  V10  1  0.62394102  0.75006832  0.37554832  1
  V  V11  1  0.74873879  0.62579381  0.37348460  1
  V  V12  1  0.25009844  0.62581545  0.87571184  1
  V  V13  1  0.49765694  0.62460601  0.12646290  1
  V  V14  1  0.25128716  0.12397481  0.87471478  1
  V  V15  1  0.87588479  0.12477143  0.74962645  1
  V  V16  1  0.24861817  0.87628533  0.62548155  1
  V  V17  1  0.12382028  0.75069823  0.37519751  1
  V  V18  1  0.12584304  0.12394675  0.00056246  1
  V  V19  1  0.37430588  0.87473979  0.00053866  1
  V  V20  1  0.62495054  0.74952309  0.87521059  1
  V  V21  1  0.62519697  0.50051108  0.62541897  1
  V  V22  1  0.00074113  0.25054084  0.25115730  1
  V  V23  1  0.24919933  0.62486306  0.37418446  1
  V  V24  1  0.00059741  0.12412655  0.12579533  1
  V  V25  1  0.25012741  0.37469876  0.12598318  1
  V  V26  1  0.49995171  0.87593213  0.37400241  1
  V  V27  1  0.62510902  0.00022475  0.12470052  1
  V  V28  1  0.49907875  0.87544624  0.87609827  1
  V  V29  1  0.75070181  0.87429061  0.62498870  1
  V  V30  1  0.87736508  0.37373822  -0.00072072  1
  V  V31  1  0.87478235  -0.00008757  0.37494198  1
  V  V32  1  0.12546322  -0.00135305  0.12594812  1
  V  V33  1  0.74904286  0.87521276  0.12530603  1
  V  V34  1  0.00083907  0.00096873  0.50149588  1
  V  V35  1  -0.00123607  0.62430164  0.12542871  1
  V  V36  1  0.87452504  0.87427563  0.50047835  1
  V  V37  1  0.87481914  0.12457641  0.25096002  1
  V  V38  1  0.25068090  0.12566278  0.37517794  1
  V  V39  1  0.50045485  0.12538455  0.62502188  1
  V  V40  1  0.37599180  0.37498632  -0.00125955  1
  V  V41  1  0.37377580  0.50120748  0.37477487  1
  V  V42  1  0.87489729  0.74895112  0.12484100  1
  V  V43  1  0.12468944  0.25035003  0.37818502  1
  V  V44  1  0.37491432  0.25056069  0.62504458  1
  V  V45  1  0.25047044  0.24929261  0.00064021  1
  V  V46  1  0.75043247  0.12557855  0.37477995  1
  V  V47  1  0.87514180  0.87386614  0.00031390  1
  V  V48  1  -0.00036175  0.87421326  0.37512895  1
  V  V49  1  0.37228833  0.37451102  0.50217926  1
  V  V50  1  0.00101787  0.12456162  0.62413396  1
  V  V51  1  0.62418370  0.87607287  0.24945199  1
  V  V52  1  0.37563844  0.75062109  0.62501123  1
  V  V53  1  0.12445567  0.62548008  0.50071424  1
  V  V54  1  0.75015301  0.37536156  0.62477880  1
  V  V55  1  0.75041632  -0.00036655  0.74998015  1
  V  V56  1  0.37515176  0.62672651  0.75005878  1
  V  V57  1  0.12488389  0.37485273  0.25052396  1
  V  V58  1  0.75067214  0.12451513  0.87466347  1
  V  V59  1  0.62586347  0.37518031  0.74938916  1
  V  V60  1  0.25129525  0.49984635  0.75042727  1
  V  V61  1  0.75061331  0.25129879  0.50055271  1
  V  V62  1  0.24968292  0.87493809  0.12484831  1
  V  V63  1  0.37438586  0.00171953  0.37395212  1
  V  V64  1  0.62621533  0.24939340  0.87381046  1
  V  V65  1  0.49947224  0.75001160  0.74939516  1
  V  V66  1  0.50131920  0.37452033  0.37187276  1
  V  V67  1  0.12534542  0.62400002  0.00072552  1
  V  V68  1  0.12512133  0.87543684  0.74900719  1
  V  V69  1  -0.00016609  0.62503016  0.62542432  1
  V  V70  1  0.87566900  0.49952392  0.87386078  1
  V  V71  1  0.74911735  0.37676513  0.12559358  1
  V  V72  1  0.50047071  0.12584877  0.12478964  1
  V  V73  1  0.00149075  0.24951868  0.75003669  1
  V  V74  1  0.87407119  0.50062642  0.37511320  1
  V  V75  1  0.87420285  0.74992122  0.62544244  1
  V  V76  1  0.62572285  0.12357471  0.00027790  1
  V  V77  1  0.50040562  0.00103409  0.49927966  1
  V  V78  1  0.24863430  0.49989638  0.25079247  1
  V  V79  1  0.87527600  -0.00065865  0.87505978  1
  V  V80  1  0.50078813  0.24977590  0.74973903  1
  V  V81  1  0.87600629  0.24945287  0.12526064  1
  V  V82  1  0.75170508  0.24868586  -0.00069141  1
  V  V83  1  0.87488990  0.62402701  0.75081342  1
  V  V84  1  0.00031163  0.75034133  0.75085694  1
  V  V85  1  0.12484323  0.49943504  0.62548053  1
  V  V86  1  0.87483550  0.25114411  0.62425171  1
  V  V87  1  0.62469552  0.87430296  0.75035957  1
  V  V88  1  0.25086605  0.74979140  0.00105026  1
  V  V89  1  0.12541436  0.24964392  0.87489401  1
  V  V90  1  0.62545360  0.12573496  0.49950539  1
  V  V91  1  0.62385072  0.62236496  0.00070395  1
  V  V92  1  0.49969192  0.37512421  0.87560949  1
  V  V93  1  0.12472654  0.87489886  0.25027994  1
  V  V94  1  0.37494626  -0.00054327  0.87451488  1
  V  V95  1  0.00054984  0.87399842  0.87461869  1
  Zn  Zn96  1  0.37625531  0.12592776  0.24957382  1
  Zn  Zn97  1  0.62539656  0.37565577  0.24725869  1
  Zn  Zn98  1  0.24860212  0.00018727  0.74798496  1
  Zn  Zn99  1  0.37705028  0.50085168  0.87599448  1
  Zn  Zn100  1  0.12499468  0.75033691  0.87452307  1
  Zn  Zn101  1  0.12681476  0.37394162  0.75022446  1
  Zn  Zn102  1  0.12558945  0.12475155  0.50234542  1
  Zn  Zn103  1  0.49575502  0.74950790  0.25020625  1
  Zn  Zn104  1  0.49859473  0.49884960  -0.00083718  1
  Zn  Zn105  1  0.62321172  0.49801208  0.12605645  1
  Zn  Zn106  1  0.12689627  0.00255818  0.62457809  1
  Zn  Zn107  1  0.74946627  0.75039770  0.50055877  1
  Zn  Zn108  1  0.25146950  0.00045661  0.24933053  1
  Zn  Zn109  1  0.24811771  0.24975090  0.50345948  1
  Zn  Zn110  1  0.75019465  0.00041231  0.25036263  1
  Zn  Zn111  1  0.62515315  0.62757646  0.50205635  1
  Zn  Zn112  1  0.74933008  0.62329696  0.87435599  1
  Zn  Zn113  1  -0.00248529  0.74969753  0.25105495  1
  Zn  Zn114  1  -0.00240740  0.37762171  0.37639049  1
  Zn  Zn115  1  0.12339718  0.49852388  0.12647940  1
  Zn  Zn116  1  0.50035863  0.24973315  0.24946550  1
  Zn  Zn117  1  0.50004852  -0.00107927  0.00047685  1
  Zn  Zn118  1  0.24900894  0.37282285  0.62707984  1
  Zn  Zn119  1  0.87384533  0.62548829  0.24865851  1
  Zn  Zn120  1  0.74955423  0.50107844  0.74870993  1
  Zn  Zn121  1  0.37488266  0.75113754  0.12834188  1
  Zn  Zn122  1  0.50207598  0.62662401  0.62589171  1
  Zn  Zn123  1  -0.00165461  0.49924746  0.49923840  1
  Zn  Zn124  1  0.37343984  0.62670788  0.24858368  1
  Zn  Zn125  1  0.74793677  0.50104571  0.24802296  1
  Zn  Zn126  1  0.00241451  0.49733857  0.00125866  1
  Zn  Zn127  1  0.87628341  0.37685956  0.49957689  1
  Zn  Zn128  1  0.18832798  0.18774689  0.18999419  1
  Zn  Zn129  1  0.18821617  0.18692276  0.68760655  1
  Zn  Zn130  1  0.18632782  0.68887445  0.18826285  1
  Zn  Zn131  1  0.18773707  0.68843950  0.68780640  1
  Zn  Zn132  1  0.68658488  0.18996037  0.18974129  1
  Zn  Zn133  1  0.68869464  0.18774171  0.68705466  1
  Zn  Zn134  1  0.68487022  0.68865464  0.18842459  1
  Zn  Zn135  1  0.68834170  0.68496309  0.68812004  1
  Zn  Zn136  1  0.31300485  0.31158138  0.31164466  1
  Zn  Zn137  1  0.31311304  0.31229860  0.81287556  1
  Zn  Zn138  1  0.31205187  0.81216106  0.31016714  1
  Zn  Zn139  1  0.31059743  0.81233749  0.81330358  1
  Zn  Zn140  1  0.81275826  0.31317172  0.31195075  1
  Zn  Zn141  1  0.81345119  0.31330015  0.81048186  1
  Zn  Zn142  1  0.81166157  0.81162074  0.31006673  1
  Zn  Zn143  1  0.81190739  0.81076248  0.81294019  1
  Zn  Zn144  1  0.18652241  0.43795743  0.43751579  1
  Zn  Zn145  1  0.18889075  0.43776524  0.93794436  1
  Zn  Zn146  1  0.18635481  0.93942021  0.43790657  1
  Zn  Zn147  1  0.18786480  0.93712141  0.93614048  1
  Zn  Zn148  1  0.68813830  0.43882197  0.43866488  1
  Zn  Zn149  1  0.68904386  0.43711357  0.93786853  1
  Zn  Zn150  1  0.68859819  0.93768677  0.43737885  1
  Zn  Zn151  1  0.68736020  0.93695327  0.93857765  1
  Zn  Zn152  1  0.31407806  0.06044786  0.06199575  1
  Zn  Zn153  1  0.31169529  0.06286782  0.56140644  1
  Zn  Zn154  1  0.31319479  0.55966971  0.06342408  1
  Zn  Zn155  1  0.31260358  0.56449946  0.56354714  1
  Zn  Zn156  1  0.81245490  0.06115854  0.06367086  1
  Zn  Zn157  1  0.81366943  0.06295268  0.56160403  1
  Zn  Zn158  1  0.81346138  0.56093549  0.05841037  1
  Zn  Zn159  1  0.81021227  0.56362714  0.55991496  1
  Zn  Zn160  1  0.43528417  0.44111013  0.18574291  1
  Zn  Zn161  1  0.43842526  0.43797655  0.68806173  1
  Zn  Zn162  1  0.43723469  0.93972227  0.18813826  1
  Zn  Zn163  1  0.43670590  0.93757220  0.68761353  1
  Zn  Zn164  1  0.93600690  0.43964851  0.19109611  1
  Zn  Zn165  1  0.93872242  0.43579531  0.68878235  1
  Zn  Zn166  1  0.93747278  0.93655870  0.18890411  1
  Zn  Zn167  1  0.93905431  0.93736861  0.68698485  1
  Zn  Zn168  1  0.06321121  0.06174598  0.31331820  1
  Zn  Zn169  1  0.06397631  0.06114452  0.81130513  1
  Zn  Zn170  1  0.06133246  0.56275850  0.31147680  1
  Zn  Zn171  1  0.06233416  0.56236855  0.81335975  1
  Zn  Zn172  1  0.56262354  0.06345501  0.30955167  1
  Zn  Zn173  1  0.56156195  0.06134340  0.81306449  1
  Zn  Zn174  1  0.56532189  0.56016756  0.30804409  1
  Zn  Zn175  1  0.56131775  0.56149734  0.81275074  1
  Zn  Zn176  1  0.43689822  0.18838657  0.43821764  1
  Zn  Zn177  1  0.43853838  0.18752095  0.93882707  1
  Zn  Zn178  1  0.43569313  0.68844294  0.43544694  1
  Zn  Zn179  1  0.43665798  0.68815795  0.93833569  1
  Zn  Zn180  1  0.93770268  0.18750037  0.43880647  1
  Zn  Zn181  1  0.93884131  0.18630186  0.93763485  1
  Zn  Zn182  1  0.93669994  0.68625515  0.43905441  1
  Zn  Zn183  1  0.93850870  0.68668526  0.93790547  1
  Zn  Zn184  1  0.06385038  0.31141462  0.06310680  1
  Zn  Zn185  1  0.05897105  0.31599052  0.56067125  1
  Zn  Zn186  1  0.06330529  0.80984477  0.06284987  1
  Zn  Zn187  1  0.06190735  0.81360977  0.56326046  1
  Zn  Zn188  1  0.56280354  0.31016705  0.06002902  1
  Zn  Zn189  1  0.56250956  0.31404973  0.56135036  1
  Zn  Zn190  1  0.56047039  0.81040680  0.06302984  1
  Zn  Zn191  1  0.56183845  0.81380203  0.56149696  1
  O  O192  1  0.12014284  0.11983450  0.12022571  1
  O  O193  1  0.11665301  0.12421088  0.62295386  1
  O  O194  1  0.11682906  0.62469981  0.11626989  1
  O  O195  1  0.12057688  0.61834817  0.62089181  1
  O  O196  1  0.62136806  0.12136504  0.11926290  1
  O  O197  1  0.62036413  0.11963510  0.62001039  1
  O  O198  1  0.61772639  0.62548412  0.11528179  1
  O  O199  1  0.62214250  0.61782797  0.62184199  1
  O  O200  1  0.38194267  0.37945474  0.38387831  1
  O  O201  1  0.38222426  0.37373620  0.88101010  1
  O  O202  1  0.37959820  0.88084553  0.38110184  1
  O  O203  1  0.37963479  0.87964429  0.87983978  1
  O  O204  1  0.87286917  0.38715877  0.37600213  1
  O  O205  1  0.88130457  0.37996694  0.87885552  1
  O  O206  1  0.87930865  0.87953630  0.38010309  1
  O  O207  1  0.87986160  0.88033865  0.88052215  1
  O  O208  1  0.25525354  0.00978847  0.37542161  1
  O  O209  1  0.25680556  0.00690363  0.87322750  1
  O  O210  1  0.25416571  0.50530306  0.37092436  1
  O  O211  1  0.25019819  0.50617329  0.86394678  1
  O  O212  1  0.75687970  0.00767190  0.37485039  1
  O  O213  1  0.75561186  0.00457658  0.86951955  1
  O  O214  1  0.75540997  0.50968760  0.37512542  1
  O  O215  1  0.76434825  0.49872344  0.87292524  1
  O  O216  1  0.24795278  0.49196237  0.13272859  1
  O  O217  1  0.24160104  0.50197204  0.63442039  1
  O  O218  1  0.24222593  0.99368230  0.12506434  1
  O  O219  1  0.24891340  0.99204228  0.62635376  1
  O  O220  1  0.75154218  0.48675213  0.12204811  1
  O  O221  1  0.74298971  0.49348445  0.62514472  1
  O  O222  1  0.74394566  0.99277465  0.12586821  1
  O  O223  1  0.74511443  0.99535140  0.63086097  1
  O  O224  1  0.00590364  0.36775490  0.25263813  1
  O  O225  1  0.00318917  0.36654042  0.75722005  1
  O  O226  1  0.00632165  0.87334026  0.25733909  1
  O  O227  1  0.00428352  0.86955992  0.75530990  1
  O  O228  1  0.49772550  0.37588430  0.26432577  1
  O  O229  1  0.50578059  0.36821266  0.75475455  1
  O  O230  1  0.50686926  0.87478015  0.25717002  1
  O  O231  1  0.50572828  0.86984419  0.75538400  1
  O  O232  1  0.49873483  0.12826558  0.23950692  1
  O  O233  1  0.49590562  0.13048320  0.74446569  1
  O  O234  1  0.49861720  0.62463007  0.23864678  1
  O  O235  1  0.49329343  0.63278191  0.74943185  1
  O  O236  1  0.99509921  0.13005410  0.24450318  1
  O  O237  1  0.99407790  0.12991128  0.74570554  1
  O  O238  1  0.99985800  0.62790417  0.23619488  1
  O  O239  1  0.99489174  0.63082572  0.74498461  1
  O  O240  1  0.36867787  0.25476689  0.00546048  1
  O  O241  1  0.37620536  0.26074877  0.50619250  1
  O  O242  1  0.36752404  0.75748734  0.00182857  1
  O  O243  1  0.36970110  0.75665498  0.50437265  1
  O  O244  1  0.87108189  0.25325243  0.00517002  1
  O  O245  1  0.86757659  0.25034316  0.50692326  1
  O  O246  1  0.86926649  0.75522200  0.00430519  1
  O  O247  1  0.87392473  0.75700969  0.50807425  1
  O  O248  1  0.12615739  0.24993988  0.48909493  1
  O  O249  1  0.13073302  0.24259957  0.99503429  1
  O  O250  1  0.13059038  0.74543478  0.49552688  1
  O  O251  1  0.13083523  0.73891201  0.99846652  1
  O  O252  1  0.63010383  0.24428885  0.49536952  1
  O  O253  1  0.63279754  0.24305389  0.99221663  1
  O  O254  1  0.62578789  0.75081686  0.48767652  1
  O  O255  1  0.62950694  0.74190160  0.99472454  1
  O  O256  1  0.49447726  0.24318237  0.12450366  1
  O  O257  1  0.49592279  0.24454077  0.62999122  1
  O  O258  1  0.49850525  0.73819707  0.12747467  1
  O  O259  1  0.49364033  0.75113636  0.63115752  1
  O  O260  1  0.99560180  0.24312488  0.13052447  1
  O  O261  1  0.99450500  0.24516369  0.63048322  1
  O  O262  1  0.99336231  0.74024689  0.12381765  1
  O  O263  1  0.99357782  0.74493231  0.63123660  1
  O  O264  1  0.00969915  0.24870182  0.36921752  1
  O  O265  1  0.00568657  0.25279174  0.86996758  1
  O  O266  1  0.00612004  0.75617732  0.37550964  1
  O  O267  1  0.00023988  0.75683107  0.86885279  1
  O  O268  1  0.50536325  0.26025197  0.37753474  1
  O  O269  1  0.50718565  0.25383611  0.86881074  1
  O  O270  1  0.50839813  0.75677340  0.37550047  1
  O  O271  1  0.50530729  0.75637141  0.86895894  1
  O  O272  1  0.24823942  0.12842986  0.48815767  1
  O  O273  1  0.24478476  0.13008220  0.99492278  1
  O  O274  1  0.24439737  0.63134918  0.49486510  1
  O  O275  1  0.24287413  0.62873816  0.99672050  1
  O  O276  1  0.74427299  0.13077771  0.49527251  1
  O  O277  1  0.74675332  0.12935405  0.99386649  1
  O  O278  1  0.74603621  0.62960606  0.48696840  1
  O  O279  1  0.74037969  0.63085744  0.99861541  1
  O  O280  1  0.25478028  0.36789542  0.00535136  1
  O  O281  1  0.26388723  0.37608772  0.50135794  1
  O  O282  1  0.25370656  0.86937540  0.00483085  1
  O  O283  1  0.25536253  0.86970359  0.50430955  1
  O  O284  1  0.75745667  0.36734387  0.00569514  1
  O  O285  1  0.75036188  0.36770749  0.50745740  1
  O  O286  1  0.75564620  0.86918600  0.00522475  1
  O  O287  1  0.75668465  0.87488391  0.50763858  1
  O  O288  1  0.13111150  0.49220035  0.25034580  1
  O  O289  1  0.13426156  0.50161327  0.74185207  1
  O  O290  1  0.12562586  0.99321530  0.24314377  1
  O  O291  1  0.12683771  0.99086516  0.74672495  1
  O  O292  1  0.63091524  0.49243623  0.24422931  1
  O  O293  1  0.62578083  0.49280662  0.74373920  1
  O  O294  1  0.62800479  0.99393081  0.24298597  1
  O  O295  1  0.63059970  0.99462532  0.74473792  1
  O  O296  1  0.37196815  0.00396330  0.25933214  1
  O  O297  1  0.37462433  0.00704699  0.75634795  1
  O  O298  1  0.36642955  0.50135320  0.25824544  1
  O  O299  1  0.36530338  0.50662779  0.74869765  1
  O  O300  1  0.87409577  0.00676440  0.25679580  1
  O  O301  1  0.86984148  0.00468090  0.75575683  1
  O  O302  1  0.86901505  0.50485660  0.26068855  1
  O  O303  1  0.87558474  0.50474984  0.75903636  1
  O  O304  1  0.12569311  0.36498334  0.36962622  1
  O  O305  1  0.11979189  0.36739054  0.87517378  1
  O  O306  1  0.11942486  0.87004560  0.37079332  1
  O  O307  1  0.11755276  0.87342035  0.86869627  1
  O  O308  1  0.61462345  0.37025165  0.37793037  1
  O  O309  1  0.62150623  0.36799772  0.86999051  1
  O  O310  1  0.62057501  0.86922621  0.37078751  1
  O  O311  1  0.62007915  0.87005516  0.86951427  1
  O  O312  1  0.38254997  0.13048475  0.12357100  1
  O  O313  1  0.38193495  0.13003046  0.62951702  1
  O  O314  1  0.38547340  0.62628686  0.12419002  1
  O  O315  1  0.37706814  0.63344096  0.63128103  1
  O  O316  1  0.88085557  0.12951455  0.12987500  1
  O  O317  1  0.87961749  0.13085698  0.63137643  1
  O  O318  1  0.88328580  0.62984914  0.12181135  1
  O  O319  1  0.87978716  0.62964051  0.63038274  1
  O  O320  1  0.25516754  0.25425893  0.11975490  1
  O  O321  1  0.25833264  0.25317691  0.62304929  1
  O  O322  1  0.24978922  0.75720294  0.11808959  1
  O  O323  1  0.25597526  0.75545945  0.61865399  1
  O  O324  1  0.75681320  0.25571667  0.11837125  1
  O  O325  1  0.75509255  0.25456233  0.62011586  1
  O  O326  1  0.75424201  0.75551116  0.11887938  1
  O  O327  1  0.75580144  0.75686112  0.62474737  1
  O  O328  1  0.24154482  0.24328622  0.37640025  1
  O  O329  1  0.24539326  0.24372010  0.88082605  1
  O  O330  1  0.24357289  0.74544558  0.38143491  1
  O  O331  1  0.24713672  0.74307756  0.88253750  1
  O  O332  1  0.74503927  0.24509236  0.38089310  1
  O  O333  1  0.74652218  0.24382527  0.87898443  1
  O  O334  1  0.74062115  0.74425842  0.37579141  1
  O  O335  1  0.74289422  0.74895566  0.88193898  1
  O  O336  1  0.00565568  0.11877834  0.00597294  1
  O  O337  1  -0.00029629  0.11841282  0.50683446  1
  O  O338  1  0.00903627  0.62417026  0.00782497  1
  O  O339  1  0.00729476  0.62330874  0.50843233  1
  O  O340  1  0.50861631  0.12413058  0.00670478  1
  O  O341  1  0.50604563  0.12042943  0.50563117  1
  O  O342  1  0.50881415  0.62529331  0.00668247  1
  O  O343  1  0.49904216  0.61250573  0.50005332  1
  O  O344  1  0.49178543  0.38369507  0.49299537  1
  O  O345  1  0.49423722  0.37391555  0.99277837  1
  O  O346  1  0.49430852  0.88236687  0.49429636  1
  O  O347  1  0.49348712  0.87506442  0.99309588  1
  O  O348  1  0.99453487  0.38136429  0.49436546  1
  O  O349  1  0.99481133  0.37418833  0.99380366  1
  O  O350  1  0.99340790  0.88039734  0.49495068  1
  O  O351  1  0.99483870  0.87951970  0.99522111  1
  O  O352  1  0.49547003  0.49305601  0.38322189  1
  O  O353  1  0.49715850  0.49035878  0.87653674  1
  O  O354  1  0.49582976  0.99633673  0.38098263  1
  O  O355  1  0.49399292  0.99296479  0.87636928  1
  O  O356  1  0.98749122  0.50213384  0.37557206  1
  O  O357  1  0.99106092  0.49294587  0.87563405  1
  O  O358  1  0.99399926  0.99449803  0.38105455  1
  O  O359  1  0.99392860  0.99489654  0.88102725  1
  O  O360  1  0.00487014  0.00474630  0.11914473  1
  O  O361  1  -0.00102359  0.00705951  0.61848298  1
  O  O362  1  0.00095156  0.51024521  0.12242822  1
  O  O363  1  0.01080081  0.50649457  0.62775111  1
  O  O364  1  0.50741856  0.00787566  0.12224871  1
  O  O365  1  0.50596827  0.00536266  0.61951895  1
  O  O366  1  0.50204790  0.50965917  0.11997426  1
  O  O367  1  0.50538114  0.49999605  0.61568756  1
  O  O368  1  0.24468630  0.37973231  0.24554608  1
  O  O369  1  0.24914824  0.38711576  0.74900113  1
  O  O370  1  0.24195104  0.87730725  0.24346147  1
  O  O371  1  0.24327308  0.87498089  0.74346014  1
  O  O372  1  0.75073621  0.37300784  0.23476643  1
  O  O373  1  0.74273706  0.37506126  0.74281958  1
  O  O374  1  0.74275214  0.87703008  0.24249388  1
  O  O375  1  0.74457143  0.88050434  0.74520095  1
  O  O376  1  0.25176328  0.12345395  0.26312647  1
  O  O377  1  0.25813376  0.12421957  0.75720373  1
  O  O378  1  0.24810270  0.61795095  0.25704435  1
  O  O379  1  0.25473794  0.61887555  0.75503110  1
  O  O380  1  0.75718647  0.12500804  0.25694115  1
  O  O381  1  0.75571705  0.11927647  0.75518781  1
  O  O382  1  0.74966566  0.62521589  0.26212006  1
  O  O383  1  0.75888410  0.62169362  0.75461258  1
  O  O384  1  0.36689455  0.12118569  0.37571694  1
  O  O385  1  0.37097243  0.12048539  0.87038890  1
  O  O386  1  0.36653984  0.61795756  0.37558082  1
  O  O387  1  0.36797316  0.62396556  0.86828632  1
  O  O388  1  0.87003297  0.12018549  0.37015046  1
  O  O389  1  0.87019582  0.11902200  0.86990067  1
  O  O390  1  0.86539820  0.62024309  0.37370948  1
  O  O391  1  0.87613961  0.61470671  0.87087146  1
  O  O392  1  0.13200957  0.37422841  0.13195711  1
  O  O393  1  0.12735831  0.38727277  0.62677946  1
  O  O394  1  0.12893083  0.87972507  0.12928895  1
  O  O395  1  0.13100807  0.87556042  0.63140856  1
  O  O396  1  0.63764425  0.37378185  0.12095229  1
  O  O397  1  0.62952386  0.37969509  0.63026897  1
  O  O398  1  0.62934455  0.87930644  0.12896866  1
  O  O399  1  0.62994485  0.88107105  0.63056108  1
  O  O400  1  0.12043903  0.25477880  0.25873449  1
  O  O401  1  0.11948148  0.25072401  0.75757583  1
  O  O402  1  0.12229944  0.75709949  0.25792792  1
  O  O403  1  0.11773703  0.75628574  0.75128579  1
  O  O404  1  0.62130724  0.25594850  0.25901767  1
  O  O405  1  0.62014918  0.25417341  0.75462511  1
  O  O406  1  0.62204034  0.75702641  0.26154720  1
  O  O407  1  0.61991980  0.75562683  0.75487033  1
  O  O408  1  0.37829195  0.24800971  0.24148772  1
  O  O409  1  0.38179820  0.24424350  0.74499202  1
  O  O410  1  0.37789953  0.74500158  0.24719323  1
  O  O411  1  0.37998090  0.74648233  0.74451668  1
  O  O412  1  0.88127445  0.24382455  0.24507307  1
  O  O413  1  0.88083698  0.24337835  0.74491688  1
  O  O414  1  0.87736510  0.74700156  0.24024275  1
  O  O415  1  0.88056065  0.74479292  0.74513948  1
  O  O416  1  0.38205730  0.49317660  0.49681021  1
  O  O417  1  0.37517765  0.48961786  0.99593535  1
  O  O418  1  0.38182874  0.99533488  0.49444381  1
  O  O419  1  0.37695724  0.99257523  0.99181689  1
  O  O420  1  0.87530746  0.50064864  0.48831216  1
  O  O421  1  0.87822078  0.49249835  0.98889065  1
  O  O422  1  0.88048722  0.99423369  0.49442867  1
  O  O423  1  0.88046078  0.99424477  0.99475740  1
  O  O424  1  0.11898806  0.00476632  0.00522270  1
  O  O425  1  0.11495708  0.00254522  0.50219878  1
  O  O426  1  0.12479736  0.51186759  0.00250730  1
  O  O427  1  0.12685083  0.50687326  0.51081402  1
  O  O428  1  0.62470159  0.00651935  0.00605109  1
  O  O429  1  0.62013072  0.00572648  0.50564058  1
  O  O430  1  0.62492342  0.51215676  0.00011686  1
  O  O431  1  0.61402615  0.49992956  0.50569927  1
  O  O432  1  0.36964029  0.36857897  0.11915960  1
  O  O433  1  0.37609263  0.37003893  0.61624403  1
  O  O434  1  0.36792862  0.87613575  0.11823266  1
  O  O435  1  0.36994462  0.87010159  0.61872860  1
  O  O436  1  0.86971345  0.36842887  0.11931882  1
  O  O437  1  0.86844774  0.36828448  0.62528413  1
  O  O438  1  0.87017069  0.87017547  0.11858951  1
  O  O439  1  0.86973815  0.86979608  0.62116077  1
  O  O440  1  0.13259118  0.13452280  0.37526169  1
  O  O441  1  0.13032866  0.12917967  0.88126076  1
  O  O442  1  0.12943006  0.63033793  0.38130550  1
  O  O443  1  0.12961996  0.62606794  0.88496811  1
  O  O444  1  0.62989309  0.13044181  0.38086680  1
  O  O445  1  0.63165601  0.12934781  0.87873754  1
  O  O446  1  0.63038852  0.63391183  0.37566888  1
  O  O447  1  0.62462335  0.63099862  0.88401167  1
