# generated using pymatgen
data_V3Zn3O8
_symmetry_space_group_name_H-M   'P 1'
_cell_length_a   17.08635490
_cell_length_b   17.08641044
_cell_length_c   17.08658092
_cell_angle_alpha   89.98735970
_cell_angle_beta   90.00987120
_cell_angle_gamma   90.02033455
_symmetry_Int_Tables_number   1
_chemical_formula_structural   V3Zn3O8
_chemical_formula_sum   'V96 Zn96 O256'
_cell_volume   4988.33234924
_cell_formula_units_Z   32
loop_
 _symmetry_equiv_pos_site_id
 _symmetry_equiv_pos_as_xyz
  1  'x, y, z'
loop_
 _atom_site_type_symbol
 _atom_site_label
 _atom_site_symmetry_multiplicity
 _atom_site_fract_x
 _atom_site_fract_y
 _atom_site_fract_z
 _atom_site_occupancy
  V  V0  1  0.12598157  0.24956945  0.37378821  1
  V  V1  1  0.62624792  -0.00065491  0.62650960  1
  V  V2  1  0.75000747  0.24980027  0.50045637  1
  V  V3  1  0.12424880  0.75032983  0.37498632  1
  V  V4  1  0.12495309  0.87493552  0.25106728  1
  V  V5  1  0.50060629  -0.00100683  0.49999522  1
  V  V6  1  0.75052750  0.25040870  -0.00031137  1
  V  V7  1  0.37519038  0.62534289  0.25114197  1
  V  V8  1  0.87684005  0.74950143  0.12539153  1
  V  V9  1  0.50054747  0.87542696  0.87493980  1
  V  V10  1  0.37278012  0.62493011  0.75131574  1
  V  V11  1  0.87586229  -0.00113342  0.37520013  1
  V  V12  1  0.37566140  0.00070403  0.87422911  1
  V  V13  1  0.74980136  0.62491954  0.87523088  1
  V  V14  1  0.75035938  -0.00024674  0.25027100  1
  V  V15  1  0.37485267  0.12513340  0.25045425  1
  V  V16  1  0.24848057  0.75002930  0.50147211  1
  V  V17  1  0.62483018  0.00061618  0.12628588  1
  V  V18  1  0.12364979  0.62495314  0.50057942  1
  V  V19  1  0.74969679  0.87423403  0.62691294  1
  V  V20  1  0.87679872  0.87524612  0.49935169  1
  V  V21  1  0.12543435  0.00078974  0.12370344  1
  V  V22  1  0.49935633  0.00096773  0.00028269  1
  V  V23  1  0.50003173  0.12615760  0.12565697  1
  V  V24  1  0.50047367  0.37527081  0.37491180  1
  V  V25  1  0.00071230  0.12443861  0.62448551  1
  V  V26  1  -0.00085463  0.74900225  0.75037886  1
  V  V27  1  0.25076100  0.37510147  0.12438307  1
  V  V28  1  0.12444887  0.87407409  0.74988761  1
  V  V29  1  0.24908419  0.37519849  0.62447739  1
  V  V30  1  0.50092330  0.62285907  0.62365724  1
  V  V31  1  0.62441681  0.62463314  0.00130964  1
  V  V32  1  0.74765899  0.49886654  0.74919176  1
  V  V33  1  0.74956047  0.62375109  0.37569283  1
  V  V34  1  0.24932282  0.62536899  0.87570991  1
  V  V35  1  0.62532866  0.12396419  0.50010715  1
  V  V36  1  0.75004789  0.87436021  0.12573365  1
  V  V37  1  0.24985307  0.24958233  0.49849068  1
  V  V38  1  -0.00004278  0.24982289  0.74946060  1
  V  V39  1  0.50105445  0.25115631  0.25058539  1
  V  V40  1  0.62279522  0.25304326  0.87258805  1
  V  V41  1  0.62555581  0.74801952  0.37593656  1
  V  V42  1  0.00039685  0.37408829  0.87428056  1
  V  V43  1  0.24997926  0.75040305  0.00036972  1
  V  V44  1  0.74864369  0.37477877  0.62557850  1
  V  V45  1  0.49989033  0.75107527  0.75137775  1
  V  V46  1  0.87496861  0.37458247  0.49858581  1
  V  V47  1  0.49974714  0.87445422  0.37615706  1
  V  V48  1  0.62480713  0.12562079  0.00058014  1
  V  V49  1  0.12492694  0.62518174  0.00024947  1
  V  V50  1  0.37428531  0.75001824  0.62605557  1
  V  V51  1  0.37547339  0.25081655  0.12453436  1
  V  V52  1  0.87656941  0.37530302  -0.00107143  1
  V  V53  1  -0.00129450  0.87438323  0.87540334  1
  V  V54  1  0.75047249  0.12474933  0.37498590  1
  V  V55  1  0.25049699  0.12595525  0.37408006  1
  V  V56  1  -0.00068313  0.37500536  0.37415121  1
  V  V57  1  -0.00048345  -0.00016861  -0.00066573  1
  V  V58  1  0.25088297  0.50055768  0.25031267  1
  V  V59  1  0.74977890  0.74972179  0.00101413  1
  V  V60  1  0.37554372  0.50010782  0.37506605  1
  V  V61  1  0.37555295  0.87526787  0.50036392  1
  V  V62  1  0.87416072  0.62509166  0.74983996  1
  V  V63  1  0.12425042  0.00109851  0.62389454  1
  V  V64  1  0.49964289  0.50094028  -0.00018736  1
  V  V65  1  0.50083401  0.62536647  0.12485546  1
  V  V66  1  0.74833271  0.37692023  0.12585404  1
  V  V67  1  0.37620668  0.12639054  0.74816266  1
  V  V68  1  0.87535562  0.24838764  0.62543815  1
  V  V69  1  0.87481042  0.74992911  0.62537050  1
  V  V70  1  0.87564753  0.12461045  0.24893465  1
  V  V71  1  0.37422087  0.87565505  0.00061048  1
  V  V72  1  0.12515667  0.37553091  0.24912522  1
  V  V73  1  0.24985348  0.12578393  0.87534559  1
  V  V74  1  0.62430375  0.75150897  0.87581668  1
  V  V75  1  0.12505804  0.50090215  0.12474307  1
  V  V76  1  0.87612133  0.62314109  0.25039037  1
  V  V77  1  0.75201550  0.12316549  0.87370439  1
  V  V78  1  0.37374360  0.50078548  0.87584856  1
  V  V79  1  0.24970262  0.87521683  0.62578042  1
  V  V80  1  -0.00055856  0.49910585  0.49891087  1
  V  V81  1  0.62462992  0.87472800  0.25131683  1
  V  V82  1  0.25022403  0.00167522  0.25001093  1
  V  V83  1  0.37559884  0.37629815  -0.00089864  1
  V  V84  1  0.24971530  0.24935444  -0.00132406  1
  V  V85  1  0.12373404  0.49903171  0.62406249  1
  V  V86  1  0.37565668  0.37607917  0.49971317  1
  V  V87  1  0.00089608  0.50003930  -0.00055997  1
  V  V88  1  0.37485370  0.75155750  0.12534912  1
  V  V89  1  0.87600310  0.24922685  0.12453860  1
  V  V90  1  0.25065663  -0.00001628  0.74976215  1
  V  V91  1  0.62489531  0.25074277  0.37503072  1
  V  V92  1  0.37586699  0.24981974  0.62530691  1
  V  V93  1  0.49924919  0.75028567  0.25057198  1
  V  V94  1  -0.00009189  0.24931132  0.24838830  1
  V  V95  1  0.12418318  0.37428287  0.74891883  1
  Zn  Zn96  1  -0.00040977  0.12543914  0.12228146  1
  Zn  Zn97  1  0.12482550  0.12350394  0.49834127  1
  Zn  Zn98  1  0.50098169  0.12687859  0.62574550  1
  Zn  Zn99  1  0.12475280  0.12637985  -0.00211510  1
  Zn  Zn100  1  0.49905436  0.37666071  0.87251406  1
  Zn  Zn101  1  0.62554111  0.87603578  0.75178413  1
  Zn  Zn102  1  0.00171380  0.74938980  0.24971763  1
  Zn  Zn103  1  0.37513922  0.00036645  0.37546768  1
  Zn  Zn104  1  0.25070722  0.62426591  0.37592935  1
  Zn  Zn105  1  0.74780563  0.49861457  0.25002237  1
  Zn  Zn106  1  0.87338650  -0.00078298  0.87450383  1
  Zn  Zn107  1  0.00255823  0.00171663  0.49783073  1
  Zn  Zn108  1  0.49916092  0.25283760  0.74846621  1
  Zn  Zn109  1  0.00153537  0.62552724  0.12540815  1
  Zn  Zn110  1  0.62497016  0.49975424  0.12603544  1
  Zn  Zn111  1  0.62302668  0.49810115  0.62246857  1
  Zn  Zn112  1  -0.00173205  0.62378329  0.62519787  1
  Zn  Zn113  1  0.24772867  0.50022459  0.75029177  1
  Zn  Zn114  1  0.62594208  0.37711790  0.25036802  1
  Zn  Zn115  1  0.62621157  0.62355253  0.50109461  1
  Zn  Zn116  1  0.75201729  -0.00073646  0.75288603  1
  Zn  Zn117  1  0.74965534  0.74748185  0.50074745  1
  Zn  Zn118  1  0.25063290  0.87547121  0.12396533  1
  Zn  Zn119  1  0.87369693  0.49896572  0.37358672  1
  Zn  Zn120  1  -0.00037853  0.87661424  0.37505348  1
  Zn  Zn121  1  0.62049333  0.37573257  0.74782292  1
  Zn  Zn122  1  0.12478653  0.24817054  0.87539622  1
  Zn  Zn123  1  0.87603783  0.12179536  0.75042584  1
  Zn  Zn124  1  0.12480462  0.74851730  0.87565961  1
  Zn  Zn125  1  0.87423413  0.87456465  0.00022800  1
  Zn  Zn126  1  0.50193018  0.50067881  0.49890070  1
  Zn  Zn127  1  0.87496547  0.49941058  0.87488030  1
  Zn  Zn128  1  0.18711944  0.18683043  0.18583580  1
  Zn  Zn129  1  0.18731176  0.18797350  0.68712857  1
  Zn  Zn130  1  0.19033991  0.68681948  0.18649314  1
  Zn  Zn131  1  0.18481169  0.68606963  0.68809714  1
  Zn  Zn132  1  0.68802198  0.18936236  0.18843687  1
  Zn  Zn133  1  0.68822208  0.18695172  0.68886902  1
  Zn  Zn134  1  0.68814393  0.68701854  0.18913535  1
  Zn  Zn135  1  0.68588726  0.68794380  0.68937563  1
  Zn  Zn136  1  0.31391105  0.31334715  0.31213403  1
  Zn  Zn137  1  0.31117531  0.31331613  0.81181871  1
  Zn  Zn138  1  0.31084983  0.81374161  0.31372578  1
  Zn  Zn139  1  0.31244279  0.81196017  0.81413381  1
  Zn  Zn140  1  0.81320188  0.31106339  0.31170246  1
  Zn  Zn141  1  0.81348338  0.31195541  0.81131194  1
  Zn  Zn142  1  0.81172552  0.81001518  0.31246516  1
  Zn  Zn143  1  0.81346563  0.81193732  0.81259689  1
  Zn  Zn144  1  0.18752440  0.43741244  0.43699160  1
  Zn  Zn145  1  0.18693974  0.43715868  0.93624871  1
  Zn  Zn146  1  0.18895635  0.93910784  0.43790642  1
  Zn  Zn147  1  0.18722247  0.93670793  0.93613085  1
  Zn  Zn148  1  0.68528640  0.44027724  0.43939695  1
  Zn  Zn149  1  0.68732817  0.43841225  0.93804582  1
  Zn  Zn150  1  0.68898038  0.93611367  0.43910796  1
  Zn  Zn151  1  0.68642012  0.93717805  0.94072426  1
  Zn  Zn152  1  0.31175022  0.06350993  0.06232027  1
  Zn  Zn153  1  0.31260013  0.06341334  0.56165513  1
  Zn  Zn154  1  0.31290220  0.56378339  0.06272226  1
  Zn  Zn155  1  0.31126069  0.56201235  0.56203459  1
  Zn  Zn156  1  0.81346817  0.06224501  0.06131738  1
  Zn  Zn157  1  0.81390944  0.06157909  0.56228290  1
  Zn  Zn158  1  0.81373994  0.56163203  0.06150897  1
  Zn  Zn159  1  0.81307492  0.56109640  0.56249533  1
  Zn  Zn160  1  0.43877530  0.43839731  0.18784133  1
  Zn  Zn161  1  0.43578078  0.43713727  0.69062211  1
  Zn  Zn162  1  0.43730624  0.93802983  0.18809074  1
  Zn  Zn163  1  0.43879116  0.93790293  0.68736009  1
  Zn  Zn164  1  0.93709578  0.43812593  0.18572611  1
  Zn  Zn165  1  0.93600985  0.43685672  0.68649574  1
  Zn  Zn166  1  0.93925394  0.93656012  0.18792454  1
  Zn  Zn167  1  0.93632850  0.94085752  0.69004226  1
  Zn  Zn168  1  0.06113489  0.06334741  0.31263904  1
  Zn  Zn169  1  0.06395429  0.06296496  0.81142912  1
  Zn  Zn170  1  0.06174312  0.56308064  0.31312244  1
  Zn  Zn171  1  0.06210262  0.56112702  0.81283690  1
  Zn  Zn172  1  0.56175384  0.06252894  0.31387863  1
  Zn  Zn173  1  0.56294796  0.06492470  0.81030895  1
  Zn  Zn174  1  0.56461670  0.55932520  0.31014026  1
  Zn  Zn175  1  0.56148134  0.56392370  0.81283253  1
  Zn  Zn176  1  0.43802141  0.18724428  0.43868212  1
  Zn  Zn177  1  0.43694823  0.18822202  0.93645219  1
  Zn  Zn178  1  0.43667196  0.68774444  0.43838359  1
  Zn  Zn179  1  0.43650817  0.68762549  0.93847765  1
  Zn  Zn180  1  0.93877556  0.18707007  0.43782361  1
  Zn  Zn181  1  0.93855947  0.18782273  0.93713584  1
  Zn  Zn182  1  0.93847792  0.68806710  0.43770803  1
  Zn  Zn183  1  0.93728697  0.68573307  0.93720646  1
  Zn  Zn184  1  0.06373977  0.31273658  0.06116972  1
  Zn  Zn185  1  0.06262129  0.31097039  0.56100158  1
  Zn  Zn186  1  0.06326888  0.81244546  0.06243624  1
  Zn  Zn187  1  0.06062491  0.81279478  0.56422465  1
  Zn  Zn188  1  0.56227945  0.31360877  0.05981565  1
  Zn  Zn189  1  0.56178658  0.31334282  0.56301605  1
  Zn  Zn190  1  0.56198582  0.81278626  0.06240906  1
  Zn  Zn191  1  0.56338270  0.80928123  0.56117979  1
  O  O192  1  0.12269731  0.11147554  0.12380567  1
  O  O193  1  0.11839324  0.11903378  0.62359480  1
  O  O194  1  0.12444274  0.61845023  0.11920878  1
  O  O195  1  0.12182684  0.61817927  0.61819627  1
  O  O196  1  0.62011686  0.12043992  0.12081988  1
  O  O197  1  0.62704150  0.11467965  0.61865317  1
  O  O198  1  0.61862539  0.62652078  0.11857336  1
  O  O199  1  0.61173744  0.62593272  0.62612597  1
  O  O200  1  0.38062052  0.37980043  0.37983885  1
  O  O201  1  0.37386644  0.38237176  0.88253322  1
  O  O202  1  0.38152564  0.87559348  0.38225296  1
  O  O203  1  0.38092713  0.88147546  0.88072605  1
  O  O204  1  0.88128939  0.37465070  0.38042759  1
  O  O205  1  0.88163901  0.37518988  0.88189949  1
  O  O206  1  0.87385339  0.87872832  0.38324555  1
  O  O207  1  0.88699869  0.87529183  0.87757089  1
  O  O208  1  0.25172818  0.00745948  0.36762755  1
  O  O209  1  0.25666431  0.00408342  0.86921916  1
  O  O210  1  0.25647120  0.50049775  0.36749037  1
  O  O211  1  0.25613383  0.50789968  0.87499103  1
  O  O212  1  0.75481914  0.00505966  0.36924580  1
  O  O213  1  0.74837624  0.01085686  0.87777362  1
  O  O214  1  0.75256174  0.51082712  0.37225057  1
  O  O215  1  0.75126016  0.50611233  0.86649771  1
  O  O216  1  0.24556554  0.49444761  0.13032396  1
  O  O217  1  0.24184571  0.49260194  0.62509177  1
  O  O218  1  0.24098144  0.99874946  0.13009024  1
  O  O219  1  0.24534782  0.99409898  0.63066006  1
  O  O220  1  0.75011064  0.48745116  0.12374337  1
  O  O221  1  0.74932561  0.49446409  0.63443326  1
  O  O222  1  0.74431579  0.99507910  0.13038986  1
  O  O223  1  0.74165183  0.99112354  0.62344946  1
  O  O224  1  0.00535055  0.36946513  0.25378766  1
  O  O225  1  0.00399550  0.36922676  0.75396455  1
  O  O226  1  0.01385756  0.87311650  0.25162901  1
  O  O227  1  0.00424631  0.87058880  0.75800820  1
  O  O228  1  0.50031237  0.36736224  0.25604262  1
  O  O229  1  0.50313316  0.37187799  0.75542380  1
  O  O230  1  0.50527739  0.86985574  0.25556292  1
  O  O231  1  0.50077914  0.86892059  0.75734183  1
  O  O232  1  0.49527382  0.13059746  0.24484978  1
  O  O233  1  0.49110847  0.12796468  0.74682185  1
  O  O234  1  0.49455037  0.63176099  0.24483856  1
  O  O235  1  0.49290526  0.63174001  0.74381826  1
  O  O236  1  0.99283779  0.13150798  0.24726510  1
  O  O237  1  0.99959897  0.13154895  0.74218342  1
  O  O238  1  0.98913873  0.62766960  0.24852163  1
  O  O239  1  0.99243950  0.63070830  0.74996034  1
  O  O240  1  0.37039589  0.25580010  0.00591137  1
  O  O241  1  0.36897436  0.25596407  0.50465880  1
  O  O242  1  0.37058758  0.75619279  0.00586744  1
  O  O243  1  0.36844862  0.75573058  0.50632675  1
  O  O244  1  0.87023381  0.25543393  0.00540161  1
  O  O245  1  0.86893418  0.25477498  0.50487081  1
  O  O246  1  0.86894870  0.74929676  0.01066693  1
  O  O247  1  0.87389468  0.75981857  0.50541843  1
  O  O248  1  0.13234877  0.24964098  0.49107121  1
  O  O249  1  0.13382885  0.24711029  0.99867300  1
  O  O250  1  0.12849147  0.74685061  0.49393378  1
  O  O251  1  0.13178587  0.74356671  0.99993417  1
  O  O252  1  0.63100373  0.24342514  0.49485785  1
  O  O253  1  0.63032104  0.24411192  0.99265526  1
  O  O254  1  0.62840014  0.74540440  0.49117313  1
  O  O255  1  0.62998438  0.74500316  0.99557816  1
  O  O256  1  0.49512863  0.24499699  0.12927770  1
  O  O257  1  0.49143806  0.24729344  0.62609222  1
  O  O258  1  0.49453562  0.74578012  0.13094415  1
  O  O259  1  0.49354070  0.74396504  0.63113973  1
  O  O260  1  0.99413989  0.24903835  0.13022528  1
  O  O261  1  0.99502629  0.24425373  0.62939538  1
  O  O262  1  0.98877416  0.74869068  0.12617511  1
  O  O263  1  0.99224464  0.74936746  0.63302463  1
  O  O264  1  0.00562347  0.25525193  0.36805187  1
  O  O265  1  0.00180034  0.25576316  0.86802423  1
  O  O266  1  0.01327220  0.75354547  0.37350714  1
  O  O267  1  0.00058081  0.75937415  0.87053918  1
  O  O268  1  0.50529259  0.25487882  0.36999047  1
  O  O269  1  0.51201133  0.25044833  0.87571248  1
  O  O270  1  0.50488643  0.75513947  0.36956766  1
  O  O271  1  0.50425041  0.75573356  0.87159498  1
  O  O272  1  0.24914518  0.13202085  0.49204635  1
  O  O273  1  0.25065388  0.13134638  0.99309230  1
  O  O274  1  0.24232447  0.63268986  0.49888589  1
  O  O275  1  0.24507734  0.63082825  0.99560293  1
  O  O276  1  0.74554963  0.12993996  0.49415170  1
  O  O277  1  0.74413327  0.13037451  0.99399172  1
  O  O278  1  0.75181032  0.62668528  0.48765093  1
  O  O279  1  0.74467927  0.63027580  0.99525981  1
  O  O280  1  0.25585813  0.37023998  0.00601052  1
  O  O281  1  0.25563370  0.36898076  0.50422822  1
  O  O282  1  0.25712861  0.86957300  0.00018225  1
  O  O283  1  0.25538068  0.86988612  0.50685495  1
  O  O284  1  0.75616874  0.36973772  0.00649451  1
  O  O285  1  0.75527447  0.36874561  0.50471861  1
  O  O286  1  0.75139768  0.86807917  0.00795467  1
  O  O287  1  0.75993915  0.87322701  0.50947165  1
  O  O288  1  0.13042547  0.49494553  0.24506016  1
  O  O289  1  0.12480099  0.49259977  0.74211504  1
  O  O290  1  0.12904883  0.99360612  0.24281284  1
  O  O291  1  0.13173066  0.99328296  0.74420787  1
  O  O292  1  0.62969677  0.49464411  0.24301301  1
  O  O293  1  0.63772891  0.50091557  0.74919111  1
  O  O294  1  0.63016664  0.99482910  0.24531237  1
  O  O295  1  0.62762052  0.99765598  0.73864038  1
  O  O296  1  0.36882215  0.00703701  0.25043003  1
  O  O297  1  0.36993293  0.00483497  0.75477086  1
  O  O298  1  0.37010084  0.50550795  0.25486088  1
  O  O299  1  0.37086609  0.50792342  0.75781201  1
  O  O300  1  0.86927046  0.00380619  0.25417357  1
  O  O301  1  0.86968988  0.00450026  0.75645437  1
  O  O302  1  0.87282489  0.51162291  0.25026271  1
  O  O303  1  0.86373041  0.50547341  0.75035660  1
  O  O304  1  0.11983748  0.36933216  0.36764766  1
  O  O305  1  0.11840271  0.37318167  0.86747773  1
  O  O306  1  0.12532017  0.86807236  0.36754830  1
  O  O307  1  0.11480260  0.87338486  0.86876192  1
  O  O308  1  0.61933321  0.36726519  0.37475589  1
  O  O309  1  0.62547853  0.36309085  0.87538357  1
  O  O310  1  0.62075787  0.86932778  0.37017899  1
  O  O311  1  0.61813132  0.86952070  0.87565620  1
  O  O312  1  0.38089277  0.13111429  0.13001304  1
  O  O313  1  0.37554865  0.13136591  0.63067615  1
  O  O314  1  0.38105023  0.63202949  0.13079401  1
  O  O315  1  0.38023763  0.63113567  0.63081973  1
  O  O316  1  0.87539575  0.13110501  0.13112493  1
  O  O317  1  0.88199651  0.13101206  0.62550816  1
  O  O318  1  0.87376855  0.63393685  0.13318544  1
  O  O319  1  0.87503408  0.63240349  0.63143032  1
  O  O320  1  0.25639390  0.25543396  0.12023266  1
  O  O321  1  0.25511962  0.25569030  0.61801054  1
  O  O322  1  0.25771807  0.75260520  0.11851523  1
  O  O323  1  0.25435718  0.75595954  0.62113909  1
  O  O324  1  0.75571816  0.25654914  0.11910320  1
  O  O325  1  0.75505058  0.25377470  0.61936511  1
  O  O326  1  0.75746713  0.75478401  0.12132717  1
  O  O327  1  0.75471468  0.75923166  0.62463447  1
  O  O328  1  0.24533171  0.24589136  0.37809768  1
  O  O329  1  0.24978052  0.24348251  0.88154276  1
  O  O330  1  0.23917954  0.75026166  0.38213965  1
  O  O331  1  0.24875535  0.74376820  0.88256104  1
  O  O332  1  0.74543845  0.24369549  0.38053226  1
  O  O333  1  0.74298879  0.24287702  0.88049405  1
  O  O334  1  0.74379638  0.74013561  0.37496145  1
  O  O335  1  0.74467296  0.74558616  0.88102105  1
  O  O336  1  0.00302364  0.11256703  0.00025875  1
  O  O337  1  0.00307265  0.12374540  0.50933337  1
  O  O338  1  0.00653744  0.61833741  0.00128680  1
  O  O339  1  0.00582993  0.61788949  0.50102178  1
  O  O340  1  0.50453346  0.12000290  0.00634050  1
  O  O341  1  0.50781300  0.11760478  0.50113505  1
  O  O342  1  0.50480410  0.62122162  0.00576442  1
  O  O343  1  0.49827569  0.62546742  0.51314103  1
  O  O344  1  0.49248291  0.37590434  0.49265049  1
  O  O345  1  0.49252295  0.38232427  0.99823179  1
  O  O346  1  0.49503712  0.87845987  0.49521326  1
  O  O347  1  0.49459743  0.88160219  0.99508718  1
  O  O348  1  0.99452775  0.37825105  0.49310123  1
  O  O349  1  0.99586209  0.37981808  0.99442400  1
  O  O350  1  0.98673270  0.87760611  0.50033061  1
  O  O351  1  1.00050401  0.88217931  0.99174323  1
  O  O352  1  0.49261125  0.49344964  0.37442922  1
  O  O353  1  0.49214234  0.50180566  0.88254866  1
  O  O354  1  0.49966881  0.99212599  0.38171852  1
  O  O355  1  0.49558588  0.99619506  0.88090213  1
  O  O356  1  0.99883708  0.49227406  0.38079992  1
  O  O357  1  0.99779062  0.49219108  0.88156857  1
  O  O358  1  0.99173218  0.99720489  0.37674269  1
  O  O359  1  1.00160587  0.99101048  0.88311824  1
  O  O360  1  0.00864819  -0.00145118  0.11624125  1
  O  O361  1  0.00648854  0.00734004  0.62495941  1
  O  O362  1  0.00774324  0.50060643  0.11780286  1
  O  O363  1  0.00576130  0.49959257  0.61673707  1
  O  O364  1  0.50535749  0.00639558  0.12055888  1
  O  O365  1  0.51154676  -0.00145542  0.61878847  1
  O  O366  1  0.49967521  0.50786259  0.11770615  1
  O  O367  1  0.49818133  0.51282213  0.62636305  1
  O  O368  1  0.24527415  0.38011687  0.24356378  1
  O  O369  1  0.24246021  0.37653502  0.74197081  1
  O  O370  1  0.23930579  0.88163014  0.24900752  1
  O  O371  1  0.24551864  0.88002252  0.74539328  1
  O  O372  1  0.75101333  0.37373839  0.23754906  1
  O  O373  1  0.74978229  0.38416906  0.74461779  1
  O  O374  1  0.74380111  0.88028271  0.24553644  1
  O  O375  1  0.74851470  0.87590145  0.73811652  1
  O  O376  1  0.25593823  0.12151380  0.25406730  1
  O  O377  1  0.25610127  0.11860991  0.75471346  1
  O  O378  1  0.25762407  0.61828041  0.25157748  1
  O  O379  1  0.25529186  0.62483888  0.75698285  1
  O  O380  1  0.75543202  0.11934835  0.25516890  1
  O  O381  1  0.75089690  0.12385518  0.76303316  1
  O  O382  1  0.75961759  0.62507184  0.25797351  1
  O  O383  1  0.75417461  0.61838761  0.75515897  1
  O  O384  1  0.36925755  0.12438685  0.36766449  1
  O  O385  1  0.36999586  0.11898783  0.86928896  1
  O  O386  1  0.37362622  0.61975098  0.36844469  1
  O  O387  1  0.36890623  0.62089280  0.87115305  1
  O  O388  1  0.86909047  0.12006647  0.36917815  1
  O  O389  1  0.86201775  0.12500792  0.87673213  1
  O  O390  1  0.86759560  0.62721395  0.36582823  1
  O  O391  1  0.86669081  0.62380736  0.86842938  1
  O  O392  1  0.13157014  0.38091011  0.13030696  1
  O  O393  1  0.12948925  0.37929601  0.62860004  1
  O  O394  1  0.12689629  0.88378281  0.13353195  1
  O  O395  1  0.13049070  0.88018221  0.63055042  1
  O  O396  1  0.63779887  0.37336774  0.12367718  1
  O  O397  1  0.63380961  0.37645868  0.62744115  1
  O  O398  1  0.62949549  0.88045845  0.13124577  1
  O  O399  1  0.63400678  0.88182768  0.62309087  1
  O  O400  1  0.12038537  0.25611453  0.25326018  1
  O  O401  1  0.11788670  0.25731116  0.74994414  1
  O  O402  1  0.12735963  0.75768039  0.25703185  1
  O  O403  1  0.11756271  0.75669207  0.75157878  1
  O  O404  1  0.61858019  0.25086149  0.25726187  1
  O  O405  1  0.62467891  0.25017344  0.76194263  1
  O  O406  1  0.61873742  0.75605805  0.25504766  1
  O  O407  1  0.61790229  0.75251349  0.75854389  1
  O  O408  1  0.38082987  0.24501924  0.24355241  1
  O  O409  1  0.37359345  0.24341932  0.74299945  1
  O  O410  1  0.37972561  0.74631767  0.24586925  1
  O  O411  1  0.38002049  0.74515196  0.74549275  1
  O  O412  1  0.88066007  0.24378509  0.24413364  1
  O  O413  1  0.88189935  0.24802633  0.74230166  1
  O  O414  1  0.87580347  0.74206993  0.24143049  1
  O  O415  1  0.87958156  0.74459408  0.74472719  1
  O  O416  1  0.37565872  0.49359482  0.49283622  1
  O  O417  1  0.37974402  0.49599944  0.99558971  1
  O  O418  1  0.38193444  0.99264044  0.49982471  1
  O  O419  1  0.38061507  0.99613408  0.99459925  1
  O  O420  1  0.88156003  0.49201243  0.49795367  1
  O  O421  1  0.88266360  0.49329503  0.99857601  1
  O  O422  1  0.87471718  0.99014638  0.49360649  1
  O  O423  1  0.88690746  0.99581064  0.99984244  1
  O  O424  1  0.11764552  -0.00196830  0.00861184  1
  O  O425  1  0.12352260  0.00150082  0.50824707  1
  O  O426  1  0.12088536  0.50489466  0.00605316  1
  O  O427  1  0.11935670  0.50448690  0.50381647  1
  O  O428  1  0.61843840  0.00579991  0.00768332  1
  O  O429  1  0.62155982  0.00367331  0.50726932  1
  O  O430  1  0.61844826  0.50760482  0.00172512  1
  O  O431  1  0.61946463  0.50641129  0.50480674  1
  O  O432  1  0.36986527  0.37000247  0.11968126  1
  O  O433  1  0.36858091  0.37034214  0.61933357  1
  O  O434  1  0.37446958  0.86970369  0.11878887  1
  O  O435  1  0.36961575  0.86949235  0.62054064  1
  O  O436  1  0.86789045  0.36869557  0.11901956  1
  O  O437  1  0.86896249  0.36770851  0.61821392  1
  O  O438  1  0.86901920  0.86483316  0.12682130  1
  O  O439  1  0.86720857  0.87161551  0.61871819  1
  O  O440  1  0.13206052  0.13232401  0.37398533  1
  O  O441  1  0.13495070  0.12601796  0.87648029  1
  O  O442  1  0.12686238  0.63462233  0.38012411  1
  O  O443  1  0.13116282  0.62583387  0.88208434  1
  O  O444  1  0.63139036  0.12970410  0.38026236  1
  O  O445  1  0.63228179  0.13207542  0.88119676  1
  O  O446  1  0.63444415  0.63035145  0.37227822  1
  O  O447  1  0.63011450  0.63231697  0.88152583  1
