# generated using pymatgen
data_V3Zn3O8
_symmetry_space_group_name_H-M   'P 1'
_cell_length_a   17.08857084
_cell_length_b   17.09031938
_cell_length_c   17.08933475
_cell_angle_alpha   89.98933951
_cell_angle_beta   89.98471814
_cell_angle_gamma   89.98826626
_symmetry_Int_Tables_number   1
_chemical_formula_structural   V3Zn3O8
_chemical_formula_sum   'V96 Zn96 O256'
_cell_volume   4990.92503531
_cell_formula_units_Z   32
loop_
 _symmetry_equiv_pos_site_id
 _symmetry_equiv_pos_as_xyz
  1  'x, y, z'
loop_
 _atom_site_type_symbol
 _atom_site_label
 _atom_site_symmetry_multiplicity
 _atom_site_fract_x
 _atom_site_fract_y
 _atom_site_fract_z
 _atom_site_occupancy
  V  V0  1  0.87582681  0.00086431  0.87471789  1
  V  V1  1  0.87371382  0.00121569  0.37504503  1
  V  V2  1  0.00101849  0.75027464  0.75051509  1
  V  V3  1  0.37449445  0.62550666  0.24868582  1
  V  V4  1  0.75020950  0.62633537  0.87537830  1
  V  V5  1  0.24895854  0.62452603  0.37430320  1
  V  V6  1  0.62503833  0.24926193  0.37381464  1
  V  V7  1  0.12509027  0.87550752  0.24878238  1
  V  V8  1  0.00022744  0.00018393  0.50144726  1
  V  V9  1  0.62570397  0.62630067  0.00043223  1
  V  V10  1  0.25066725  -0.00126393  0.74939064  1
  V  V11  1  0.37583326  0.12406130  0.75030096  1
  V  V12  1  0.37696615  -0.00023907  0.87511694  1
  V  V13  1  0.74919490  0.49981025  0.25017697  1
  V  V14  1  0.12571906  0.12528283  0.00010127  1
  V  V15  1  0.74995756  0.87500882  0.62619258  1
  V  V16  1  0.00012307  0.87554566  0.37508919  1
  V  V17  1  0.62486737  0.00059163  0.62546275  1
  V  V18  1  0.50150406  0.37518864  0.87379685  1
  V  V19  1  0.50140310  0.12437705  0.62482362  1
  V  V20  1  0.24955833  0.12572653  0.37526586  1
  V  V21  1  0.49974876  0.62541215  0.12532802  1
  V  V22  1  0.74903398  0.37634565  0.62470783  1
  V  V23  1  0.74894502  0.62629881  0.37634470  1
  V  V24  1  0.12466933  0.49907503  0.12618397  1
  V  V25  1  -0.00031778  0.62379039  0.12566651  1
  V  V26  1  0.87442799  0.62528129  0.75108011  1
  V  V27  1  0.12468162  -0.00086413  0.12497912  1
  V  V28  1  -0.00067533  0.24961432  0.25061462  1
  V  V29  1  0.37501317  0.87469067  0.50104604  1
  V  V30  1  0.74909460  0.87446940  0.12549868  1
  V  V31  1  0.74951932  0.50058892  0.74848291  1
  V  V32  1  0.12723682  0.87539687  0.75041549  1
  V  V33  1  0.87475567  0.74954367  0.12543863  1
  V  V34  1  0.00006067  0.37535461  0.87603550  1
  V  V35  1  0.12409323  0.75051396  0.37504887  1
  V  V36  1  0.87453600  0.62541929  0.25121935  1
  V  V37  1  0.49974761  0.87525566  0.37407246  1
  V  V38  1  0.50050947  0.50146410  0.50013797  1
  V  V39  1  0.00018046  0.62571677  0.62612523  1
  V  V40  1  0.87584331  0.87442798  0.00088347  1
  V  V41  1  0.50035848  0.00026276  0.00032200  1
  V  V42  1  0.12499381  0.62602761  0.50033904  1
  V  V43  1  0.24847715  0.49925724  0.24971747  1
  V  V44  1  0.12551753  0.24972492  0.87543782  1
  V  V45  1  0.50145249  0.25098707  0.74967748  1
  V  V46  1  0.00090691  0.00002432  0.00047398  1
  V  V47  1  0.37556568  0.87369260  0.00118535  1
  V  V48  1  0.49955483  0.12553149  0.12364112  1
  V  V49  1  0.74943126  0.37658614  0.12527251  1
  V  V50  1  0.62494396  0.75094932  0.37601753  1
  V  V51  1  -0.00042940  0.24946709  0.74906807  1
  V  V52  1  0.25020032  0.37345627  0.62473712  1
  V  V53  1  0.62546668  0.37603567  0.74851252  1
  V  V54  1  0.50017832  0.50088644  0.00005887  1
  V  V55  1  0.24978383  0.24965981  -0.00056564  1
  V  V56  1  0.12624030  0.74868401  0.87589134  1
  V  V57  1  0.87418184  0.75120956  0.62533021  1
  V  V58  1  0.49920253  0.75010574  0.25039090  1
  V  V59  1  -0.00050787  0.12510906  0.12612882  1
  V  V60  1  0.24915454  0.87499020  0.12431309  1
  V  V61  1  0.12561909  0.62464151  0.00021783  1
  V  V62  1  0.12480406  0.49995578  0.62567069  1
  V  V63  1  0.37341091  0.37308556  0.49965922  1
  V  V64  1  0.37558578  0.49985957  0.87409794  1
  V  V65  1  0.87587519  0.24978493  0.62522829  1
  V  V66  1  -0.00045145  0.50007324  0.50054978  1
  V  V67  1  0.74941540  0.00062454  0.25042644  1
  V  V68  1  0.25039889  0.75107642  0.49957061  1
  V  V69  1  0.37399075  0.12518987  0.24994004  1
  V  V70  1  0.37342661  0.49892475  0.37411185  1
  V  V71  1  0.74907588  0.75045727  0.50113469  1
  V  V72  1  0.50012049  0.25058101  0.24940941  1
  V  V73  1  0.24901481  0.37541294  0.12549220  1
  V  V74  1  0.37479126  0.25015620  0.12398673  1
  V  V75  1  -0.00035046  0.74964227  0.25094136  1
  V  V76  1  0.62623720  0.12476034  -0.00187896  1
  V  V77  1  0.49844484  0.37377059  0.37266938  1
  V  V78  1  0.37618847  0.62514351  0.74853596  1
  V  V79  1  0.00125051  0.87484335  0.87570555  1
  V  V80  1  0.37503638  0.24940707  0.62463080  1
  V  V81  1  0.50058466  0.75001362  0.75025466  1
  V  V82  1  0.37614288  0.00064523  0.37453865  1
  V  V83  1  0.87387913  0.37524097  0.49993481  1
  V  V84  1  0.87406528  0.50086406  0.37595937  1
  V  V85  1  0.37589080  0.37476319  -0.00083279  1
  V  V86  1  0.25055540  0.49971630  0.74997829  1
  V  V87  1  -0.00038926  0.49883519  0.00040519  1
  V  V88  1  0.25006531  0.62455321  0.87551814  1
  V  V89  1  0.75045347  0.25024892  -0.00078334  1
  V  V90  1  0.87525072  0.37526522  -0.00043769  1
  V  V91  1  0.12502488  0.37434322  0.75030659  1
  V  V92  1  -0.00025470  0.37424085  0.37477960  1
  V  V93  1  0.75179995  0.00158398  0.75177867  1
  V  V94  1  0.74871876  0.24963997  0.49792694  1
  V  V95  1  0.12455164  0.12528623  0.50068492  1
  Zn  Zn96  1  0.37455820  0.74832672  0.62482842  1
  Zn  Zn97  1  0.75383120  0.12686888  0.87483221  1
  Zn  Zn98  1  0.50153746  0.00079882  0.49933418  1
  Zn  Zn99  1  0.12459590  0.37471615  0.25255528  1
  Zn  Zn100  1  0.62534046  0.12421287  0.49794754  1
  Zn  Zn101  1  0.74989870  0.75060360  -0.00077809  1
  Zn  Zn102  1  0.87509435  0.24746921  0.12522645  1
  Zn  Zn103  1  0.24855417  0.24933420  0.50101178  1
  Zn  Zn104  1  0.37340775  0.74990280  0.12482231  1
  Zn  Zn105  1  0.12517420  -0.00103998  0.62609842  1
  Zn  Zn106  1  0.62341117  0.37656852  0.24787106  1
  Zn  Zn107  1  0.62416204  -0.00099268  0.12581491  1
  Zn  Zn108  1  0.62278290  0.87596507  0.25003012  1
  Zn  Zn109  1  0.62314478  0.87407170  0.75425933  1
  Zn  Zn110  1  0.24948260  0.87320801  0.62478773  1
  Zn  Zn111  1  0.87481870  0.87578493  0.50150328  1
  Zn  Zn112  1  0.25113207  0.12568167  0.87547452  1
  Zn  Zn113  1  0.62411382  0.50052443  0.12719664  1
  Zn  Zn114  1  -0.00018976  0.12472312  0.62646877  1
  Zn  Zn115  1  0.25108971  0.74851096  0.00105931  1
  Zn  Zn116  1  0.74846465  0.12600998  0.37420661  1
  Zn  Zn117  1  0.87574218  0.50004330  0.87491621  1
  Zn  Zn118  1  0.87349349  0.12579308  0.24789490  1
  Zn  Zn119  1  0.50046397  0.62581355  0.62371842  1
  Zn  Zn120  1  0.12472065  0.25188684  0.37592988  1
  Zn  Zn121  1  0.50359682  0.87346282  0.87658279  1
  Zn  Zn122  1  0.62425542  0.50208250  0.62322107  1
  Zn  Zn123  1  0.24967952  0.00003256  0.24863743  1
  Zn  Zn124  1  0.62302207  0.62537043  0.50126752  1
  Zn  Zn125  1  0.87766304  0.12593050  0.74998128  1
  Zn  Zn126  1  0.62734732  0.25107758  0.87262014  1
  Zn  Zn127  1  0.62537866  0.75261545  0.87421421  1
  Zn  Zn128  1  0.18531307  0.18825648  0.18812788  1
  Zn  Zn129  1  0.18783277  0.18532783  0.68717287  1
  Zn  Zn130  1  0.18787713  0.68879243  0.18615062  1
  Zn  Zn131  1  0.18993541  0.68878168  0.68666114  1
  Zn  Zn132  1  0.68613411  0.18745201  0.18620660  1
  Zn  Zn133  1  0.68896297  0.18745677  0.68620760  1
  Zn  Zn134  1  0.68568952  0.68854304  0.18921241  1
  Zn  Zn135  1  0.68276101  0.68526765  0.68489763  1
  Zn  Zn136  1  0.31177749  0.31096747  0.31203962  1
  Zn  Zn137  1  0.31340755  0.31164847  0.81206177  1
  Zn  Zn138  1  0.31223672  0.81286226  0.31190059  1
  Zn  Zn139  1  0.31505359  0.81156733  0.81499477  1
  Zn  Zn140  1  0.81303350  0.31292167  0.31180364  1
  Zn  Zn141  1  0.81340892  0.31345181  0.81247837  1
  Zn  Zn142  1  0.81228858  0.81413800  0.31369734  1
  Zn  Zn143  1  0.81252123  0.81363601  0.81243640  1
  Zn  Zn144  1  0.18619211  0.43667711  0.43816733  1
  Zn  Zn145  1  0.18745039  0.43748906  0.93804329  1
  Zn  Zn146  1  0.18837695  0.93900588  0.43556093  1
  Zn  Zn147  1  0.18977269  0.93765951  0.93636114  1
  Zn  Zn148  1  0.68492642  0.43502934  0.43538116  1
  Zn  Zn149  1  0.68669109  0.44018032  0.93578662  1
  Zn  Zn150  1  0.68674920  0.93477180  0.43956809  1
  Zn  Zn151  1  0.68689665  0.93756563  0.93686773  1
  Zn  Zn152  1  0.31145349  0.06149429  0.06258030  1
  Zn  Zn153  1  0.31343247  0.06066767  0.56320044  1
  Zn  Zn154  1  0.31304633  0.56169232  0.06274901  1
  Zn  Zn155  1  0.31376824  0.56241812  0.56309822  1
  Zn  Zn156  1  0.81399017  0.06234601  0.06330319  1
  Zn  Zn157  1  0.81191998  0.06673093  0.56281158  1
  Zn  Zn158  1  0.81311126  0.56090450  0.06243016  1
  Zn  Zn159  1  0.81173647  0.56436685  0.56302243  1
  Zn  Zn160  1  0.43658101  0.43877163  0.18636429  1
  Zn  Zn161  1  0.43746481  0.43701211  0.68575726  1
  Zn  Zn162  1  0.43641096  0.93898109  0.18733163  1
  Zn  Zn163  1  0.43861238  0.93486788  0.68736336  1
  Zn  Zn164  1  0.93541525  0.43593286  0.18824633  1
  Zn  Zn165  1  0.93582165  0.43698279  0.68851240  1
  Zn  Zn166  1  0.93688396  0.93742741  0.18789503  1
  Zn  Zn167  1  0.93753741  0.93689096  0.68742412  1
  Zn  Zn168  1  0.06286322  0.06306445  0.31233751  1
  Zn  Zn169  1  0.06325748  0.06410272  0.81326281  1
  Zn  Zn170  1  0.06231964  0.56153177  0.31288974  1
  Zn  Zn171  1  0.06269988  0.56183317  0.81366589  1
  Zn  Zn172  1  0.56306153  0.06297103  0.31184379  1
  Zn  Zn173  1  0.56304512  0.06219446  0.81381834  1
  Zn  Zn174  1  0.56358475  0.56316321  0.31310576  1
  Zn  Zn175  1  0.56368116  0.56345040  0.81163251  1
  Zn  Zn176  1  0.43909809  0.18645991  0.43944043  1
  Zn  Zn177  1  0.43851630  0.18801666  0.93515473  1
  Zn  Zn178  1  0.43635318  0.68782042  0.43466181  1
  Zn  Zn179  1  0.43808930  0.68832539  0.93553597  1
  Zn  Zn180  1  0.93556453  0.18685495  0.43649962  1
  Zn  Zn181  1  0.93752032  0.18729319  0.93737268  1
  Zn  Zn182  1  0.93570804  0.68828430  0.43966850  1
  Zn  Zn183  1  0.93738526  0.68785391  0.93848522  1
  Zn  Zn184  1  0.06290599  0.31179520  0.06425532  1
  Zn  Zn185  1  0.06208796  0.31165309  0.56223079  1
  Zn  Zn186  1  0.06275768  0.81102144  0.06230971  1
  Zn  Zn187  1  0.06377909  0.81477226  0.56413505  1
  Zn  Zn188  1  0.56427091  0.31186921  0.06158970  1
  Zn  Zn189  1  0.56303479  0.31363092  0.56137687  1
  Zn  Zn190  1  0.56206558  0.81105189  0.06414981  1
  Zn  Zn191  1  0.56215022  0.81295926  0.56499142  1
  O  O192  1  0.11958338  0.11901563  0.11936137  1
  O  O193  1  0.12403033  0.12075326  0.61254100  1
  O  O194  1  0.11898912  0.61921914  0.12040107  1
  O  O195  1  0.11979525  0.61989027  0.62036431  1
  O  O196  1  0.61871268  0.12478843  0.11338807  1
  O  O197  1  0.62016492  0.11574152  0.62507997  1
  O  O198  1  0.62014704  0.62370689  0.11624617  1
  O  O199  1  0.61909052  0.61853304  0.61807603  1
  O  O200  1  0.37837692  0.37934369  0.37945560  1
  O  O201  1  0.38089201  0.38046664  0.87965327  1
  O  O202  1  0.37920759  0.88035772  0.38173198  1
  O  O203  1  0.37635019  0.88136095  0.88719140  1
  O  O204  1  0.87952184  0.38199937  0.38105243  1
  O  O205  1  0.88245708  0.37750843  0.88163262  1
  O  O206  1  0.88132514  0.88562985  0.37708959  1
  O  O207  1  0.88181180  0.87965978  0.88105279  1
  O  O208  1  0.25563549  0.01143104  0.37257058  1
  O  O209  1  0.25690230  0.00195366  0.86491317  1
  O  O210  1  0.25377484  0.50530631  0.37017814  1
  O  O211  1  0.25540871  0.50384568  0.86914400  1
  O  O212  1  0.75728359  -0.00277163  0.36715773  1
  O  O213  1  0.75683269  0.00040522  0.86699402  1
  O  O214  1  0.75557808  0.50497185  0.37066432  1
  O  O215  1  0.75212539  0.51153112  0.86924585  1
  O  O216  1  0.24489134  0.49479643  0.13021202  1
  O  O217  1  0.24411136  0.49417575  0.63051339  1
  O  O218  1  0.24199969  0.99378566  0.12641627  1
  O  O219  1  0.25032724  0.99749434  0.63859144  1
  O  O220  1  0.75000570  0.49158649  0.13073921  1
  O  O221  1  0.75034937  0.49340902  0.63040556  1
  O  O222  1  0.75275952  0.98988459  0.13338256  1
  O  O223  1  0.74472332  0.99640652  0.63259562  1
  O  O224  1  -0.00048036  0.36672201  0.25581726  1
  O  O225  1  0.00629924  0.37078885  0.75558388  1
  O  O226  1  0.00487128  0.86887921  0.25500847  1
  O  O227  1  0.00608159  0.86976755  0.75653144  1
  O  O228  1  0.49876624  0.36865516  0.25435498  1
  O  O229  1  0.50511213  0.37077262  0.75412408  1
  O  O230  1  0.49943973  0.86914255  0.25581487  1
  O  O231  1  0.49926212  0.86359807  0.75342321  1
  O  O232  1  0.49354254  0.13082416  0.24346517  1
  O  O233  1  0.49556462  0.13075526  0.74502610  1
  O  O234  1  0.49378509  0.62908211  0.24555743  1
  O  O235  1  0.49336145  0.63170600  0.75003544  1
  O  O236  1  0.99934462  0.13301564  0.24514418  1
  O  O237  1  1.00022064  0.13342007  0.74692446  1
  O  O238  1  0.99424099  0.62993722  0.24549892  1
  O  O239  1  0.99556061  0.63023648  0.74567902  1
  O  O240  1  0.37032717  0.25546366  0.00444974  1
  O  O241  1  0.37385125  0.25564210  0.50723038  1
  O  O242  1  0.37442985  0.76144694  0.00126701  1
  O  O243  1  0.36871495  0.75962911  0.49669808  1
  O  O244  1  0.86628586  0.25613265  0.00171881  1
  O  O245  1  0.86967599  0.25684681  0.50369468  1
  O  O246  1  0.87439079  0.75628372  0.00776295  1
  O  O247  1  0.86870812  0.75239876  0.50781302  1
  O  O248  1  0.12558627  0.23798762  0.49762629  1
  O  O249  1  0.13027874  0.24524779  0.99537304  1
  O  O250  1  0.12892907  0.74537073  0.49395912  1
  O  O251  1  0.12527990  0.74209390  0.99342654  1
  O  O252  1  0.63057183  0.25079193  0.49116596  1
  O  O253  1  0.63364396  0.24220319  0.99839416  1
  O  O254  1  0.63111891  0.74969409  0.49384936  1
  O  O255  1  0.62671733  0.73653346  0.99879093  1
  O  O256  1  0.49395993  0.24568229  0.12847788  1
  O  O257  1  0.49478151  0.24548185  0.63074545  1
  O  O258  1  0.49763856  0.74277980  0.13263612  1
  O  O259  1  0.49609554  0.74824504  0.63580575  1
  O  O260  1  0.99912724  0.24460696  0.13397189  1
  O  O261  1  0.99349080  0.25089082  0.63120264  1
  O  O262  1  0.99497730  0.74370136  0.13151230  1
  O  O263  1  0.99566648  0.74498334  0.63077047  1
  O  O264  1  -0.00102492  0.25536263  0.36679305  1
  O  O265  1  0.00634017  0.25654696  0.87038462  1
  O  O266  1  0.00431737  0.75490092  0.37087910  1
  O  O267  1  0.00562920  0.75483136  0.86967073  1
  O  O268  1  0.50406174  0.25450442  0.36880790  1
  O  O269  1  0.50145850  0.25787949  0.86753620  1
  O  O270  1  0.50496385  0.75512497  0.36943362  1
  O  O271  1  0.50184672  0.75015834  0.86332014  1
  O  O272  1  0.24187013  0.12325244  0.49241498  1
  O  O273  1  0.24396409  0.13186476  0.99913185  1
  O  O274  1  0.24422846  0.62930781  0.49380987  1
  O  O275  1  0.24355031  0.62380088  0.99342816  1
  O  O276  1  0.74702178  0.13443884  0.49612823  1
  O  O277  1  0.74277271  0.13251747  1.00185435  1
  O  O278  1  0.74997681  0.63225818  0.49292948  1
  O  O279  1  0.74324265  0.62484950  0.99331213  1
  O  O280  1  0.25618093  0.37005374  0.00518446  1
  O  O281  1  0.25521843  0.37340816  0.50657335  1
  O  O282  1  0.25968769  0.87506008  0.00506607  1
  O  O283  1  0.25877253  0.87013226  0.49726687  1
  O  O284  1  0.75353713  0.37019513  0.00571821  1
  O  O285  1  0.75560481  0.37073083  0.50431484  1
  O  O286  1  0.75664102  0.87453310  0.01026874  1
  O  O287  1  0.75259046  0.86839197  0.50846591  1
  O  O288  1  0.13073754  0.49927841  0.24370503  1
  O  O289  1  0.13042793  0.49440769  0.74502507  1
  O  O290  1  0.12477755  0.99283485  0.24323537  1
  O  O291  1  0.13462438  0.99467184  0.75188181  1
  O  O292  1  0.63328663  0.49756000  0.24790302  1
  O  O293  1  0.63178693  0.49368746  0.74797860  1
  O  O294  1  0.63653126  0.99760880  0.24772443  1
  O  O295  1  0.63425080  1.00006182  0.74241468  1
  O  O296  1  0.37234184  0.00816763  0.25633390  1
  O  O297  1  0.36927092  0.00361541  0.75481069  1
  O  O298  1  0.36806939  0.50551595  0.25498024  1
  O  O299  1  0.36974200  0.50366619  0.75530888  1
  O  O300  1  0.86729719  -0.00054260  0.25894269  1
  O  O301  1  0.86742801  0.00036868  0.75560554  1
  O  O302  1  0.86981867  0.50616289  0.25661070  1
  O  O303  1  0.86859710  0.50759312  0.75175889  1
  O  O304  1  0.11626576  0.37257867  0.37388411  1
  O  O305  1  0.12030422  0.36972227  0.86988046  1
  O  O306  1  0.11982636  0.86986881  0.36893313  1
  O  O307  1  0.12015548  0.86892044  0.87079476  1
  O  O308  1  0.61692744  0.36609303  0.37083336  1
  O  O309  1  0.61871150  0.37469129  0.86786251  1
  O  O310  1  0.61770167  0.86891286  0.37371385  1
  O  O311  1  0.62208748  0.87013824  0.87344172  1
  O  O312  1  0.37920890  0.13131439  0.12907767  1
  O  O313  1  0.38097097  0.12910755  0.63095590  1
  O  O314  1  0.38122816  0.62564685  0.13078008  1
  O  O315  1  0.37758959  0.62597860  0.63352332  1
  O  O316  1  0.88445207  0.12663218  0.12699517  1
  O  O317  1  0.87846897  0.13499392  0.62692333  1
  O  O318  1  0.88013049  0.62944098  0.13124501  1
  O  O319  1  0.88112386  0.63137080  0.63132077  1
  O  O320  1  0.25505774  0.25527839  0.11961559  1
  O  O321  1  0.25682089  0.25576260  0.62471502  1
  O  O322  1  0.25232312  0.75800499  0.12087175  1
  O  O323  1  0.25321351  0.75269096  0.61562609  1
  O  O324  1  0.75119785  0.25881027  0.11666714  1
  O  O325  1  0.75536630  0.25725475  0.61901405  1
  O  O326  1  0.75655391  0.75929085  0.12630619  1
  O  O327  1  0.75466043  0.75505643  0.62203556  1
  O  O328  1  0.24907720  0.23706675  0.37748111  1
  O  O329  1  0.24403569  0.24973068  0.88143722  1
  O  O330  1  0.24290811  0.74392847  0.37928683  1
  O  O331  1  0.24364086  0.74198814  0.87694562  1
  O  O332  1  0.74307528  0.25046609  0.37867070  1
  O  O333  1  0.74870908  0.24887113  0.88656469  1
  O  O334  1  0.74573468  0.74636855  0.38036749  1
  O  O335  1  0.74981617  0.73756291  0.87657704  1
  O  O336  1  0.00643688  0.11967957  0.00574492  1
  O  O337  1  0.00847780  0.11588218  0.49726701  1
  O  O338  1  0.00518252  0.61925022  0.00623268  1
  O  O339  1  0.00528797  0.62016270  0.50601339  1
  O  O340  1  0.50723365  0.12183205  0.00422476  1
  O  O341  1  0.50295426  0.12097332  0.50939021  1
  O  O342  1  0.50694977  0.62053051  0.00386314  1
  O  O343  1  0.49712978  0.61205850  0.49714843  1
  O  O344  1  0.49259512  0.38185337  0.49271975  1
  O  O345  1  0.49531337  0.38016649  0.99501135  1
  O  O346  1  0.48999219  0.87582076  0.49336854  1
  O  O347  1  0.49085688  0.88100375  1.00266714  1
  O  O348  1  0.99380351  0.38120212  0.49556725  1
  O  O349  1  0.99549254  0.37917474  0.99608017  1
  O  O350  1  1.00034974  0.88492099  0.49358932  1
  O  O351  1  0.99582873  0.88024804  0.99548126  1
  O  O352  1  0.49241652  0.49408069  0.37985538  1
  O  O353  1  0.49441205  0.49488617  0.88008234  1
  O  O354  1  0.49395153  0.99396770  0.37619169  1
  O  O355  1  0.49395664  0.99827824  0.88240381  1
  O  O356  1  0.99369641  0.49593163  0.38108369  1
  O  O357  1  1.00017297  0.49334395  0.88224204  1
  O  O358  1  0.99272199  0.99566910  0.38127638  1
  O  O359  1  0.99646161  0.99352526  0.88114781  1
  O  O360  1  0.00538865  0.00378111  0.11958092  1
  O  O361  1  0.00041047  0.00094616  0.61242789  1
  O  O362  1  0.00423825  0.50488156  0.12111275  1
  O  O363  1  0.00502465  0.50563050  0.62057345  1
  O  O364  1  0.50158045  0.00815028  0.11871626  1
  O  O365  1  0.51037916  0.00506263  0.62733775  1
  O  O366  1  0.50116192  0.50662482  0.11783223  1
  O  O367  1  0.49871841  0.49867816  0.61035742  1
  O  O368  1  0.24890939  0.38083962  0.24361655  1
  O  O369  1  0.24477557  0.38035903  0.74489467  1
  O  O370  1  0.24260378  0.87652716  0.24413823  1
  O  O371  1  0.24680725  0.88340735  0.75141677  1
  O  O372  1  0.75058954  0.38040671  0.23986931  1
  O  O373  1  0.74544521  0.38075549  0.74481908  1
  O  O374  1  0.75095705  0.88308335  0.24126332  1
  O  O375  1  0.74965146  0.88639799  0.74503900  1
  O  O376  1  0.25461214  0.12519628  0.25878908  1
  O  O377  1  0.25648679  0.11562956  0.75154995  1
  O  O378  1  0.25382456  0.61953058  0.25504501  1
  O  O379  1  0.25458931  0.61847795  0.75578828  1
  O  O380  1  0.75216442  0.11300522  0.24916720  1
  O  O381  1  0.75233013  0.11321055  0.75212231  1
  O  O382  1  0.75607125  0.62068076  0.25585129  1
  O  O383  1  0.75441131  0.62121472  0.75734115  1
  O  O384  1  0.36781324  0.12110294  0.37083041  1
  O  O385  1  0.37428392  0.11848283  0.86800600  1
  O  O386  1  0.36740116  0.61883748  0.36827657  1
  O  O387  1  0.36937227  0.61796532  0.86987747  1
  O  O388  1  0.87267416  0.11132222  0.37205018  1
  O  O389  1  0.87432704  0.11601745  0.87294741  1
  O  O390  1  0.86976300  0.62034748  0.37024274  1
  O  O391  1  0.86690659  0.62428347  0.87028054  1
  O  O392  1  0.13165445  0.38201122  0.12631855  1
  O  O393  1  0.12979054  0.38060730  0.63028580  1
  O  O394  1  0.12844246  0.87971822  0.12947918  1
  O  O395  1  0.12845190  0.87868450  0.63405546  1
  O  O396  1  0.63742846  0.37760740  0.12431337  1
  O  O397  1  0.63173861  0.37801465  0.63047568  1
  O  O398  1  0.63745548  0.87605181  0.12592585  1
  O  O399  1  0.63088921  0.88579091  0.62914511  1
  O  O400  1  0.11219905  0.25191716  0.25275596  1
  O  O401  1  0.12082221  0.25568059  0.75487225  1
  O  O402  1  0.11835140  0.75472678  0.25545913  1
  O  O403  1  0.12015699  0.75432958  0.75615405  1
  O  O404  1  0.61757610  0.25176412  0.25545782  1
  O  O405  1  0.61969353  0.25699535  0.75021065  1
  O  O406  1  0.61787563  0.75249408  0.25776306  1
  O  O407  1  0.61384477  0.75066769  0.75108097  1
  O  O408  1  0.38013916  0.24460992  0.24311322  1
  O  O409  1  0.38110265  0.24462786  0.74432638  1
  O  O410  1  0.38074902  0.74270958  0.24964877  1
  O  O411  1  0.38232239  0.74315725  0.74988642  1
  O  O412  1  0.88627933  0.24768605  0.24839632  1
  O  O413  1  0.88155185  0.25080585  0.74360573  1
  O  O414  1  0.88082340  0.74484113  0.24615404  1
  O  O415  1  0.88161747  0.74498070  0.74536067  1
  O  O416  1  0.38024722  0.49338495  0.49294250  1
  O  O417  1  0.38022166  0.49408723  0.99365705  1
  O  O418  1  0.37559063  0.99037557  0.49331389  1
  O  O419  1  0.38016113  0.99356683  0.99574285  1
  O  O420  1  0.88052980  0.49567387  0.49549536  1
  O  O421  1  0.88267294  0.49366447  0.99870681  1
  O  O422  1  0.88330194  1.00002357  0.49206296  1
  O  O423  1  0.88191945  0.99361241  0.99545483  1
  O  O424  1  0.11975843  0.00450904  0.00445728  1
  O  O425  1  0.11602889  0.00718897  0.49841469  1
  O  O426  1  0.11949391  0.50488077  0.00632698  1
  O  O427  1  0.11914469  0.50633422  0.50635495  1
  O  O428  1  0.62039608  0.00979602  0.00246122  1
  O  O429  1  0.62507594  0.00097533  0.51367357  1
  O  O430  1  0.61908014  0.51148882  0.00072188  1
  O  O431  1  0.61095483  0.49933475  0.49684527  1
  O  O432  1  0.36921322  0.36997865  0.11819916  1
  O  O433  1  0.36877809  0.36891488  0.62008098  1
  O  O434  1  0.36858577  0.87619054  0.11544716  1
  O  O435  1  0.37349247  0.87434735  0.61090489  1
  O  O436  1  0.86417121  0.37391931  0.11851942  1
  O  O437  1  0.86923620  0.37028281  0.61856850  1
  O  O438  1  0.86862435  0.86959873  0.12091899  1
  O  O439  1  0.86882984  0.86805548  0.62444086  1
  O  O440  1  0.13320217  0.12433275  0.38347117  1
  O  O441  1  0.12677545  0.13247215  0.88297643  1
  O  O442  1  0.12893886  0.63055301  0.38079126  1
  O  O443  1  0.13008372  0.62888604  0.88038433  1
  O  O444  1  0.62628286  0.13466644  0.37599631  1
  O  O445  1  0.62724959  0.12763980  0.88785310  1
  O  O446  1  0.63194343  0.63270382  0.37729865  1
  O  O447  1  0.63442383  0.62546224  0.88379163  1
