# generated using pymatgen
data_V3Zn3O8
_symmetry_space_group_name_H-M   'P 1'
_cell_length_a   17.08946742
_cell_length_b   17.09037552
_cell_length_c   17.09044238
_cell_angle_alpha   89.99570037
_cell_angle_beta   90.01646629
_cell_angle_gamma   89.99072713
_symmetry_Int_Tables_number   1
_chemical_formula_structural   V3Zn3O8
_chemical_formula_sum   'V96 Zn96 O256'
_cell_volume   4991.52687185
_cell_formula_units_Z   32
loop_
 _symmetry_equiv_pos_site_id
 _symmetry_equiv_pos_as_xyz
  1  'x, y, z'
loop_
 _atom_site_type_symbol
 _atom_site_label
 _atom_site_symmetry_multiplicity
 _atom_site_fract_x
 _atom_site_fract_y
 _atom_site_fract_z
 _atom_site_occupancy
  V  V0  1  0.74987697  0.74869336  0.50054094  1
  V  V1  1  0.12515891  0.12542078  -0.00075610  1
  V  V2  1  0.12455055  0.74999487  0.37484082  1
  V  V3  1  0.87528421  0.37543332  0.50110785  1
  V  V4  1  0.24925385  0.62630979  0.37658940  1
  V  V5  1  0.50015488  0.12376902  0.12592318  1
  V  V6  1  0.00112959  0.62525585  0.62389696  1
  V  V7  1  0.74986814  0.37458409  0.12477282  1
  V  V8  1  0.87548268  0.75029176  0.62508874  1
  V  V9  1  0.25019326  0.50007460  0.74978578  1
  V  V10  1  0.12505809  0.62476712  -0.00071147  1
  V  V11  1  -0.00017076  0.75213149  0.75010482  1
  V  V12  1  0.74948612  0.12548309  0.37565255  1
  V  V13  1  0.50104459  0.37277455  0.87534486  1
  V  V14  1  0.74918749  0.24847587  -0.00002470  1
  V  V15  1  0.87574291  0.62504612  0.24849165  1
  V  V16  1  0.49983343  0.62433029  0.12528144  1
  V  V17  1  0.12390150  0.37422383  0.25032059  1
  V  V18  1  -0.00048371  0.12467444  0.12448288  1
  V  V19  1  0.25061591  0.37510951  0.62504875  1
  V  V20  1  0.50030334  0.74861285  0.25081057  1
  V  V21  1  0.74951479  0.87510239  0.62494353  1
  V  V22  1  0.12518380  -0.00009304  0.12449959  1
  V  V23  1  0.87448885  0.87490252  0.49946264  1
  V  V24  1  0.24973861  0.24955010  0.00012482  1
  V  V25  1  0.12578008  -0.00123827  0.62519551  1
  V  V26  1  0.74993063  0.49944183  0.24965493  1
  V  V27  1  0.37507156  0.74970571  0.12593942  1
  V  V28  1  0.12509324  0.50001494  0.12444485  1
  V  V29  1  0.62580928  0.87437422  0.24982856  1
  V  V30  1  0.37365672  0.00052963  0.87507670  1
  V  V31  1  -0.00007991  0.25054302  0.24990851  1
  V  V32  1  0.37547508  0.37475473  0.50078758  1
  V  V33  1  0.00028303  0.87544261  0.37324111  1
  V  V34  1  0.75080156  0.75047015  0.00013969  1
  V  V35  1  0.75003720  0.00144723  0.74965853  1
  V  V36  1  0.49981324  0.12582747  0.62573552  1
  V  V37  1  0.87450276  0.12595594  0.75020419  1
  V  V38  1  0.75050381  0.62365040  0.37542641  1
  V  V39  1  -0.00038263  0.49921538  -0.00109469  1
  V  V40  1  0.62438750  0.74815900  0.37511792  1
  V  V41  1  0.25015590  0.00084015  0.75047009  1
  V  V42  1  0.37376833  0.50011873  0.37462032  1
  V  V43  1  0.37549134  -0.00099054  0.37602837  1
  V  V44  1  0.24980643  0.62546278  0.87509014  1
  V  V45  1  -0.00047588  0.37530532  0.37453794  1
  V  V46  1  0.24950541  0.49984616  0.25039718  1
  V  V47  1  0.49977870  0.87482630  0.87545849  1
  V  V48  1  0.62701088  0.12558061  0.49860141  1
  V  V49  1  0.50029705  0.49968261  0.50110017  1
  V  V50  1  0.62512626  0.00056621  0.62419183  1
  V  V51  1  0.49845224  0.62599137  0.62673097  1
  V  V52  1  0.87554644  -0.00029346  0.37435565  1
  V  V53  1  -0.00056509  -0.00065932  -0.00126360  1
  V  V54  1  0.00054306  0.37529457  0.87484540  1
  V  V55  1  0.25056468  0.87431473  0.12485058  1
  V  V56  1  0.50064074  0.25000218  0.25141426  1
  V  V57  1  0.25098401  0.00098745  0.25006760  1
  V  V58  1  0.75042165  0.37580037  0.62586649  1
  V  V59  1  0.87540394  0.37462827  -0.00104351  1
  V  V60  1  0.12567806  0.25035955  0.87500873  1
  V  V61  1  0.62453045  0.50024530  0.12418762  1
  V  V62  1  0.12474392  0.50128549  0.62386560  1
  V  V63  1  0.62363593  0.75025506  0.87481429  1
  V  V64  1  -0.00021553  0.12768991  0.62443507  1
  V  V65  1  0.49875993  -0.00307076  0.49901863  1
  V  V66  1  0.25003003  0.37544809  0.12545184  1
  V  V67  1  0.87440315  0.87509425  -0.00029070  1
  V  V68  1  0.24986617  0.24961464  0.49925671  1
  V  V69  1  0.00007221  0.87600653  0.87453891  1
  V  V70  1  -0.00092926  0.62524953  0.12479466  1
  V  V71  1  0.87525369  0.49954874  0.37479899  1
  V  V72  1  0.37578286  0.37498002  0.00039860  1
  V  V73  1  0.62469275  0.37426391  0.25020219  1
  V  V74  1  0.12450978  0.74988880  0.87496206  1
  V  V75  1  0.37505136  0.87452158  0.00097616  1
  V  V76  1  0.87246323  0.62384771  0.75256690  1
  V  V77  1  0.24968527  0.12666658  0.37525276  1
  V  V78  1  0.49994853  0.00011646  0.00133716  1
  V  V79  1  0.37491434  0.25013645  0.12596363  1
  V  V80  1  0.74984287  -0.00196068  0.25014507  1
  V  V81  1  0.37531280  0.62593511  0.74965728  1
  V  V82  1  0.37632508  0.24916181  0.62619992  1
  V  V83  1  0.62470051  0.62345370  0.50181472  1
  V  V84  1  0.37583558  0.12478582  0.25051374  1
  V  V85  1  0.87465063  0.24943567  0.12451704  1
  V  V86  1  0.62401645  0.87522385  0.75058719  1
  V  V87  1  0.62590966  0.12444441  -0.00037117  1
  V  V88  1  0.12462493  0.87587268  0.24973484  1
  V  V89  1  0.62500140  0.62518983  -0.00055507  1
  V  V90  1  0.62571767  0.37450437  0.75046852  1
  V  V91  1  0.12510472  0.37449178  0.75042791  1
  V  V92  1  0.50056034  0.37467077  0.37526869  1
  V  V93  1  -0.00021257  0.00170693  0.49956567  1
  V  V94  1  0.87440254  0.12416228  0.24986192  1
  V  V95  1  0.37491358  0.49935458  0.87566842  1
  Zn  Zn96  1  0.12430479  0.24967869  0.37620024  1
  Zn  Zn97  1  0.25471043  0.87502516  0.62345126  1
  Zn  Zn98  1  0.62648470  -0.00210012  0.12527915  1
  Zn  Zn99  1  0.12307794  0.62542670  0.50030328  1
  Zn  Zn100  1  0.37497424  0.62526888  0.24937415  1
  Zn  Zn101  1  0.87584799  0.75042311  0.12570185  1
  Zn  Zn102  1  0.75209730  0.87536283  0.12493418  1
  Zn  Zn103  1  0.37695108  0.12676299  0.75234440  1
  Zn  Zn104  1  0.36978753  0.75224106  0.62327825  1
  Zn  Zn105  1  0.12497656  0.12742776  0.49809621  1
  Zn  Zn106  1  0.49655941  0.75191928  0.74962708  1
  Zn  Zn107  1  0.75085080  0.49900043  0.75358894  1
  Zn  Zn108  1  -0.00230895  0.75068670  0.24710827  1
  Zn  Zn109  1  0.49992326  0.24744501  0.75023089  1
  Zn  Zn110  1  0.12524355  0.87471358  0.74999230  1
  Zn  Zn111  1  0.74773512  0.62147448  0.87408663  1
  Zn  Zn112  1  0.62579578  0.50031864  0.62736328  1
  Zn  Zn113  1  0.50089898  0.49999964  0.00088596  1
  Zn  Zn114  1  0.87331956  0.49960220  0.87537586  1
  Zn  Zn115  1  0.25011796  0.74951966  0.00024697  1
  Zn  Zn116  1  0.00004509  0.25156265  0.74937922  1
  Zn  Zn117  1  0.62640439  0.24879439  0.87430948  1
  Zn  Zn118  1  0.87620274  0.25227371  0.62504022  1
  Zn  Zn119  1  0.49745215  0.87175737  0.37604176  1
  Zn  Zn120  1  0.37263792  0.87129112  0.50053964  1
  Zn  Zn121  1  0.24954716  0.75646109  0.50281827  1
  Zn  Zn122  1  0.62658370  0.25048109  0.37581377  1
  Zn  Zn123  1  0.00233473  0.50200501  0.49866633  1
  Zn  Zn124  1  0.87342671  0.00111910  0.87559611  1
  Zn  Zn125  1  0.25124537  0.12574791  0.87514536  1
  Zn  Zn126  1  0.75035366  0.12519203  0.87454080  1
  Zn  Zn127  1  0.74918141  0.25041406  0.49842593  1
  Zn  Zn128  1  0.18704824  0.18798474  0.18796088  1
  Zn  Zn129  1  0.18854801  0.18669334  0.68794241  1
  Zn  Zn130  1  0.18706561  0.68793386  0.18877293  1
  Zn  Zn131  1  0.18717542  0.68875575  0.68761008  1
  Zn  Zn132  1  0.68685423  0.18668782  0.18733183  1
  Zn  Zn133  1  0.68791624  0.19054724  0.68495385  1
  Zn  Zn134  1  0.68792492  0.68701425  0.18600713  1
  Zn  Zn135  1  0.68588886  0.68906744  0.68814686  1
  Zn  Zn136  1  0.31282882  0.31258592  0.31322743  1
  Zn  Zn137  1  0.31296409  0.31125381  0.81192420  1
  Zn  Zn138  1  0.31350754  0.81357118  0.31330493  1
  Zn  Zn139  1  0.31167661  0.81279124  0.81026714  1
  Zn  Zn140  1  0.81226746  0.31099960  0.31326394  1
  Zn  Zn141  1  0.81261618  0.30948913  0.81396051  1
  Zn  Zn142  1  0.81253567  0.80999483  0.31294007  1
  Zn  Zn143  1  0.81195333  0.81293436  0.81425918  1
  Zn  Zn144  1  0.18609246  0.43755598  0.43823591  1
  Zn  Zn145  1  0.18780525  0.43755078  0.93714289  1
  Zn  Zn146  1  0.18810077  0.93915475  0.43904567  1
  Zn  Zn147  1  0.18756557  0.93632882  0.93710964  1
  Zn  Zn148  1  0.68687884  0.43816824  0.43837925  1
  Zn  Zn149  1  0.68893136  0.43905396  0.93661648  1
  Zn  Zn150  1  0.68696877  0.93719808  0.43582841  1
  Zn  Zn151  1  0.68828917  0.93859569  0.93541044  1
  Zn  Zn152  1  0.31243562  0.06242645  0.06230739  1
  Zn  Zn153  1  0.31324257  0.06365172  0.56261653  1
  Zn  Zn154  1  0.31320810  0.56287472  0.06150950  1
  Zn  Zn155  1  0.31227285  0.56357328  0.56113633  1
  Zn  Zn156  1  0.81151109  0.05983535  0.06411609  1
  Zn  Zn157  1  0.81276194  0.06233922  0.56253777  1
  Zn  Zn158  1  0.81237683  0.56274418  0.06146298  1
  Zn  Zn159  1  0.81330745  0.56019965  0.56503669  1
  Zn  Zn160  1  0.43762425  0.43870822  0.18869911  1
  Zn  Zn161  1  0.43835570  0.43785700  0.68901724  1
  Zn  Zn162  1  0.43897742  0.93643211  0.18838934  1
  Zn  Zn163  1  0.43577114  0.93739978  0.68720919  1
  Zn  Zn164  1  0.93721085  0.43820550  0.18613784  1
  Zn  Zn165  1  0.93971422  0.44025994  0.68773430  1
  Zn  Zn166  1  0.93685652  0.93613553  0.18514449  1
  Zn  Zn167  1  0.93750757  0.93942610  0.68770565  1
  Zn  Zn168  1  0.06365647  0.06381913  0.31239306  1
  Zn  Zn169  1  0.06259398  0.06303612  0.81241157  1
  Zn  Zn170  1  0.06151637  0.56213678  0.31126974  1
  Zn  Zn171  1  0.06117375  0.56264059  0.81135276  1
  Zn  Zn172  1  0.56336004  0.06144066  0.31442450  1
  Zn  Zn173  1  0.56116115  0.06135886  0.81301304  1
  Zn  Zn174  1  0.56212206  0.56152246  0.31240756  1
  Zn  Zn175  1  0.56255863  0.56026015  0.81298481  1
  Zn  Zn176  1  0.43784780  0.18679381  0.43852526  1
  Zn  Zn177  1  0.43726364  0.18688386  0.93768006  1
  Zn  Zn178  1  0.43533989  0.68794921  0.43939306  1
  Zn  Zn179  1  0.43802877  0.68809405  0.93859670  1
  Zn  Zn180  1  0.93606432  0.18979109  0.43724598  1
  Zn  Zn181  1  0.93819962  0.18831961  0.93532680  1
  Zn  Zn182  1  0.93873855  0.68763488  0.43678075  1
  Zn  Zn183  1  0.93818209  0.68867902  0.93696918  1
  Zn  Zn184  1  0.06245290  0.31213045  0.06211866  1
  Zn  Zn185  1  0.06418358  0.31346145  0.56101831  1
  Zn  Zn186  1  0.06187144  0.81100511  0.06140965  1
  Zn  Zn187  1  0.06225382  0.81342592  0.56107972  1
  Zn  Zn188  1  0.56206272  0.31096700  0.06316281  1
  Zn  Zn189  1  0.56406431  0.31053716  0.56252723  1
  Zn  Zn190  1  0.56254370  0.81134510  0.06370399  1
  Zn  Zn191  1  0.56208712  0.81111343  0.56366498  1
  O  O192  1  0.11901616  0.11973602  0.12003438  1
  O  O193  1  0.11512627  0.11633569  0.62488552  1
  O  O194  1  0.12057771  0.61860154  0.11986965  1
  O  O195  1  0.11859286  0.61892537  0.62432924  1
  O  O196  1  0.61861115  0.12303871  0.11612236  1
  O  O197  1  0.62086748  0.11937820  0.61886182  1
  O  O198  1  0.61987873  0.61953803  0.11980486  1
  O  O199  1  0.61681069  0.62260614  0.62073512  1
  O  O200  1  0.38042731  0.38063633  0.38097385  1
  O  O201  1  0.38200162  0.37921381  0.87984037  1
  O  O202  1  0.37869382  0.88480478  0.37610192  1
  O  O203  1  0.38011960  0.88019697  0.88132413  1
  O  O204  1  0.87848743  0.38033406  0.38176393  1
  O  O205  1  0.88265676  0.37411922  0.88187440  1
  O  O206  1  0.87981050  0.87999164  0.38010171  1
  O  O207  1  0.88166122  0.87717331  0.88194925  1
  O  O208  1  0.25514348  0.00700277  0.36816571  1
  O  O209  1  0.25426469  0.00133337  0.86720884  1
  O  O210  1  0.25322038  0.50678577  0.36987566  1
  O  O211  1  0.25504888  0.50476805  0.86909481  1
  O  O212  1  0.75692588  0.00477063  0.36963932  1
  O  O213  1  0.75219218  0.00448911  0.86512474  1
  O  O214  1  0.75518336  0.50479701  0.36913647  1
  O  O215  1  0.75602979  0.50388829  0.87157208  1
  O  O216  1  0.24468026  0.49463978  0.13006327  1
  O  O217  1  0.24584863  0.49477472  0.63022086  1
  O  O218  1  0.24498984  0.99494210  0.13092341  1
  O  O219  1  0.24026091  1.00329161  0.63266109  1
  O  O220  1  0.74466140  0.49388789  0.13058731  1
  O  O221  1  0.74825135  0.48718338  0.62901126  1
  O  O222  1  0.74681596  0.99591042  0.13489154  1
  O  O223  1  0.74421279  0.99377755  0.62900451  1
  O  O224  1  0.00368445  0.37003632  0.25385591  1
  O  O225  1  0.00730166  0.37414209  0.75579063  1
  O  O226  1  0.00680564  0.87553030  0.25599923  1
  O  O227  1  -0.00080784  0.86961544  0.75614114  1
  O  O228  1  0.50493779  0.37010115  0.25538104  1
  O  O229  1  0.50793469  0.37389107  0.75830907  1
  O  O230  1  0.51037727  0.86836211  0.25203078  1
  O  O231  1  0.50712050  0.87598221  0.75739712  1
  O  O232  1  0.49522445  0.12932013  0.24583057  1
  O  O233  1  0.49978641  0.12655760  0.74121920  1
  O  O234  1  0.49965727  0.63095580  0.24341988  1
  O  O235  1  0.49452276  0.62320626  0.74136998  1
  O  O236  1  0.99382405  0.12949312  0.24400110  1
  O  O237  1  0.99177030  0.12452091  0.74013453  1
  O  O238  1  0.99311650  0.62408449  0.24247993  1
  O  O239  1  0.99183431  0.63213493  0.74425848  1
  O  O240  1  0.36986490  0.25539149  0.00696825  1
  O  O241  1  0.37025018  0.25627684  0.50595133  1
  O  O242  1  0.37375851  0.75728701  0.00763286  1
  O  O243  1  0.36944245  0.75230541  0.50242464  1
  O  O244  1  0.86999174  0.25410994  0.00617964  1
  O  O245  1  0.87280827  0.26428846  0.50136895  1
  O  O246  1  0.86560455  0.75590038  -0.00098017  1
  O  O247  1  0.86941276  0.75559543  0.50479183  1
  O  O248  1  0.13406729  0.24844117  0.49735236  1
  O  O249  1  0.13061514  0.24535628  0.99594915  1
  O  O250  1  0.12525543  0.74995276  0.48476415  1
  O  O251  1  0.12651194  0.74208957  0.99297337  1
  O  O252  1  0.62755627  0.24118261  0.49656340  1
  O  O253  1  0.63041966  0.23957668  1.00186416  1
  O  O254  1  0.63072881  0.74339415  0.49536761  1
  O  O255  1  0.63211260  0.74605042  0.99503790  1
  O  O256  1  0.49348589  0.24437203  0.13148787  1
  O  O257  1  0.49357644  0.24341100  0.62459274  1
  O  O258  1  0.49508894  0.74393366  0.13099599  1
  O  O259  1  0.50018752  0.73491799  0.62617105  1
  O  O260  1  0.99399994  0.24436375  0.12954884  1
  O  O261  1  1.00030653  0.23844208  0.62592459  1
  O  O262  1  0.99841965  0.74059027  0.12663661  1
  O  O263  1  0.99446088  0.74631021  0.62959064  1
  O  O264  1  -0.00026115  0.25704179  0.36684843  1
  O  O265  1  0.00838579  0.25757844  0.87389597  1
  O  O266  1  0.00821118  0.75649828  0.37186866  1
  O  O267  1  0.00542565  0.75603585  0.86962769  1
  O  O268  1  0.50014852  0.25692865  0.36855366  1
  O  O269  1  0.50060068  0.26259974  0.87436169  1
  O  O270  1  0.50760866  0.74886454  0.36948717  1
  O  O271  1  0.50614709  0.75796366  0.87450768  1
  O  O272  1  0.24997711  0.13193277  0.49302909  1
  O  O273  1  0.24287821  0.13190843  1.00088906  1
  O  O274  1  0.24618282  0.62455610  0.48494009  1
  O  O275  1  0.24293443  0.62494257  0.99270490  1
  O  O276  1  0.74500737  0.12468932  0.49396214  1
  O  O277  1  0.74094581  0.12884187  1.00141834  1
  O  O278  1  0.74558090  0.62888129  0.49616990  1
  O  O279  1  0.74435309  0.63449467  0.99837805  1
  O  O280  1  0.25536501  0.36959150  0.00633270  1
  O  O281  1  0.25658444  0.37052922  0.50562663  1
  O  O282  1  0.25698858  0.87436432  0.00757060  1
  O  O283  1  0.25332863  0.87630648  0.50390398  1
  O  O284  1  0.75495036  0.36881476  0.00649359  1
  O  O285  1  0.75823670  0.37629289  0.50749717  1
  O  O286  1  0.75488717  0.86703171  -0.00001362  1
  O  O287  1  0.75476771  0.86926936  0.50479010  1
  O  O288  1  0.12989067  0.49358924  0.24355964  1
  O  O289  1  0.13142840  0.49456892  0.74470166  1
  O  O290  1  0.13092356  0.99579391  0.24379661  1
  O  O291  1  0.13190987  1.00051419  0.74211027  1
  O  O292  1  0.63098086  0.49409909  0.24455441  1
  O  O293  1  0.62715510  0.48581847  0.74918026  1
  O  O294  1  0.63007251  0.98950718  0.25129628  1
  O  O295  1  0.63015808  0.99514157  0.74343121  1
  O  O296  1  0.37063184  0.00583026  0.25483744  1
  O  O297  1  0.36596355  0.00184399  0.75651074  1
  O  O298  1  0.36720339  0.50052338  0.25702086  1
  O  O299  1  0.36901091  0.50464656  0.75645069  1
  O  O300  1  0.87062332  0.00471071  0.25532645  1
  O  O301  1  0.86877030  0.01045470  0.74838550  1
  O  O302  1  0.86829044  0.50398042  0.25485097  1
  O  O303  1  0.87552498  0.51315092  0.75114475  1
  O  O304  1  0.11802879  0.37415299  0.36749408  1
  O  O305  1  0.12066091  0.37030119  0.87006822  1
  O  O306  1  0.12028400  0.86945488  0.36908493  1
  O  O307  1  0.11748524  0.86832369  0.87463697  1
  O  O308  1  0.61851499  0.37505875  0.36806241  1
  O  O309  1  0.61680281  0.37373720  0.86917958  1
  O  O310  1  0.62440015  0.86715834  0.36531064  1
  O  O311  1  0.61895708  0.87079011  0.87017439  1
  O  O312  1  0.38026014  0.13043716  0.13070216  1
  O  O313  1  0.38270852  0.13177511  0.62565094  1
  O  O314  1  0.38078898  0.63091453  0.12657029  1
  O  O315  1  0.38390970  0.62311458  0.63103197  1
  O  O316  1  0.88032218  0.12978636  0.13039970  1
  O  O317  1  0.88380465  0.12560542  0.63150748  1
  O  O318  1  0.88134967  0.62454151  0.13072442  1
  O  O319  1  0.87966346  0.63126155  0.63238402  1
  O  O320  1  0.25557052  0.25605834  0.12076600  1
  O  O321  1  0.25566562  0.25578593  0.61968901  1
  O  O322  1  0.25596340  0.75671798  0.12481834  1
  O  O323  1  0.24860071  0.75504700  0.62187853  1
  O  O324  1  0.75589141  0.25496706  0.12066149  1
  O  O325  1  0.75353903  0.26428122  0.62107399  1
  O  O326  1  0.75057743  0.75134721  0.11081156  1
  O  O327  1  0.75501948  0.75594061  0.61905775  1
  O  O328  1  0.25061316  0.24451717  0.38107485  1
  O  O329  1  0.24417197  0.24968817  0.88279745  1
  O  O330  1  0.24056105  0.74165212  0.37183211  1
  O  O331  1  0.24317379  0.74308329  0.87592839  1
  O  O332  1  0.74807339  0.24089269  0.37638238  1
  O  O333  1  0.74683915  0.24549617  0.88478943  1
  O  O334  1  0.74482260  0.74240670  0.38196398  1
  O  O335  1  0.74273225  0.74954915  0.88565842  1
  O  O336  1  0.00488531  0.12008321  0.00585299  1
  O  O337  1  -0.00198627  0.12031104  0.50883405  1
  O  O338  1  0.00550517  0.61871156  0.00421081  1
  O  O339  1  0.00086028  0.62305956  0.50808729  1
  O  O340  1  0.50702226  0.12061746  0.00630992  1
  O  O341  1  0.50651363  0.11576699  0.50447945  1
  O  O342  1  0.50704191  0.62334649  0.00723192  1
  O  O343  1  0.50483797  0.61882398  0.50775229  1
  O  O344  1  0.49500109  0.37997556  0.49554969  1
  O  O345  1  0.49474716  0.37536921  0.99215291  1
  O  O346  1  0.50340664  0.88832505  0.49837821  1
  O  O347  1  0.49527954  0.88070360  0.99622384  1
  O  O348  1  0.99042100  0.37676721  0.49461500  1
  O  O349  1  0.99518250  0.37966282  0.99570656  1
  O  O350  1  0.99339553  0.88137984  0.49345922  1
  O  O351  1  0.99438946  0.88012653  0.99453437  1
  O  O352  1  0.49393839  0.49476005  0.38052237  1
  O  O353  1  0.49390655  0.48799375  0.87677127  1
  O  O354  1  0.49473884  0.99983080  0.38479456  1
  O  O355  1  0.49414296  0.99399108  0.88213541  1
  O  O356  1  0.99259362  0.49309721  0.37518843  1
  O  O357  1  0.99948461  0.49296314  0.88200950  1
  O  O358  1  0.99482276  0.99566885  0.37952564  1
  O  O359  1  0.99931925  0.99423652  0.88187174  1
  O  O360  1  0.00595413  0.00565906  0.11924675  1
  O  O361  1  0.00585663  0.00890808  0.62017658  1
  O  O362  1  0.00642077  0.50429148  0.11874869  1
  O  O363  1  0.00777552  0.50758608  0.62395515  1
  O  O364  1  0.50142817  0.00631936  0.11915209  1
  O  O365  1  0.50603187  0.00581734  0.61669767  1
  O  O366  1  0.50687905  0.50548215  0.12459409  1
  O  O367  1  0.50051556  0.50945069  0.61955850  1
  O  O368  1  0.24452817  0.37966072  0.24460950  1
  O  O369  1  0.24542163  0.38108272  0.74446527  1
  O  O370  1  0.24447585  0.88213622  0.24455885  1
  O  O371  1  0.24646209  0.88946742  0.74826521  1
  O  O372  1  0.74547705  0.37970997  0.24436657  1
  O  O373  1  0.74362381  0.37391442  0.74291917  1
  O  O374  1  0.74128277  0.87857574  0.25110435  1
  O  O375  1  0.74480340  0.88033744  0.74367970  1
  O  O376  1  0.25672947  0.12047701  0.25356799  1
  O  O377  1  0.25190107  0.11293645  0.75269345  1
  O  O378  1  0.24984901  0.61837760  0.26032475  1
  O  O379  1  0.25507711  0.61809533  0.75611021  1
  O  O380  1  0.75574948  0.11873109  0.25455937  1
  O  O381  1  0.75867939  0.12086735  0.74705408  1
  O  O382  1  0.75425308  0.61854056  0.25543793  1
  O  O383  1  0.76079780  0.62559805  0.74961644  1
  O  O384  1  0.37024321  0.11935685  0.36878281  1
  O  O385  1  0.37280642  0.11658312  0.87445119  1
  O  O386  1  0.36531655  0.61842696  0.37252748  1
  O  O387  1  0.37058005  0.61876637  0.87084048  1
  O  O388  1  0.87067473  0.11878539  0.36917493  1
  O  O389  1  0.87525972  0.12311345  0.86235096  1
  O  O390  1  0.86925296  0.61912334  0.37002921  1
  O  O391  1  0.87487817  0.62618204  0.86246125  1
  O  O392  1  0.13034388  0.38040601  0.12967524  1
  O  O393  1  0.13143416  0.38045959  0.63080028  1
  O  O394  1  0.12980484  0.88065270  0.12942449  1
  O  O395  1  0.12071429  0.89078330  0.62679620  1
  O  O396  1  0.63034260  0.37966163  0.13035237  1
  O  O397  1  0.63243635  0.37597517  0.63290728  1
  O  O398  1  0.62680837  0.87430711  0.13912739  1
  O  O399  1  0.63037902  0.88031424  0.62984868  1
  O  O400  1  0.11752496  0.25698889  0.24952109  1
  O  O401  1  0.12538498  0.25689100  0.75633033  1
  O  O402  1  0.12317464  0.75705823  0.25964234  1
  O  O403  1  0.11669509  0.75175752  0.75722097  1
  O  O404  1  0.61795177  0.25650040  0.25038684  1
  O  O405  1  0.62303951  0.26233345  0.75252824  1
  O  O406  1  0.62163664  0.75556631  0.25552432  1
  O  O407  1  0.62281926  0.75809895  0.75663767  1
  O  O408  1  0.38060259  0.24482583  0.24470375  1
  O  O409  1  0.37727235  0.24806011  0.74148347  1
  O  O410  1  0.38243353  0.74939374  0.24387431  1
  O  O411  1  0.37748169  0.74008798  0.74809709  1
  O  O412  1  0.87996213  0.24416627  0.24361594  1
  O  O413  1  0.87794612  0.23868678  0.74633886  1
  O  O414  1  0.87612664  0.74097298  0.24757851  1
  O  O415  1  0.87924190  0.74394113  0.74410423  1
  O  O416  1  0.38003147  0.49388143  0.49422324  1
  O  O417  1  0.37653359  0.49214766  0.99357249  1
  O  O418  1  0.38670731  1.00241319  0.49439496  1
  O  O419  1  0.38011993  0.99427490  0.99586902  1
  O  O420  1  0.87561063  0.48982643  0.49379052  1
  O  O421  1  0.88207884  0.49228924  1.00021823  1
  O  O422  1  0.87979428  0.99383037  0.49430025  1
  O  O423  1  0.88154080  0.99380598  0.99908902  1
  O  O424  1  0.11993950  0.00531549  0.00602228  1
  O  O425  1  0.11767096  0.00463392  0.50861672  1
  O  O426  1  0.11994848  0.50457951  0.00544018  1
  O  O427  1  0.12277147  0.50188507  0.50861934  1
  O  O428  1  0.61936410  0.00797819  0.00198945  1
  O  O429  1  0.61839998  0.00496252  0.50433695  1
  O  O430  1  0.62470449  0.50657450  0.00730827  1
  O  O431  1  0.61799255  0.50622033  0.50211823  1
  O  O432  1  0.36982335  0.36988976  0.12080828  1
  O  O433  1  0.36996523  0.37078963  0.61992937  1
  O  O434  1  0.37028635  0.87002772  0.12086527  1
  O  O435  1  0.37471309  0.87159824  0.62080885  1
  O  O436  1  0.86946026  0.36890064  0.11952079  1
  O  O437  1  0.86924527  0.37650679  0.61764283  1
  O  O438  1  0.87321098  0.87122527  0.11539343  1
  O  O439  1  0.86963208  0.87033720  0.61907926  1
  O  O440  1  0.13309825  0.12838401  0.37613296  1
  O  O441  1  0.12550576  0.13210593  0.88235320  1
  O  O442  1  0.13122394  0.63337405  0.37335675  1
  O  O443  1  0.12963561  0.62938277  0.87954120  1
  O  O444  1  0.63228401  0.12503846  0.38078093  1
  O  O445  1  0.62373697  0.12675418  0.88843986  1
  O  O446  1  0.63114760  0.62834963  0.38117297  1
  O  O447  1  0.62446867  0.63185525  0.88086935  1
