# generated using pymatgen
data_V3Zn3O8
_symmetry_space_group_name_H-M   'P 1'
_cell_length_a   17.09129640
_cell_length_b   17.09050047
_cell_length_c   17.09073277
_cell_angle_alpha   89.98926759
_cell_angle_beta   90.00358845
_cell_angle_gamma   90.00677400
_symmetry_Int_Tables_number   1
_chemical_formula_structural   V3Zn3O8
_chemical_formula_sum   'V96 Zn96 O256'
_cell_volume   4992.18255401
_cell_formula_units_Z   32
loop_
 _symmetry_equiv_pos_site_id
 _symmetry_equiv_pos_as_xyz
  1  'x, y, z'
loop_
 _atom_site_type_symbol
 _atom_site_label
 _atom_site_symmetry_multiplicity
 _atom_site_fract_x
 _atom_site_fract_y
 _atom_site_fract_z
 _atom_site_occupancy
  V  V0  1  0.37551178  0.24899702  0.62498291  1
  V  V1  1  0.49915459  0.87540615  0.37528776  1
  V  V2  1  0.75049336  0.37643099  0.62464775  1
  V  V3  1  0.37396861  0.74964541  0.62420701  1
  V  V4  1  0.12382156  0.37400892  0.75047020  1
  V  V5  1  0.50068052  0.24986547  0.24934172  1
  V  V6  1  0.50103031  0.37355434  0.37298197  1
  V  V7  1  0.37473960  0.24927647  0.12457680  1
  V  V8  1  0.12417813  0.25257632  0.37487998  1
  V  V9  1  0.25095743  0.12342688  0.37517282  1
  V  V10  1  0.75070861  0.12661926  0.37583560  1
  V  V11  1  0.49961998  -0.00039316  0.49972183  1
  V  V12  1  0.24974192  0.12439898  0.87462818  1
  V  V13  1  0.00022023  0.49962478  0.49945997  1
  V  V14  1  0.74965341  0.87517059  0.62470699  1
  V  V15  1  0.75023158  0.24968524  -0.00061503  1
  V  V16  1  0.74942240  0.00129961  0.25003499  1
  V  V17  1  0.75069028  0.49995997  0.24943671  1
  V  V18  1  0.87675001  0.25027203  0.12583993  1
  V  V19  1  -0.00155766  0.12636940  0.62769104  1
  V  V20  1  0.37431378  0.37408721  -0.00100212  1
  V  V21  1  0.62541211  -0.00032254  0.62571995  1
  V  V22  1  0.62455520  0.62471079  0.49884894  1
  V  V23  1  0.37440593  0.87614247  -0.00057293  1
  V  V24  1  0.62399980  0.87574525  0.25024629  1
  V  V25  1  -0.00021799  0.87354904  0.87559931  1
  V  V26  1  0.75162430  0.25151040  0.50099192  1
  V  V27  1  0.87330674  0.50111693  0.87562793  1
  V  V28  1  0.49905079  0.74915679  0.24884657  1
  V  V29  1  0.62449900  0.00077194  0.12514266  1
  V  V30  1  0.62660481  0.12585910  -0.00056078  1
  V  V31  1  0.37468969  0.12366278  0.75011362  1
  V  V32  1  0.12431172  0.87423303  0.25091218  1
  V  V33  1  0.75075919  0.37674954  0.12595501  1
  V  V34  1  0.50195284  0.50006390  0.49909413  1
  V  V35  1  -0.00016355  -0.00081643  0.50066532  1
  V  V36  1  0.25111885  0.24957691  0.49962902  1
  V  V37  1  -0.00014200  0.50122990  0.00064342  1
  V  V38  1  0.62468300  0.75044013  0.37436611  1
  V  V39  1  0.25087368  0.49930978  0.74927189  1
  V  V40  1  -0.00010691  -0.00001116  0.00023719  1
  V  V41  1  0.24994360  -0.00066358  0.25089047  1
  V  V42  1  0.12475944  0.50048444  0.12436365  1
  V  V43  1  0.49948569  0.49955168  0.00055004  1
  V  V44  1  0.12536096  0.87362849  0.74994393  1
  V  V45  1  0.37448313  0.49884679  0.87399783  1
  V  V46  1  0.37499161  0.00033312  0.87501433  1
  V  V47  1  0.87415308  0.00236296  0.87424008  1
  V  V48  1  0.00029079  0.12589589  0.12624345  1
  V  V49  1  0.49943498  0.12525978  0.12523944  1
  V  V50  1  0.87601116  0.12647704  0.24994005  1
  V  V51  1  0.12524791  0.50084327  0.62479148  1
  V  V52  1  0.24943739  0.62555552  0.37554578  1
  V  V53  1  0.62357231  0.75043376  0.87504405  1
  V  V54  1  0.49981952  0.74936168  0.75096710  1
  V  V55  1  0.24987777  0.49920799  0.24842159  1
  V  V56  1  0.62454115  0.37473972  0.75054654  1
  V  V57  1  0.25069874  0.37495894  0.62465363  1
  V  V58  1  0.37589833  0.62477795  0.74893097  1
  V  V59  1  0.75084643  0.00086915  0.75043874  1
  V  V60  1  0.74898721  0.75041181  0.49920543  1
  V  V61  1  0.24841550  0.37515131  0.12468274  1
  V  V62  1  0.87520338  0.37542745  0.00033041  1
  V  V63  1  0.87648201  0.50062534  0.37651726  1
  V  V64  1  0.62442009  0.87439478  0.75095405  1
  V  V65  1  0.37505128  0.87383430  0.50091998  1
  V  V66  1  0.00044213  0.75040609  0.25024370  1
  V  V67  1  0.74978390  0.87487883  0.12463330  1
  V  V68  1  0.37687693  0.37431308  0.49959989  1
  V  V69  1  0.12582389  0.12510728  -0.00038468  1
  V  V70  1  0.37484885  0.62425577  0.24830734  1
  V  V71  1  0.24898648  0.62493784  0.87471669  1
  V  V72  1  0.00026017  0.37502516  0.87378449  1
  V  V73  1  -0.00095207  0.62642817  0.62724050  1
  V  V74  1  0.74855893  0.50050243  0.75075430  1
  V  V75  1  0.49909449  0.62422781  0.12476555  1
  V  V76  1  0.75071982  0.62550472  0.37411644  1
  V  V77  1  0.87603373  0.62655971  0.24995524  1
  V  V78  1  0.74871401  0.75085957  0.00171143  1
  V  V79  1  0.87525271  0.00045746  0.37494688  1
  V  V80  1  0.87431881  0.75005547  0.62572320  1
  V  V81  1  0.74862106  0.62482916  0.87537037  1
  V  V82  1  0.12589104  -0.00084862  0.62513038  1
  V  V83  1  0.87440673  0.87520893  0.49996644  1
  V  V84  1  0.62555644  0.12539956  0.50012671  1
  V  V85  1  0.24841674  0.74938033  -0.00175624  1
  V  V86  1  0.24918735  0.24900473  -0.00062939  1
  V  V87  1  0.49948796  -0.00028508  0.00049447  1
  V  V88  1  0.00041860  0.87456969  0.37449042  1
  V  V89  1  0.00017427  0.62553942  0.12520072  1
  V  V90  1  0.50025732  0.37337918  0.87452904  1
  V  V91  1  0.62310136  0.62421056  0.00079652  1
  V  V92  1  0.49998464  0.12457302  0.62491711  1
  V  V93  1  0.50086642  0.25000063  0.75033548  1
  V  V94  1  0.24950643  0.87478791  0.12463696  1
  V  V95  1  0.12451359  0.00012098  0.12526085  1
  Zn  Zn96  1  0.12823410  0.62796666  0.50104197  1
  Zn  Zn97  1  0.62690324  0.25015058  0.37283153  1
  Zn  Zn98  1  0.37565863  0.12143359  0.24996022  1
  Zn  Zn99  1  0.62647828  0.37650767  0.24816442  1
  Zn  Zn100  1  0.50168894  0.62375182  0.62434265  1
  Zn  Zn101  1  0.00047522  0.25292266  0.25203651  1
  Zn  Zn102  1  0.62755928  0.24822246  0.87458267  1
  Zn  Zn103  1  0.37428789  0.49942143  0.37305348  1
  Zn  Zn104  1  0.49933032  0.87517788  0.87589777  1
  Zn  Zn105  1  0.87540200  0.75221935  0.12394362  1
  Zn  Zn106  1  0.87291972  0.12931158  0.74974534  1
  Zn  Zn107  1  0.74961204  0.12690358  0.87315094  1
  Zn  Zn108  1  0.62501001  0.50265532  0.62569453  1
  Zn  Zn109  1  0.37451057  -0.00136252  0.37512718  1
  Zn  Zn110  1  0.12249825  0.74713481  0.87291752  1
  Zn  Zn111  1  0.87391827  0.87448309  0.00165475  1
  Zn  Zn112  1  0.62481700  0.49875991  0.12646073  1
  Zn  Zn113  1  0.12281959  0.37519073  0.25014531  1
  Zn  Zn114  1  0.12326608  0.24871965  0.87297326  1
  Zn  Zn115  1  0.12592445  0.75043926  0.37856922  1
  Zn  Zn116  1  -0.00168762  0.25036763  0.75080820  1
  Zn  Zn117  1  0.37424803  0.75002653  0.12409264  1
  Zn  Zn118  1  0.87254116  0.62731584  0.75129772  1
  Zn  Zn119  1  0.12473147  0.12498466  0.50123069  1
  Zn  Zn120  1  -0.00071606  0.37465460  0.37455727  1
  Zn  Zn121  1  0.87568996  0.37560356  0.50042640  1
  Zn  Zn122  1  -0.00299002  0.74928762  0.75145459  1
  Zn  Zn123  1  0.25231366  -0.00141924  0.74898150  1
  Zn  Zn124  1  0.24921323  0.87444791  0.62362106  1
  Zn  Zn125  1  0.87708040  0.25130840  0.62768233  1
  Zn  Zn126  1  0.24908287  0.75006260  0.49926117  1
  Zn  Zn127  1  0.12323896  0.62572084  -0.00279789  1
  Zn  Zn128  1  0.18720466  0.18751251  0.18930072  1
  Zn  Zn129  1  0.18637585  0.18753418  0.68932225  1
  Zn  Zn130  1  0.18589874  0.68748301  0.18719409  1
  Zn  Zn131  1  0.18692047  0.68777618  0.68841595  1
  Zn  Zn132  1  0.68820152  0.18914593  0.18541966  1
  Zn  Zn133  1  0.68802387  0.18757310  0.68812864  1
  Zn  Zn134  1  0.68637322  0.68663559  0.18634331  1
  Zn  Zn135  1  0.68584275  0.68659017  0.68666099  1
  Zn  Zn136  1  0.31319539  0.31230413  0.31091639  1
  Zn  Zn137  1  0.31158594  0.31059303  0.81228328  1
  Zn  Zn138  1  0.31351355  0.81072210  0.31238692  1
  Zn  Zn139  1  0.31198640  0.81345417  0.81248962  1
  Zn  Zn140  1  0.81574591  0.31529330  0.31349955  1
  Zn  Zn141  1  0.81436458  0.31138958  0.81193017  1
  Zn  Zn142  1  0.81350832  0.81283445  0.31076651  1
  Zn  Zn143  1  0.81181605  0.81234718  0.81287106  1
  Zn  Zn144  1  0.18777405  0.43951808  0.43786423  1
  Zn  Zn145  1  0.18562926  0.43756237  0.93759861  1
  Zn  Zn146  1  0.18801370  0.93541716  0.43925395  1
  Zn  Zn147  1  0.18779998  0.93853045  0.93680136  1
  Zn  Zn148  1  0.68644274  0.43753096  0.43487734  1
  Zn  Zn149  1  0.68597171  0.43656962  0.93818989  1
  Zn  Zn150  1  0.68696338  0.93837702  0.43731134  1
  Zn  Zn151  1  0.68700707  0.93736770  0.93783800  1
  Zn  Zn152  1  0.31247884  0.06261927  0.06273553  1
  Zn  Zn153  1  0.31219974  0.06131853  0.56146383  1
  Zn  Zn154  1  0.31262658  0.56285635  0.06209612  1
  Zn  Zn155  1  0.31572523  0.56189382  0.56084404  1
  Zn  Zn156  1  0.81320077  0.06293447  0.06146099  1
  Zn  Zn157  1  0.81347763  0.06289274  0.56290426  1
  Zn  Zn158  1  0.81309854  0.56405977  0.06383760  1
  Zn  Zn159  1  0.81293722  0.56307783  0.56283234  1
  Zn  Zn160  1  0.43515004  0.43787494  0.18612261  1
  Zn  Zn161  1  0.43818889  0.43677415  0.68591823  1
  Zn  Zn162  1  0.43474282  0.93706195  0.18730416  1
  Zn  Zn163  1  0.43882187  0.93606776  0.68808696  1
  Zn  Zn164  1  0.93949716  0.43692034  0.19029443  1
  Zn  Zn165  1  0.93531831  0.43969457  0.68949832  1
  Zn  Zn166  1  0.93617575  0.93745205  0.18760106  1
  Zn  Zn167  1  0.93807072  0.93796763  0.68904189  1
  Zn  Zn168  1  0.06349928  0.06354244  0.31261159  1
  Zn  Zn169  1  0.06284821  0.06133635  0.81166762  1
  Zn  Zn170  1  0.06529397  0.56346113  0.31148198  1
  Zn  Zn171  1  0.06255421  0.56085922  0.81241023  1
  Zn  Zn172  1  0.56309008  0.06351026  0.31423177  1
  Zn  Zn173  1  0.56278997  0.06258720  0.81448741  1
  Zn  Zn174  1  0.56415923  0.56182463  0.31121400  1
  Zn  Zn175  1  0.56230107  0.56195540  0.81306226  1
  Zn  Zn176  1  0.43666665  0.18684260  0.43677912  1
  Zn  Zn177  1  0.43788570  0.18680034  0.93728434  1
  Zn  Zn178  1  0.43565903  0.68655162  0.43512804  1
  Zn  Zn179  1  0.43565359  0.68725631  0.93683351  1
  Zn  Zn180  1  0.93811472  0.18645774  0.44104631  1
  Zn  Zn181  1  0.93900297  0.18892161  0.93806013  1
  Zn  Zn182  1  0.93855425  0.68764587  0.43862784  1
  Zn  Zn183  1  0.93383286  0.68798824  0.94001775  1
  Zn  Zn184  1  0.06301494  0.31262102  0.06138058  1
  Zn  Zn185  1  0.06494567  0.31222506  0.56185891  1
  Zn  Zn186  1  0.06325094  0.81165640  0.06285800  1
  Zn  Zn187  1  0.06289701  0.81026376  0.56075561  1
  Zn  Zn188  1  0.56483468  0.31318188  0.06279453  1
  Zn  Zn189  1  0.56582342  0.31211430  0.56305768  1
  Zn  Zn190  1  0.56185213  0.81211856  0.06308166  1
  Zn  Zn191  1  0.56101954  0.81170190  0.56354646  1
  O  O192  1  0.12054979  0.11923952  0.12006473  1
  O  O193  1  0.11780762  0.11485363  0.62465879  1
  O  O194  1  0.11796354  0.61826739  0.12233351  1
  O  O195  1  0.11596418  0.61895681  0.62592965  1
  O  O196  1  0.61925591  0.11947827  0.12001634  1
  O  O197  1  0.61929772  0.11911703  0.61967057  1
  O  O198  1  0.61714314  0.62289221  0.11799767  1
  O  O199  1  0.62159245  0.62323730  0.61479232  1
  O  O200  1  0.38593182  0.37425332  0.38040771  1
  O  O201  1  0.37975379  0.37948312  0.87949851  1
  O  O202  1  0.38234063  0.87456755  0.38281648  1
  O  O203  1  0.37609907  0.88246702  0.88123516  1
  O  O204  1  0.87837715  0.38498184  0.38069686  1
  O  O205  1  0.87981721  0.38206626  0.88144935  1
  O  O206  1  0.87960380  0.88135649  0.38007082  1
  O  O207  1  0.88444729  0.88429910  0.87531891  1
  O  O208  1  0.24848152  0.00890242  0.37078054  1
  O  O209  1  0.25705426  0.00708268  0.87382862  1
  O  O210  1  0.25217580  0.50768118  0.36827611  1
  O  O211  1  0.25586961  0.50386166  0.86907056  1
  O  O212  1  0.75542177  0.00597804  0.37014601  1
  O  O213  1  0.76002286  -0.00087302  0.87016602  1
  O  O214  1  0.75572099  0.50680113  0.37083498  1
  O  O215  1  0.75373665  0.50506006  0.87104211  1
  O  O216  1  0.24486484  0.49478381  0.12803112  1
  O  O217  1  0.24667884  0.49462036  0.62936557  1
  O  O218  1  0.24348068  0.99498442  0.12987014  1
  O  O219  1  0.23752261  0.99858511  0.62610128  1
  O  O220  1  0.75112289  0.49426280  0.13186527  1
  O  O221  1  0.74773253  0.49213136  0.62940946  1
  O  O222  1  0.74380996  0.99630821  0.13110595  1
  O  O223  1  0.74464488  0.99400273  0.62887704  1
  O  O224  1  0.00471315  0.37108127  0.25629735  1
  O  O225  1  0.00651854  0.37759407  0.75549626  1
  O  O226  1  0.00455940  0.87131908  0.25524654  1
  O  O227  1  0.00783491  0.87493478  0.75930078  1
  O  O228  1  0.49898070  0.36774161  0.25711962  1
  O  O229  1  0.50420995  0.36969557  0.75409832  1
  O  O230  1  0.50510245  0.87017825  0.25475669  1
  O  O231  1  0.50738332  0.86796498  0.75203547  1
  O  O232  1  0.49898926  0.13332010  0.24515494  1
  O  O233  1  0.49499021  0.12990095  0.74386992  1
  O  O234  1  0.49515014  0.62929573  0.24556146  1
  O  O235  1  0.49341185  0.63028186  0.74842584  1
  O  O236  1  0.99343226  0.12600775  0.24390758  1
  O  O237  1  0.99956958  0.12424112  0.73837373  1
  O  O238  1  0.99540451  0.63051071  0.24543219  1
  O  O239  1  0.99738375  0.62506734  0.73805313  1
  O  O240  1  0.36943459  0.25476440  0.00536681  1
  O  O241  1  0.37102141  0.25468570  0.50613890  1
  O  O242  1  0.36380680  0.75601087  -0.00025869  1
  O  O243  1  0.37744285  0.75509546  0.50970897  1
  O  O244  1  0.87052067  0.25583428  0.00643025  1
  O  O245  1  0.86231163  0.25213380  0.50356068  1
  O  O246  1  0.86427520  0.75411175  0.00299170  1
  O  O247  1  0.86816198  0.75619925  0.50493354  1
  O  O248  1  0.13393000  0.24794047  0.49202932  1
  O  O249  1  0.13216266  0.24244130  0.99865364  1
  O  O250  1  0.13082092  0.74595782  0.49719989  1
  O  O251  1  0.13760679  0.75021810  0.99640915  1
  O  O252  1  0.63591088  0.24388994  0.49929174  1
  O  O253  1  0.63199282  0.24353518  0.99985456  1
  O  O254  1  0.62966040  0.74603713  0.49363968  1
  O  O255  1  0.62841970  0.74395453  0.99449298  1
  O  O256  1  0.49496856  0.24598485  0.13155449  1
  O  O257  1  0.49520166  0.24460740  0.62940320  1
  O  O258  1  0.49816634  0.74293501  0.13132030  1
  O  O259  1  0.48993658  0.74813273  0.63130968  1
  O  O260  1  0.99423260  0.24301205  0.12531184  1
  O  O261  1  1.00026841  0.23833849  0.62290259  1
  O  O262  1  0.99910426  0.74440084  0.13151878  1
  O  O263  1  0.99312956  0.74085479  0.62436901  1
  O  O264  1  0.01229155  0.24958043  0.37891129  1
  O  O265  1  0.00254817  0.25944440  0.87386681  1
  O  O266  1  0.00063889  0.75712294  0.36890812  1
  O  O267  1  -0.00000699  0.76159094  0.87493956  1
  O  O268  1  0.50009772  0.25695111  0.36713341  1
  O  O269  1  0.49991639  0.25618942  0.86782429  1
  O  O270  1  0.50597973  0.75521541  0.36911956  1
  O  O271  1  0.50579182  0.75125622  0.86918468  1
  O  O272  1  0.24895925  0.13022173  0.49126722  1
  O  O273  1  0.24501178  0.12944076  0.99505885  1
  O  O274  1  0.25192960  0.62425003  0.48827278  1
  O  O275  1  0.25033451  0.63412577  0.99390390  1
  O  O276  1  0.74595403  0.13258381  0.49663932  1
  O  O277  1  0.74414289  0.13167553  1.00022939  1
  O  O278  1  0.74507928  0.63105710  0.49369880  1
  O  O279  1  0.74291144  0.63000519  0.99529461  1
  O  O280  1  0.25555794  0.36946574  0.00423426  1
  O  O281  1  0.25740805  0.37054078  0.50527457  1
  O  O282  1  0.25380294  0.86854950  0.00411598  1
  O  O283  1  0.25996546  0.87194086  0.50294431  1
  O  O284  1  0.75655600  0.37053404  0.00529344  1
  O  O285  1  0.74771330  0.36803646  0.50757145  1
  O  O286  1  0.74799732  0.86885812  0.00752216  1
  O  O287  1  0.75450372  0.87035083  0.50473407  1
  O  O288  1  0.13251846  0.49848606  0.24203891  1
  O  O289  1  0.13213224  0.49402178  0.74364421  1
  O  O290  1  0.12990931  0.99423653  0.24422885  1
  O  O291  1  0.12493058  0.99056167  0.74075264  1
  O  O292  1  0.63485858  0.49824306  0.24785062  1
  O  O293  1  0.63011986  0.49296899  0.74840086  1
  O  O294  1  0.62995664  0.99574624  0.24515506  1
  O  O295  1  0.62988859  0.99471549  0.74459985  1
  O  O296  1  0.36609128  0.00109719  0.25414208  1
  O  O297  1  0.37514301  0.00613180  0.75527304  1
  O  O298  1  0.36783046  0.50638949  0.25040255  1
  O  O299  1  0.37030177  0.50400243  0.75389201  1
  O  O300  1  0.86888971  0.00631140  0.25592193  1
  O  O301  1  0.86935385  -0.00057989  0.75936001  1
  O  O302  1  0.87074823  0.50742705  0.25703101  1
  O  O303  1  0.86583062  0.50257762  0.75810976  1
  O  O304  1  0.12615920  0.36323799  0.37540849  1
  O  O305  1  0.11823820  0.37546756  0.86805480  1
  O  O306  1  0.11761999  0.87536415  0.36844829  1
  O  O307  1  0.11538895  0.87790568  0.86620642  1
  O  O308  1  0.61221109  0.37147723  0.37203118  1
  O  O309  1  0.61730921  0.37265173  0.86870114  1
  O  O310  1  0.61970777  0.87024490  0.36965328  1
  O  O311  1  0.62343003  0.86865308  0.86848754  1
  O  O312  1  0.38164945  0.13157243  0.12622558  1
  O  O313  1  0.38057558  0.12953738  0.62942612  1
  O  O314  1  0.38119922  0.62670154  0.13051550  1
  O  O315  1  0.37805202  0.63293889  0.63033521  1
  O  O316  1  0.88067520  0.12992113  0.13032074  1
  O  O317  1  0.88728310  0.12331707  0.62632121  1
  O  O318  1  0.88233761  0.62710959  0.13277605  1
  O  O319  1  0.88279803  0.63119413  0.62621077  1
  O  O320  1  0.25483892  0.25425178  0.11948534  1
  O  O321  1  0.25572323  0.25470085  0.61954435  1
  O  O322  1  0.25007810  0.75600236  0.11487257  1
  O  O323  1  0.26393553  0.75016807  0.62522479  1
  O  O324  1  0.75778883  0.25601869  0.11990647  1
  O  O325  1  0.74995170  0.25863819  0.61670905  1
  O  O326  1  0.74879720  0.75701282  0.11972963  1
  O  O327  1  0.75366991  0.75593883  0.61830771  1
  O  O328  1  0.24491687  0.24264328  0.37915412  1
  O  O329  1  0.24903642  0.24265457  0.88211585  1
  O  O330  1  0.24994317  0.73745164  0.37504924  1
  O  O331  1  0.24902964  0.74451623  0.88285962  1
  O  O332  1  0.74968915  0.24577312  0.38432738  1
  O  O333  1  0.74958883  0.24791857  0.88390076  1
  O  O334  1  0.74462724  0.74595812  0.37977970  1
  O  O335  1  0.74303733  0.74498539  0.88053376  1
  O  O336  1  0.00587440  0.11905879  0.00611660  1
  O  O337  1  0.00245449  0.11657665  0.50968667  1
  O  O338  1  0.00024880  0.61921235  0.00615315  1
  O  O339  1  0.00093743  0.61699118  0.51082886  1
  O  O340  1  0.50525560  0.11986370  0.00661591  1
  O  O341  1  0.50495408  0.12052809  0.50534361  1
  O  O342  1  0.50279922  0.61921186  0.00418993  1
  O  O343  1  0.50475215  0.61426717  0.49613939  1
  O  O344  1  0.49789370  0.37950906  0.49202762  1
  O  O345  1  0.49341118  0.37897768  0.99503036  1
  O  O346  1  0.49581773  0.88001069  0.49490800  1
  O  O347  1  0.49307389  0.88198022  1.00027439  1
  O  O348  1  0.99855836  0.38925710  0.50212798  1
  O  O349  1  0.99396261  0.38158560  0.99504423  1
  O  O350  1  0.99298678  0.87979398  0.49484207  1
  O  O351  1  1.00105508  0.88136979  0.99047431  1
  O  O352  1  0.49922689  0.49046943  0.38178618  1
  O  O353  1  0.49306497  0.49340466  0.88014161  1
  O  O354  1  0.49929958  0.99385934  0.38184245  1
  O  O355  1  0.49304258  0.99919192  0.88299456  1
  O  O356  1  0.99678220  0.50394014  0.38602373  1
  O  O357  1  0.99330946  0.49557757  0.88078835  1
  O  O358  1  0.99453102  0.99527712  0.38024264  1
  O  O359  1  0.99327819  0.99223360  0.87945464  1
  O  O360  1  0.00488627  0.00533072  0.12018205  1
  O  O361  1  0.00755516  0.00534763  0.62082369  1
  O  O362  1  0.00461690  0.50569807  0.11992997  1
  O  O363  1  0.00328018  0.50805170  0.61870809  1
  O  O364  1  0.50502721  0.00551659  0.12082486  1
  O  O365  1  0.50632138  0.00528673  0.61977497  1
  O  O366  1  0.50000041  0.50552973  0.11759956  1
  O  O367  1  0.50217197  0.49878458  0.61078151  1
  O  O368  1  0.24997698  0.38078922  0.24197174  1
  O  O369  1  0.24629704  0.38013205  0.74376728  1
  O  O370  1  0.24432817  0.87919713  0.24498535  1
  O  O371  1  0.23812930  0.87731058  0.74794756  1
  O  O372  1  0.75076074  0.38171390  0.24433556  1
  O  O373  1  0.74443290  0.38001281  0.74265971  1
  O  O374  1  0.74318567  0.88180017  0.24620816  1
  O  O375  1  0.74379042  0.88037094  0.74366396  1
  O  O376  1  0.25072723  0.11864964  0.25950922  1
  O  O377  1  0.25730594  0.12344910  0.75585232  1
  O  O378  1  0.25518851  0.61954553  0.25522317  1
  O  O379  1  0.25611196  0.61857105  0.75462293  1
  O  O380  1  0.75518177  0.12071109  0.25530544  1
  O  O381  1  0.75189304  0.11610785  0.75164167  1
  O  O382  1  0.75563631  0.62130085  0.25568538  1
  O  O383  1  0.74801082  0.61847587  0.75725715  1
  O  O384  1  0.36221610  0.12337265  0.37379158  1
  O  O385  1  0.37004512  0.11974505  0.86970518  1
  O  O386  1  0.36657879  0.62242722  0.36692476  1
  O  O387  1  0.36919550  0.61794077  0.86849567  1
  O  O388  1  0.87004105  0.11958053  0.37092856  1
  O  O389  1  0.87668586  0.11140942  0.87414491  1
  O  O390  1  0.86943594  0.62103717  0.37020432  1
  O  O391  1  0.86646667  0.61890289  0.87441433  1
  O  O392  1  0.13192052  0.38172841  0.12464905  1
  O  O393  1  0.13200357  0.38121734  0.62966668  1
  O  O394  1  0.12982234  0.88161175  0.13055886  1
  O  O395  1  0.12209987  0.88273123  0.63340912  1
  O  O396  1  0.63456370  0.37811387  0.12685642  1
  O  O397  1  0.63559656  0.37699322  0.63070672  1
  O  O398  1  0.62893314  0.88176076  0.13163874  1
  O  O399  1  0.63031804  0.87991656  0.62986805  1
  O  O400  1  0.12414628  0.25080925  0.26238172  1
  O  O401  1  0.12195681  0.25913704  0.75194508  1
  O  O402  1  0.11818392  0.75773126  0.25151321  1
  O  O403  1  0.12093751  0.76163198  0.75100192  1
  O  O404  1  0.61215551  0.25206464  0.25032174  1
  O  O405  1  0.61805071  0.25619624  0.75075446  1
  O  O406  1  0.61944557  0.75583626  0.25569324  1
  O  O407  1  0.62002041  0.75492324  0.75505473  1
  O  O408  1  0.38586678  0.24844149  0.24345370  1
  O  O409  1  0.38078425  0.24413617  0.74362269  1
  O  O410  1  0.38242927  0.74341196  0.24691828  1
  O  O411  1  0.37954060  0.74527177  0.74322098  1
  O  O412  1  0.87624472  0.24300836  0.24432014  1
  O  O413  1  0.87983938  0.24663284  0.74504626  1
  O  O414  1  0.88205821  0.74402611  0.24881735  1
  O  O415  1  0.87624623  0.74824747  0.74174165  1
  O  O416  1  0.38623656  0.49248150  0.49736871  1
  O  O417  1  0.37918926  0.49347545  0.99327644  1
  O  O418  1  0.38259647  0.99217907  0.50024257  1
  O  O419  1  0.37988175  0.99566393  0.99535470  1
  O  O420  1  0.88465171  0.50202336  0.49480954  1
  O  O421  1  0.87982708  0.49490651  0.99512866  1
  O  O422  1  0.87905180  0.99401107  0.49416867  1
  O  O423  1  0.88104401  0.99755131  0.99101957  1
  O  O424  1  0.11994593  0.00519374  0.00617245  1
  O  O425  1  0.11837566  -0.00197337  0.51085106  1
  O  O426  1  0.11773848  0.50209209  0.00615670  1
  O  O427  1  0.11651812  0.50294113  0.50704227  1
  O  O428  1  0.61948835  0.00502823  0.00653003  1
  O  O429  1  0.62031449  0.00524934  0.50636633  1
  O  O430  1  0.61673394  0.50666632  0.00049773  1
  O  O431  1  0.61609626  0.50535227  0.49816470  1
  O  O432  1  0.36882193  0.36888154  0.11775340  1
  O  O433  1  0.37022954  0.36817896  0.61963268  1
  O  O434  1  0.36675092  0.87374963  0.11750751  1
  O  O435  1  0.37528612  0.86552256  0.62005309  1
  O  O436  1  0.87103333  0.37008799  0.11939093  1
  O  O437  1  0.86100851  0.37590110  0.62281428  1
  O  O438  1  0.86566500  0.87436447  0.12325497  1
  O  O439  1  0.86960209  0.87116162  0.61920713  1
  O  O440  1  0.13526109  0.13238095  0.37761663  1
  O  O441  1  0.13098778  0.12395257  0.88167720  1
  O  O442  1  0.13806573  0.62646716  0.37560289  1
  O  O443  1  0.13265217  0.62717161  0.87566910  1
  O  O444  1  0.63281614  0.12691195  0.38245422  1
  O  O445  1  0.62764453  0.12672103  0.88407417  1
  O  O446  1  0.63123572  0.63174213  0.37899963  1
  O  O447  1  0.62916513  0.63054233  0.88135881  1
