# generated using pymatgen
data_V3Zn3O8
_symmetry_space_group_name_H-M   'P 1'
_cell_length_a   17.08592024
_cell_length_b   17.08460850
_cell_length_c   17.08465977
_cell_angle_alpha   90.02362382
_cell_angle_beta   90.00531308
_cell_angle_gamma   90.01511269
_symmetry_Int_Tables_number   1
_chemical_formula_structural   V3Zn3O8
_chemical_formula_sum   'V96 Zn96 O256'
_cell_volume   4987.11848594
_cell_formula_units_Z   32
loop_
 _symmetry_equiv_pos_site_id
 _symmetry_equiv_pos_as_xyz
  1  'x, y, z'
loop_
 _atom_site_type_symbol
 _atom_site_label
 _atom_site_symmetry_multiplicity
 _atom_site_fract_x
 _atom_site_fract_y
 _atom_site_fract_z
 _atom_site_occupancy
  V  V0  1  0.00020376  0.50014692  0.00019286  1
  V  V1  1  0.49779904  0.62573791  0.62505516  1
  V  V2  1  0.62528927  0.12550732  0.49998606  1
  V  V3  1  0.50209029  0.87374690  0.37363217  1
  V  V4  1  0.24881314  0.74980806  0.49883014  1
  V  V5  1  0.37378708  0.50196986  0.87414820  1
  V  V6  1  0.25088275  0.00065443  0.25013345  1
  V  V7  1  0.12620831  0.62618201  -0.00098489  1
  V  V8  1  0.87399242  0.62400182  0.75069915  1
  V  V9  1  0.87670441  -0.00105114  0.87394608  1
  V  V10  1  0.75165732  0.87454632  0.12256304  1
  V  V11  1  0.75045396  0.12501072  0.87560292  1
  V  V12  1  0.87349860  0.25079240  0.62521853  1
  V  V13  1  0.00056051  0.62537898  0.12403384  1
  V  V14  1  0.25029106  0.87558874  0.62352466  1
  V  V15  1  0.24876104  0.37475291  0.12759905  1
  V  V16  1  0.50147976  0.12299463  0.12366216  1
  V  V17  1  0.50028315  0.87589058  0.87492487  1
  V  V18  1  0.25142767  0.87526091  0.12419878  1
  V  V19  1  0.37387561  0.37571777  0.50055904  1
  V  V20  1  0.25124725  0.00126461  0.74953972  1
  V  V21  1  0.12405327  0.62612330  0.49915257  1
  V  V22  1  0.50077594  0.49866097  0.00132078  1
  V  V23  1  0.24988725  0.24944803  0.00027378  1
  V  V24  1  -0.00168976  0.37551509  0.37640908  1
  V  V25  1  0.37489431  0.37433198  0.00208000  1
  V  V26  1  -0.00100521  0.62553770  0.62438306  1
  V  V27  1  0.00006011  0.12480833  0.62427786  1
  V  V28  1  0.00081106  0.87613879  0.87373925  1
  V  V29  1  0.12503568  0.75030232  0.37367045  1
  V  V30  1  0.25072829  0.12573931  0.87466408  1
  V  V31  1  0.49868230  0.75027257  0.74873624  1
  V  V32  1  0.12568636  0.87472032  0.24931862  1
  V  V33  1  0.50138462  0.25056739  0.75153816  1
  V  V34  1  0.87581353  0.24963083  0.12620027  1
  V  V35  1  0.74985829  0.37433921  0.12703722  1
  V  V36  1  0.24891873  0.37580331  0.62722731  1
  V  V37  1  0.62424244  0.37399502  0.25122833  1
  V  V38  1  0.87355476  0.37552942  0.50159833  1
  V  V39  1  0.25059670  0.75052926  -0.00078627  1
  V  V40  1  0.50081955  0.12528927  0.62485334  1
  V  V41  1  -0.00052996  0.24993571  0.75070693  1
  V  V42  1  0.87592628  0.75080562  0.12250209  1
  V  V43  1  0.75055222  0.24823579  0.00011774  1
  V  V44  1  0.62552206  0.62496352  -0.00029970  1
  V  V45  1  0.87421271  0.50090670  0.87457769  1
  V  V46  1  0.87455651  0.12455949  0.25007054  1
  V  V47  1  0.12653456  0.75023380  0.87418588  1
  V  V48  1  0.12566386  0.24969112  0.87545956  1
  V  V49  1  0.62465239  0.25003304  0.37594252  1
  V  V50  1  0.00011160  0.37445094  0.87608262  1
  V  V51  1  0.12514693  0.37597160  0.75065166  1
  V  V52  1  0.74903397  0.25111169  0.50124932  1
  V  V53  1  0.62502053  0.00020876  0.62391183  1
  V  V54  1  0.87566115  0.37479881  0.00105909  1
  V  V55  1  0.62565382  0.87343846  0.24784710  1
  V  V56  1  0.62568841  0.24943372  0.87601910  1
  V  V57  1  0.00207320  0.12485575  0.12458504  1
  V  V58  1  0.87612364  -0.00094942  0.37499597  1
  V  V59  1  0.75003488  0.87390109  0.62371979  1
  V  V60  1  0.50150080  0.37361060  0.87647792  1
  V  V61  1  0.75131541  -0.00088459  0.24787153  1
  V  V62  1  0.49978475  0.62379883  0.12671435  1
  V  V63  1  0.37606515  0.87519136  0.49841785  1
  V  V64  1  -0.00003081  0.25127191  0.25170476  1
  V  V65  1  0.12363044  0.25044085  0.37653717  1
  V  V66  1  -0.00239430  0.50011265  0.49977295  1
  V  V67  1  0.12548088  0.00161740  0.12449640  1
  V  V68  1  0.62495387  0.62621825  0.49833559  1
  V  V69  1  0.62417014  0.49881053  0.62760651  1
  V  V70  1  0.37518678  -0.00019659  0.37431775  1
  V  V71  1  0.87477077  0.87511474  0.49923553  1
  V  V72  1  0.12439132  0.50000673  0.62601393  1
  V  V73  1  0.37531995  0.12508626  0.25111142  1
  V  V74  1  0.37504369  0.25090101  0.62541855  1
  V  V75  1  0.37355255  0.62468975  0.24979159  1
  V  V76  1  0.37519131  0.12541322  0.75003517  1
  V  V77  1  0.00131417  0.75137289  0.24856516  1
  V  V78  1  0.87427403  0.75034468  0.62363884  1
  V  V79  1  0.37295441  0.49902357  0.37667408  1
  V  V80  1  0.37467569  0.74993315  0.62464475  1
  V  V81  1  0.12497303  0.00088184  0.62318219  1
  V  V82  1  0.12522916  0.50001174  0.12533259  1
  V  V83  1  0.62480998  0.87411837  0.74925827  1
  V  V84  1  0.87240201  0.62378254  0.25094510  1
  V  V85  1  0.12465935  0.12538596  0.50021192  1
  V  V86  1  0.24847511  0.24971976  0.50068584  1
  V  V87  1  0.87513526  0.12510994  0.74968645  1
  V  V88  1  0.49988230  0.24932570  0.25130963  1
  V  V89  1  0.75050849  -0.00051581  0.74951382  1
  V  V90  1  0.87645277  0.87462212  -0.00177939  1
  V  V91  1  0.12612597  0.87522085  0.74836047  1
  V  V92  1  0.00062077  0.75053483  0.74845953  1
  V  V93  1  0.62513374  0.74832549  0.87512217  1
  V  V94  1  0.37708790  0.87641900  -0.00056416  1
  V  V95  1  0.62534411  0.49831628  0.12686162  1
  Zn  Zn96  1  0.74875199  0.49921834  0.75249311  1
  Zn  Zn97  1  0.62632503  -0.00104453  0.12099378  1
  Zn  Zn98  1  0.74912754  0.12525072  0.37437215  1
  Zn  Zn99  1  0.37704210  0.00188757  0.87461170  1
  Zn  Zn100  1  0.24816661  0.62436580  0.37334818  1
  Zn  Zn101  1  0.24986363  0.12560352  0.37517518  1
  Zn  Zn102  1  0.74939712  0.62423179  0.87484510  1
  Zn  Zn103  1  0.00074027  0.87547465  0.37490798  1
  Zn  Zn104  1  0.37442299  0.24951456  0.12659374  1
  Zn  Zn105  1  0.74832122  0.37593029  0.62812165  1
  Zn  Zn106  1  0.37651386  0.74975501  0.12601545  1
  Zn  Zn107  1  0.74891420  0.49978775  0.25320125  1
  Zn  Zn108  1  0.74821014  0.62484419  0.37476289  1
  Zn  Zn109  1  0.24615170  0.49985482  0.25182991  1
  Zn  Zn110  1  0.12357721  0.37693000  0.25232946  1
  Zn  Zn111  1  0.12543059  0.12385113  -0.00031428  1
  Zn  Zn112  1  0.50076456  0.00059482  0.49947497  1
  Zn  Zn113  1  0.62565766  0.12156593  0.00034522  1
  Zn  Zn114  1  0.50341082  0.00064899  -0.00224295  1
  Zn  Zn115  1  0.50073867  0.74854222  0.24884767  1
  Zn  Zn116  1  0.00314110  0.00160695  -0.00147657  1
  Zn  Zn117  1  0.75026947  0.74946215  0.49636543  1
  Zn  Zn118  1  0.00062143  -0.00038645  0.49870798  1
  Zn  Zn119  1  0.49850001  0.49854797  0.50112051  1
  Zn  Zn120  1  0.62713320  0.37617807  0.75133252  1
  Zn  Zn121  1  0.75128290  0.74832417  -0.00291120  1
  Zn  Zn122  1  0.62755809  0.74805485  0.37452440  1
  Zn  Zn123  1  0.24928907  0.50255848  0.75138485  1
  Zn  Zn124  1  0.25057409  0.62540537  0.87345610  1
  Zn  Zn125  1  0.49910709  0.37405254  0.37698979  1
  Zn  Zn126  1  0.37209796  0.62586651  0.74995796  1
  Zn  Zn127  1  0.87125993  0.50080279  0.37637345  1
  Zn  Zn128  1  0.18678435  0.18810378  0.18981131  1
  Zn  Zn129  1  0.18714230  0.18796908  0.68790923  1
  Zn  Zn130  1  0.18978775  0.68790688  0.18604289  1
  Zn  Zn131  1  0.18960300  0.68564367  0.68797047  1
  Zn  Zn132  1  0.68670964  0.18661366  0.18822887  1
  Zn  Zn133  1  0.68723068  0.18791345  0.68830680  1
  Zn  Zn134  1  0.68889526  0.68913644  0.18421764  1
  Zn  Zn135  1  0.68862302  0.68565541  0.68702443  1
  Zn  Zn136  1  0.31177999  0.31113080  0.31332460  1
  Zn  Zn137  1  0.31328237  0.31410682  0.81324416  1
  Zn  Zn138  1  0.31242849  0.81121575  0.31230555  1
  Zn  Zn139  1  0.31297169  0.81347576  0.81293769  1
  Zn  Zn140  1  0.81128096  0.31279533  0.31513537  1
  Zn  Zn141  1  0.81045772  0.31482568  0.81171731  1
  Zn  Zn142  1  0.81049195  0.80961074  0.31324752  1
  Zn  Zn143  1  0.81135705  0.81061460  0.81203939  1
  Zn  Zn144  1  0.18660856  0.43729412  0.43915235  1
  Zn  Zn145  1  0.18839625  0.43700565  0.93968757  1
  Zn  Zn146  1  0.18792033  0.93783685  0.43576187  1
  Zn  Zn147  1  0.18914140  0.93924515  0.93720936  1
  Zn  Zn148  1  0.68845118  0.43989015  0.43744070  1
  Zn  Zn149  1  0.68889928  0.43722204  0.93840307  1
  Zn  Zn150  1  0.68923110  0.93840331  0.43667425  1
  Zn  Zn151  1  0.68757361  0.93705692  0.93814137  1
  Zn  Zn152  1  0.31393678  0.06299676  0.06293174  1
  Zn  Zn153  1  0.31320164  0.06286717  0.56090035  1
  Zn  Zn154  1  0.31195616  0.56189202  0.06187537  1
  Zn  Zn155  1  0.30982679  0.56311854  0.56256725  1
  Zn  Zn156  1  0.81528200  0.06052226  0.06115904  1
  Zn  Zn157  1  0.81122845  0.06304858  0.56096428  1
  Zn  Zn158  1  0.81032960  0.56218193  0.06292337  1
  Zn  Zn159  1  0.80873389  0.56223401  0.56384114  1
  Zn  Zn160  1  0.43675325  0.43748660  0.19025705  1
  Zn  Zn161  1  0.43954030  0.43733280  0.68959597  1
  Zn  Zn162  1  0.43811852  0.93917903  0.18660997  1
  Zn  Zn163  1  0.43809033  0.93830511  0.68675202  1
  Zn  Zn164  1  0.93790276  0.43823727  0.18847599  1
  Zn  Zn165  1  0.93701363  0.43755702  0.68795626  1
  Zn  Zn166  1  0.93922128  0.93798964  0.18622773  1
  Zn  Zn167  1  0.93795728  0.93780151  0.68580007  1
  Zn  Zn168  1  0.06290756  0.06357227  0.31198598  1
  Zn  Zn169  1  0.06431592  0.06304771  0.81121194  1
  Zn  Zn170  1  0.05994204  0.56235626  0.31276005  1
  Zn  Zn171  1  0.06137774  0.56323309  0.81287324  1
  Zn  Zn172  1  0.56369930  0.06134423  0.31130770  1
  Zn  Zn173  1  0.56335468  0.06234189  0.81292525  1
  Zn  Zn174  1  0.55905502  0.55912450  0.31383114  1
  Zn  Zn175  1  0.55935819  0.56403341  0.81215785  1
  Zn  Zn176  1  0.43788124  0.18747315  0.43798380  1
  Zn  Zn177  1  0.43632224  0.18822167  0.93909468  1
  Zn  Zn178  1  0.43864457  0.68695566  0.43668994  1
  Zn  Zn179  1  0.43940315  0.68775862  0.93885288  1
  Zn  Zn180  1  0.93633210  0.18694437  0.43829355  1
  Zn  Zn181  1  0.93811729  0.18609322  0.93906455  1
  Zn  Zn182  1  0.93823130  0.68959464  0.43533344  1
  Zn  Zn183  1  0.93901157  0.68787120  0.93577328  1
  Zn  Zn184  1  0.06401789  0.31131294  0.06284837  1
  Zn  Zn185  1  0.06091641  0.31298597  0.56285889  1
  Zn  Zn186  1  0.06311036  0.81426121  0.06128634  1
  Zn  Zn187  1  0.06067970  0.81391451  0.56016932  1
  Zn  Zn188  1  0.56341112  0.30920659  0.06355593  1
  Zn  Zn189  1  0.56093497  0.31413870  0.56149785  1
  Zn  Zn190  1  0.56157023  0.80911271  0.06301456  1
  Zn  Zn191  1  0.56251281  0.81148265  0.56106785  1
  O  O192  1  0.11944098  0.11923684  0.12547883  1
  O  O193  1  0.11969661  0.12064014  0.62059002  1
  O  O194  1  0.11976761  0.62045073  0.11867927  1
  O  O195  1  0.11817373  0.62076034  0.61944133  1
  O  O196  1  0.61408059  0.12305857  0.12495796  1
  O  O197  1  0.62006041  0.11988531  0.62055718  1
  O  O198  1  0.61921233  0.61848040  0.12097481  1
  O  O199  1  0.61775992  0.61883541  0.61862631  1
  O  O200  1  0.37282532  0.38317596  0.38149463  1
  O  O201  1  0.38097000  0.38208680  0.88202925  1
  O  O202  1  0.38336885  0.87922018  0.37786851  1
  O  O203  1  0.38121693  0.87601005  0.88356555  1
  O  O204  1  0.88128944  0.37546087  0.38367235  1
  O  O205  1  0.88173825  0.37932827  0.88176448  1
  O  O206  1  0.87512446  0.88405446  0.37932357  1
  O  O207  1  0.88133502  0.87947966  0.87702622  1
  O  O208  1  0.25736355  0.00099418  0.36754591  1
  O  O209  1  0.25164720  0.00713948  0.86626905  1
  O  O210  1  0.25951845  0.50175504  0.37407387  1
  O  O211  1  0.26202068  0.49959788  0.87650387  1
  O  O212  1  0.76089188  0.00095278  0.36735419  1
  O  O213  1  0.75678235  0.00434068  0.86782153  1
  O  O214  1  0.75386056  0.50647931  0.37056299  1
  O  O215  1  0.75950477  0.50217329  0.87490594  1
  O  O216  1  0.24353582  0.48957657  0.12365720  1
  O  O217  1  0.24184734  0.49303841  0.62650944  1
  O  O218  1  0.24573432  0.99476976  0.13110698  1
  O  O219  1  0.24486529  0.99486573  0.62943307  1
  O  O220  1  0.74296399  0.49132365  0.12694015  1
  O  O221  1  0.73611776  0.49919509  0.62809410  1
  O  O222  1  0.75193299  0.99198391  0.13139152  1
  O  O223  1  0.74509733  0.99461794  0.63099268  1
  O  O224  1  -0.00053458  0.36823548  0.25745750  1
  O  O225  1  0.00493702  0.36866782  0.75657107  1
  O  O226  1  0.00812690  0.86813738  0.24876919  1
  O  O227  1  0.00654638  0.86990906  0.75320237  1
  O  O228  1  0.50605957  0.36680129  0.25101651  1
  O  O229  1  0.50154608  0.36693146  0.75881966  1
  O  O230  1  0.50855418  0.87521109  0.25625591  1
  O  O231  1  0.50585646  0.86987415  0.75388431  1
  O  O232  1  0.49529586  0.12909484  0.24323600  1
  O  O233  1  0.49493009  0.13090646  0.74457930  1
  O  O234  1  0.48992747  0.62399938  0.24512396  1
  O  O235  1  0.49572931  0.63359313  0.74249060  1
  O  O236  1  0.99390246  0.13172105  0.24447167  1
  O  O237  1  0.99470095  0.13099568  0.74462104  1
  O  O238  1  0.99281384  0.63145740  0.24249696  1
  O  O239  1  0.99520913  0.63166677  0.74356136  1
  O  O240  1  0.36753155  0.25786203  0.00250557  1
  O  O241  1  0.36854135  0.25489318  0.50627232  1
  O  O242  1  0.36984531  0.76051834  0.00024063  1
  O  O243  1  0.36926503  0.75593906  0.50409642  1
  O  O244  1  0.87089390  0.25572089  0.00628129  1
  O  O245  1  0.86949353  0.25479883  0.50630797  1
  O  O246  1  0.87638312  0.75646243  0.00503691  1
  O  O247  1  0.87522166  0.75654467  0.50688403  1
  O  O248  1  0.12900730  0.24488630  0.49675226  1
  O  O249  1  0.13188843  0.24873179  0.99233528  1
  O  O250  1  0.12887849  0.74590237  0.49437795  1
  O  O251  1  0.13032239  0.74595999  0.99381188  1
  O  O252  1  0.62920010  0.24513354  0.49614312  1
  O  O253  1  0.63336823  0.24669092  0.99393797  1
  O  O254  1  0.62587837  0.73841229  0.49992285  1
  O  O255  1  0.62499246  0.74268739  0.99280308  1
  O  O256  1  0.49848173  0.24014114  0.13227796  1
  O  O257  1  0.49443927  0.24475333  0.63113770  1
  O  O258  1  0.49655378  0.73919749  0.12836447  1
  O  O259  1  0.49361084  0.74631628  0.62972716  1
  O  O260  1  0.99478782  0.24586578  0.13102464  1
  O  O261  1  0.99414880  0.24438963  0.63152621  1
  O  O262  1  0.99630107  0.74468921  0.12877350  1
  O  O263  1  0.99488635  0.74526049  0.62985496  1
  O  O264  1  0.00386103  0.25542539  0.37141708  1
  O  O265  1  0.00474804  0.25504509  0.87013850  1
  O  O266  1  0.00751457  0.75293014  0.36617938  1
  O  O267  1  0.00699478  0.75649149  0.86755451  1
  O  O268  1  0.50653891  0.25064746  0.36866947  1
  O  O269  1  0.50530393  0.25418563  0.87137302  1
  O  O270  1  0.50209788  0.76350472  0.37177588  1
  O  O271  1  0.50521177  0.75614920  0.86872717  1
  O  O272  1  0.24304765  0.13259415  0.49985532  1
  O  O273  1  0.25031269  0.13170714  0.99328985  1
  O  O274  1  0.24117852  0.63299459  0.49941648  1
  O  O275  1  0.24365730  0.63209412  0.99874409  1
  O  O276  1  0.74277918  0.13277806  0.49891992  1
  O  O277  1  0.75266981  0.13131058  0.99311145  1
  O  O278  1  0.73652712  0.62662471  0.50063476  1
  O  O279  1  0.74086871  0.62704373  0.99812990  1
  O  O280  1  0.25473811  0.36929249  0.00880501  1
  O  O281  1  0.25377402  0.36867858  0.50824123  1
  O  O282  1  0.25827266  0.87055118  0.00404937  1
  O  O283  1  0.25564090  0.86976674  0.50453888  1
  O  O284  1  0.75695205  0.36812594  0.00686208  1
  O  O285  1  0.75589055  0.36846300  0.50378118  1
  O  O286  1  0.75881798  0.87292935  0.00499367  1
  O  O287  1  0.75659057  0.87402692  0.50694626  1
  O  O288  1  0.12563647  0.49820736  0.24149788  1
  O  O289  1  0.12345838  0.49315663  0.74408356  1
  O  O290  1  0.13129435  0.99493729  0.24507157  1
  O  O291  1  0.13158220  0.99478146  0.74260804  1
  O  O292  1  0.62387897  0.49225562  0.24348845  1
  O  O293  1  0.62314137  0.50076125  0.73960779  1
  O  O294  1  0.63224518  0.98829580  0.24824809  1
  O  O295  1  0.63145822  0.99430771  0.74403826  1
  O  O296  1  0.36974631  0.00465687  0.25546135  1
  O  O297  1  0.36811514  0.00738105  0.74882985  1
  O  O298  1  0.37223654  0.50766310  0.25892924  1
  O  O299  1  0.37487237  0.49996270  0.76343859  1
  O  O300  1  0.87099000  0.00395959  0.25657514  1
  O  O301  1  0.86991093  0.00526695  0.75384774  1
  O  O302  1  0.87519391  0.51267577  0.24939918  1
  O  O303  1  0.87749781  0.50692076  0.75709993  1
  O  O304  1  0.11642259  0.36848909  0.37648176  1
  O  O305  1  0.11928221  0.37008508  0.87101094  1
  O  O306  1  0.12424618  0.86905373  0.36687319  1
  O  O307  1  0.12118508  0.87046782  0.86754490  1
  O  O308  1  0.62262386  0.36827602  0.36964356  1
  O  O309  1  0.61809668  0.36795502  0.87665828  1
  O  O310  1  0.61773275  0.87626166  0.36619843  1
  O  O311  1  0.62006891  0.86894794  0.86799700  1
  O  O312  1  0.38388541  0.12620836  0.13256849  1
  O  O313  1  0.38037286  0.13157302  0.62985139  1
  O  O314  1  0.38095950  0.62187330  0.13407035  1
  O  O315  1  0.38040424  0.63259961  0.62410729  1
  O  O316  1  0.88140993  0.13048175  0.13072727  1
  O  O317  1  0.87979858  0.13015405  0.63071716  1
  O  O318  1  0.88156504  0.63028394  0.13012527  1
  O  O319  1  0.88079864  0.63040944  0.62991541  1
  O  O320  1  0.24972264  0.25940497  0.11980484  1
  O  O321  1  0.25528322  0.25593643  0.62103784  1
  O  O322  1  0.25264001  0.75780362  0.11684431  1
  O  O323  1  0.25425006  0.75695497  0.61874803  1
  O  O324  1  0.75655809  0.25433587  0.12046850  1
  O  O325  1  0.75638107  0.25064204  0.61946793  1
  O  O326  1  0.75852705  0.75765859  0.12110525  1
  O  O327  1  0.75731778  0.75718410  0.62432851  1
  O  O328  1  0.24226275  0.24906464  0.38312271  1
  O  O329  1  0.24499031  0.24600095  0.87971689  1
  O  O330  1  0.24303260  0.74876640  0.38169789  1
  O  O331  1  0.24335907  0.75027865  0.88115066  1
  O  O332  1  0.74276105  0.24772027  0.38300430  1
  O  O333  1  0.74659213  0.24435663  0.88062379  1
  O  O334  1  0.74543568  0.74352796  0.37857961  1
  O  O335  1  0.74066988  0.74710979  0.87601728  1
  O  O336  1  0.00334328  0.12318321  0.00866859  1
  O  O337  1  0.00627715  0.12380600  0.50750593  1
  O  O338  1  0.00601964  0.62000356  0.00525166  1
  O  O339  1  0.00443316  0.62078767  0.50557286  1
  O  O340  1  0.49969286  0.12447547  0.01109477  1
  O  O341  1  0.50670011  0.12388489  0.50771558  1
  O  O342  1  0.50535009  0.61782024  0.00694660  1
  O  O343  1  0.50719304  0.62435119  0.50764953  1
  O  O344  1  0.48825883  0.37695702  0.49804056  1
  O  O345  1  0.49496143  0.37892308  0.99690291  1
  O  O346  1  0.49530826  0.87664412  0.49021773  1
  O  O347  1  0.49114825  0.87381190  0.99472421  1
  O  O348  1  0.99353961  0.38033841  0.49611644  1
  O  O349  1  0.99509320  0.37975992  0.99573094  1
  O  O350  1  0.99113723  0.87978814  0.49648798  1
  O  O351  1  0.99476533  0.87688565  0.99110038  1
  O  O352  1  0.48449832  0.49602172  0.37825889  1
  O  O353  1  0.49291447  0.49380226  0.88194463  1
  O  O354  1  0.49468425  0.98862283  0.37485222  1
  O  O355  1  0.49721436  0.99165343  0.87543992  1
  O  O356  1  0.99708625  0.49375984  0.38306413  1
  O  O357  1  0.99527715  0.49351063  0.88145937  1
  O  O358  1  0.98762393  0.99876739  0.37449189  1
  O  O359  1  0.99464656  0.99366878  0.87264766  1
  O  O360  1  0.00753914  0.00731069  0.12465307  1
  O  O361  1  0.00729523  0.00729693  0.62444742  1
  O  O362  1  0.00538465  0.50510124  0.11842055  1
  O  O363  1  0.00518879  0.50602801  0.61971572  1
  O  O364  1  0.50167269  0.01193024  0.12418570  1
  O  O365  1  0.50746862  0.00702291  0.62399899  1
  O  O366  1  0.50552463  0.50349892  0.12011917  1
  O  O367  1  0.50608016  0.50757670  0.62449506  1
  O  O368  1  0.24732394  0.37575157  0.23860133  1
  O  O369  1  0.24259609  0.37633514  0.74457587  1
  O  O370  1  0.24611087  0.88021815  0.24371473  1
  O  O371  1  0.24512971  0.88057710  0.74292322  1
  O  O372  1  0.74326712  0.37429329  0.24347896  1
  O  O373  1  0.74532893  0.37993283  0.74633462  1
  O  O374  1  0.74371531  0.87899606  0.24333931  1
  O  O375  1  0.74449586  0.88041129  0.74377618  1
  O  O376  1  0.25710597  0.11872341  0.25176443  1
  O  O377  1  0.25573903  0.12136362  0.75414546  1
  O  O378  1  0.26050577  0.62161846  0.25046347  1
  O  O379  1  0.25430338  0.62078277  0.75506426  1
  O  O380  1  0.75743616  0.11773708  0.25025710  1
  O  O381  1  0.75637319  0.11919720  0.75526689  1
  O  O382  1  0.76247243  0.62473157  0.24661282  1
  O  O383  1  0.75959370  0.62193227  0.75255959  1
  O  O384  1  0.37480039  0.11757096  0.36920341  1
  O  O385  1  0.36876368  0.12511052  0.86732550  1
  O  O386  1  0.37358773  0.61684942  0.36777554  1
  O  O387  1  0.37574910  0.61285895  0.87660396  1
  O  O388  1  0.87360864  0.11607961  0.36883152  1
  O  O389  1  0.87078526  0.11961813  0.86846710  1
  O  O390  1  0.87686282  0.62550593  0.36103202  1
  O  O391  1  0.87727835  0.61854249  0.86838301  1
  O  O392  1  0.13348501  0.38107668  0.12504980  1
  O  O393  1  0.12859980  0.37995424  0.63098882  1
  O  O394  1  0.13173473  0.88075803  0.12999407  1
  O  O395  1  0.13078803  0.88016414  0.62885585  1
  O  O396  1  0.63031181  0.37831810  0.13068718  1
  O  O397  1  0.62247691  0.38731087  0.62613033  1
  O  O398  1  0.63056848  0.87486614  0.13331685  1
  O  O399  1  0.62956057  0.88002891  0.63000056  1
  O  O400  1  0.11724321  0.25213161  0.25826598  1
  O  O401  1  0.11883104  0.25605701  0.75541045  1
  O  O402  1  0.12133282  0.75477727  0.25341371  1
  O  O403  1  0.12033416  0.75619241  0.75333219  1
  O  O404  1  0.62001297  0.25445049  0.25636356  1
  O  O405  1  0.61826068  0.25048666  0.75769290  1
  O  O406  1  0.62422546  0.76253157  0.25091761  1
  O  O407  1  0.61846352  0.75519578  0.75361225  1
  O  O408  1  0.38141150  0.24313645  0.24988319  1
  O  O409  1  0.38073241  0.24526729  0.74470302  1
  O  O410  1  0.37642039  0.73699407  0.24929030  1
  O  O411  1  0.38089382  0.75164719  0.74211127  1
  O  O412  1  0.87986536  0.24454701  0.24540381  1
  O  O413  1  0.88051014  0.24435846  0.74600586  1
  O  O414  1  0.88118888  0.74355518  0.24218919  1
  O  O415  1  0.88205570  0.74537907  0.74395759  1
  O  O416  1  0.37279626  0.49477527  0.49236641  1
  O  O417  1  0.38120193  0.49410788  0.99334519  1
  O  O418  1  0.37681524  0.99282670  0.49334525  1
  O  O419  1  0.37608389  0.98655049  0.99793517  1
  O  O420  1  0.88119596  0.49435644  0.50192237  1
  O  O421  1  0.88172475  0.49424421  0.99635545  1
  O  O422  1  0.87460212  0.99539714  0.49050551  1
  O  O423  1  0.87884425  0.99265940  0.99086700  1
  O  O424  1  0.12446667  0.00240960  0.00843457  1
  O  O425  1  0.12498959  0.00642784  0.50583242  1
  O  O426  1  0.11895032  0.50580890  0.00459908  1
  O  O427  1  0.11796855  0.50588240  0.50650366  1
  O  O428  1  0.62206670  0.00325391  0.00320563  1
  O  O429  1  0.62499221  0.00680068  0.50656753  1
  O  O430  1  0.61889339  0.50378862  0.00680696  1
  O  O431  1  0.62097988  0.50853546  0.50938360  1
  O  O432  1  0.36493614  0.37512655  0.12033047  1
  O  O433  1  0.36921066  0.36999419  0.62151875  1
  O  O434  1  0.37034655  0.87398631  0.11647081  1
  O  O435  1  0.36997417  0.87028366  0.61823511  1
  O  O436  1  0.87089225  0.36910709  0.12040876  1
  O  O437  1  0.87550865  0.36756808  0.61909893  1
  O  O438  1  0.87205867  0.86997935  0.11873797  1
  O  O439  1  0.86978676  0.87059100  0.61978878  1
  O  O440  1  0.12539263  0.13210102  0.38222097  1
  O  O441  1  0.13253064  0.13248478  0.87413527  1
  O  O442  1  0.12509070  0.63165508  0.38122611  1
  O  O443  1  0.12450948  0.63234821  0.88173849  1
  O  O444  1  0.62619583  0.13074441  0.38128232  1
  O  O445  1  0.63347152  0.13133982  0.87549061  1
  O  O446  1  0.62035188  0.62486430  0.38647807  1
  O  O447  1  0.62280614  0.63075082  0.88202342  1
