# generated using pymatgen
data_V3Zn3O8
_symmetry_space_group_name_H-M   'P 1'
_cell_length_a   17.08175195
_cell_length_b   17.08038707
_cell_length_c   17.07945210
_cell_angle_alpha   90.00290537
_cell_angle_beta   90.00180185
_cell_angle_gamma   90.00441130
_symmetry_Int_Tables_number   1
_chemical_formula_structural   V3Zn3O8
_chemical_formula_sum   'V96 Zn96 O256'
_cell_volume   4983.15105158
_cell_formula_units_Z   32
loop_
 _symmetry_equiv_pos_site_id
 _symmetry_equiv_pos_as_xyz
  1  'x, y, z'
loop_
 _atom_site_type_symbol
 _atom_site_label
 _atom_site_symmetry_multiplicity
 _atom_site_fract_x
 _atom_site_fract_y
 _atom_site_fract_z
 _atom_site_occupancy
  V  V0  1  0.37480117  0.50051420  0.37460971  1
  V  V1  1  0.12638792  -0.00022049  0.12439258  1
  V  V2  1  0.12298736  0.25056441  0.87450910  1
  V  V3  1  0.37549698  0.62642491  0.25085891  1
  V  V4  1  -0.00055362  0.49951609  -0.00078320  1
  V  V5  1  -0.00170594  -0.00009864  0.49881270  1
  V  V6  1  0.12379662  0.37415244  0.75163904  1
  V  V7  1  0.37586618  0.87460835  -0.00016096  1
  V  V8  1  0.49927856  0.37508337  0.37536839  1
  V  V9  1  0.87408278  0.12386756  0.25002926  1
  V  V10  1  0.74908495  0.25097605  -0.00007020  1
  V  V11  1  0.12489143  0.37519742  0.25024407  1
  V  V12  1  0.37402526  0.00088394  0.37390435  1
  V  V13  1  0.25015904  0.12408433  0.37430111  1
  V  V14  1  0.50093318  0.87441052  0.37426691  1
  V  V15  1  0.00136399  0.87490888  0.87419195  1
  V  V16  1  0.87559057  0.75016767  0.62502584  1
  V  V17  1  0.50018208  0.74857910  0.75095863  1
  V  V18  1  0.50100415  0.50026344  0.00199119  1
  V  V19  1  0.24979238  0.37484844  0.62485406  1
  V  V20  1  0.49779620  0.12859546  0.12598622  1
  V  V21  1  -0.00104840  0.87589158  0.37519989  1
  V  V22  1  0.62290604  0.37401388  0.74947516  1
  V  V23  1  0.62618341  0.62490255  0.50050615  1
  V  V24  1  0.12645645  0.75024266  0.37490522  1
  V  V25  1  0.75104481  0.74908915  0.50120111  1
  V  V26  1  0.24958292  0.87542529  0.62506136  1
  V  V27  1  0.12538829  0.50009541  0.62566717  1
  V  V28  1  -0.00036138  0.12567658  0.12481512  1
  V  V29  1  0.37503825  0.87471124  0.49999888  1
  V  V30  1  0.75013148  0.12491640  0.87369928  1
  V  V31  1  -0.00041143  0.24915657  0.25064096  1
  V  V32  1  0.75006933  0.50011251  0.75116321  1
  V  V33  1  0.62499363  0.50050630  0.62522247  1
  V  V34  1  0.87348967  0.12493202  0.74894812  1
  V  V35  1  0.12646084  0.62520123  0.00009565  1
  V  V36  1  0.50136816  0.87464002  0.87527633  1
  V  V37  1  -0.00035518  -0.00042604  -0.00174384  1
  V  V38  1  0.24897944  0.25041540  0.50093020  1
  V  V39  1  0.12379464  0.12518395  0.50081288  1
  V  V40  1  0.25148400  0.74957364  -0.00076188  1
  V  V41  1  0.62345728  0.25090843  0.37522138  1
  V  V42  1  0.24835616  0.37443604  0.12532580  1
  V  V43  1  0.75150185  0.75039369  0.00060055  1
  V  V44  1  0.49984138  0.49951121  0.49999235  1
  V  V45  1  0.87406307  0.37571333  0.00031713  1
  V  V46  1  0.37597072  0.74955771  0.62574708  1
  V  V47  1  0.37447827  0.49893170  0.87538509  1
  V  V48  1  0.62453606  -0.00085116  0.62476992  1
  V  V49  1  0.37438146  0.12453023  0.75010820  1
  V  V50  1  0.12548799  0.49957712  0.12596258  1
  V  V51  1  0.75019266  0.87453293  0.62524775  1
  V  V52  1  0.74852742  0.12365987  0.37442660  1
  V  V53  1  0.62836363  -0.00057422  0.12727213  1
  V  V54  1  0.50099181  0.00101700  -0.00055669  1
  V  V55  1  0.25031320  0.74958993  0.49940297  1
  V  V56  1  0.74970994  0.37514605  0.62471082  1
  V  V57  1  0.87688622  0.87485376  -0.00035929  1
  V  V58  1  0.87485810  0.37547089  0.50033205  1
  V  V59  1  0.37347044  0.25018589  0.62414421  1
  V  V60  1  0.49973749  0.25093436  0.74918716  1
  V  V61  1  0.12506604  0.87489141  0.74899607  1
  V  V62  1  0.00072583  0.75033539  0.74936317  1
  V  V63  1  0.37821267  0.75087523  0.12571333  1
  V  V64  1  0.74924081  0.25036819  0.49929285  1
  V  V65  1  0.62615178  0.87469989  0.75008497  1
  V  V66  1  -0.00006760  0.37446302  0.37611650  1
  V  V67  1  0.24993001  0.12425635  0.87468715  1
  V  V68  1  0.37547403  0.00022559  0.87433207  1
  V  V69  1  0.49944088  -0.00007171  0.50025609  1
  V  V70  1  0.87541911  0.50083140  0.37508941  1
  V  V71  1  0.37331952  0.37434367  0.00068544  1
  V  V72  1  0.25037891  0.50052308  0.75066254  1
  V  V73  1  0.50013968  0.62500010  0.62642138  1
  V  V74  1  0.62643324  0.74952884  0.87742284  1
  V  V75  1  0.00009513  0.62560022  0.62603411  1
  V  V76  1  0.25032293  0.62426889  0.87535494  1
  V  V77  1  0.74882892  0.37655168  0.12615160  1
  V  V78  1  0.87443589  0.24935398  0.62525564  1
  V  V79  1  0.12784636  0.87657261  0.24858205  1
  V  V80  1  0.24928273  0.25030949  0.00073930  1
  V  V81  1  0.74998150  0.62472415  0.87660841  1
  V  V82  1  0.00064938  0.50007464  0.50116983  1
  V  V83  1  0.62335111  0.37662205  0.25024122  1
  V  V84  1  0.62582503  0.75020508  0.37392223  1
  V  V85  1  0.00132286  0.62546311  0.12417981  1
  V  V86  1  0.62581565  0.12655101  -0.00074732  1
  V  V87  1  0.49969146  0.12417753  0.62376868  1
  V  V88  1  -0.00173464  0.12529231  0.62548836  1
  V  V89  1  0.12455438  0.00002757  0.62522906  1
  V  V90  1  0.87400338  0.49973146  0.87583314  1
  V  V91  1  0.12424976  0.24965691  0.37633405  1
  V  V92  1  0.87662610  0.74997386  0.12382067  1
  V  V93  1  0.87594971  0.62459374  0.25051262  1
  V  V94  1  0.12605294  0.62562857  0.49945856  1
  V  V95  1  0.12399894  0.12489332  -0.00076322  1
  Zn  Zn96  1  0.75006163  -0.00297099  0.25104530  1
  Zn  Zn97  1  0.62333146  0.50280183  0.12644758  1
  Zn  Zn98  1  -0.00170913  0.25078880  0.75171392  1
  Zn  Zn99  1  0.37497220  0.62423347  0.75043804  1
  Zn  Zn100  1  0.00182391  0.75042534  0.24872818  1
  Zn  Zn101  1  0.75107904  0.62420320  0.37503113  1
  Zn  Zn102  1  0.25240327  0.87738039  0.12433787  1
  Zn  Zn103  1  0.37325066  0.12609549  0.24947076  1
  Zn  Zn104  1  0.74914149  0.50049223  0.25186654  1
  Zn  Zn105  1  -0.00177217  0.37404468  0.87421208  1
  Zn  Zn106  1  0.24965583  0.50052009  0.25114819  1
  Zn  Zn107  1  0.87604777  0.62463961  0.75120563  1
  Zn  Zn108  1  0.87520226  0.25101834  0.12458131  1
  Zn  Zn109  1  0.75045541  -0.00067258  0.74917301  1
  Zn  Zn110  1  0.24978358  -0.00071284  0.75018852  1
  Zn  Zn111  1  0.75313354  0.87537856  0.12765267  1
  Zn  Zn112  1  0.49517323  0.25040102  0.25113434  1
  Zn  Zn113  1  0.87423747  0.87491431  0.49896207  1
  Zn  Zn114  1  0.50326647  0.62511906  0.12639645  1
  Zn  Zn115  1  0.50340517  0.75137780  0.24873537  1
  Zn  Zn116  1  0.37242004  0.24964700  0.12724522  1
  Zn  Zn117  1  0.37373749  0.37519682  0.49825684  1
  Zn  Zn118  1  0.25318674  0.00234925  0.24703219  1
  Zn  Zn119  1  0.24928448  0.62349118  0.37461862  1
  Zn  Zn120  1  0.87507797  -0.00080658  0.87266644  1
  Zn  Zn121  1  0.62247491  0.25062900  0.87361611  1
  Zn  Zn122  1  0.62849007  0.87454373  0.24983607  1
  Zn  Zn123  1  0.87144580  -0.00311953  0.37519302  1
  Zn  Zn124  1  0.49977905  0.37320299  0.87537852  1
  Zn  Zn125  1  0.62497830  0.62480425  0.00417154  1
  Zn  Zn126  1  0.62353875  0.12421177  0.49876846  1
  Zn  Zn127  1  0.12654611  0.74960273  0.87412152  1
  Zn  Zn128  1  0.18690584  0.18705100  0.18876566  1
  Zn  Zn129  1  0.18728910  0.18765679  0.68935260  1
  Zn  Zn130  1  0.19063367  0.68941647  0.18664904  1
  Zn  Zn131  1  0.18787329  0.68780720  0.68753690  1
  Zn  Zn132  1  0.68552201  0.19011468  0.18793661  1
  Zn  Zn133  1  0.68581612  0.18690085  0.68611619  1
  Zn  Zn134  1  0.69007116  0.68630109  0.18585353  1
  Zn  Zn135  1  0.68861188  0.68735744  0.68985944  1
  Zn  Zn136  1  0.31295168  0.31078431  0.31111042  1
  Zn  Zn137  1  0.31178124  0.31257201  0.81339957  1
  Zn  Zn138  1  0.31263211  0.81310332  0.31287642  1
  Zn  Zn139  1  0.31251831  0.81201103  0.81208774  1
  Zn  Zn140  1  0.81222953  0.31170982  0.31240568  1
  Zn  Zn141  1  0.81117023  0.31223750  0.81253182  1
  Zn  Zn142  1  0.81114801  0.81094958  0.30964611  1
  Zn  Zn143  1  0.81416968  0.81153293  0.81241767  1
  Zn  Zn144  1  0.18906736  0.43833882  0.43683640  1
  Zn  Zn145  1  0.18709047  0.43733216  0.93759067  1
  Zn  Zn146  1  0.18738020  0.93886156  0.43780523  1
  Zn  Zn147  1  0.18828102  0.93660043  0.93678535  1
  Zn  Zn148  1  0.68817730  0.43882452  0.43616184  1
  Zn  Zn149  1  0.68486202  0.43649373  0.93587724  1
  Zn  Zn150  1  0.68673216  0.93629118  0.43958601  1
  Zn  Zn151  1  0.68969524  0.93809973  0.93949445  1
  Zn  Zn152  1  0.31258950  0.06179815  0.06129726  1
  Zn  Zn153  1  0.31166766  0.06233919  0.56170108  1
  Zn  Zn154  1  0.31351115  0.56219651  0.06398342  1
  Zn  Zn155  1  0.31331162  0.56304424  0.56189313  1
  Zn  Zn156  1  0.81402003  0.06267078  0.06108551  1
  Zn  Zn157  1  0.81206279  0.06019428  0.56085617  1
  Zn  Zn158  1  0.81175222  0.56252259  0.06281577  1
  Zn  Zn159  1  0.81347884  0.56392390  0.56341148  1
  Zn  Zn160  1  0.43506936  0.43767079  0.18688470  1
  Zn  Zn161  1  0.43589250  0.43703745  0.68703443  1
  Zn  Zn162  1  0.44097778  0.93841202  0.19012647  1
  Zn  Zn163  1  0.43797570  0.93692035  0.68871152  1
  Zn  Zn164  1  0.93789655  0.43813071  0.18728533  1
  Zn  Zn165  1  0.93743189  0.43714522  0.68975854  1
  Zn  Zn166  1  0.93930702  0.93872546  0.18671974  1
  Zn  Zn167  1  0.93574913  0.93820877  0.68788665  1
  Zn  Zn168  1  0.06305040  0.06118473  0.31215733  1
  Zn  Zn169  1  0.06118493  0.06235425  0.81109175  1
  Zn  Zn170  1  0.06161927  0.56217903  0.31269679  1
  Zn  Zn171  1  0.06244358  0.56230531  0.81361599  1
  Zn  Zn172  1  0.56080721  0.06232853  0.31095596  1
  Zn  Zn173  1  0.56308588  0.06308258  0.81063928  1
  Zn  Zn174  1  0.56088985  0.56373885  0.31307071  1
  Zn  Zn175  1  0.56294419  0.56219117  0.81558848  1
  Zn  Zn176  1  0.43592373  0.18742083  0.43753531  1
  Zn  Zn177  1  0.43680815  0.18915226  0.93695037  1
  Zn  Zn178  1  0.43917314  0.68695557  0.43793237  1
  Zn  Zn179  1  0.43770338  0.68463739  0.93778857  1
  Zn  Zn180  1  0.93540902  0.18663797  0.43777888  1
  Zn  Zn181  1  0.93584194  0.18946718  0.93701339  1
  Zn  Zn182  1  0.93919721  0.68900616  0.43742841  1
  Zn  Zn183  1  0.93815424  0.68753736  0.93605295  1
  Zn  Zn184  1  0.06132227  0.31238720  0.06223335  1
  Zn  Zn185  1  0.06188360  0.31213606  0.56510075  1
  Zn  Zn186  1  0.06337567  0.81180490  0.06176237  1
  Zn  Zn187  1  0.06251276  0.81268043  0.56165537  1
  Zn  Zn188  1  0.56254292  0.31325064  0.06120856  1
  Zn  Zn189  1  0.56183988  0.31207579  0.56139105  1
  Zn  Zn190  1  0.56435146  0.81412415  0.06237463  1
  Zn  Zn191  1  0.56279422  0.81208162  0.56208541  1
  O  O192  1  0.11898184  0.12004694  0.11899698  1
  O  O193  1  0.11891609  0.12050266  0.61995047  1
  O  O194  1  0.12142399  0.62007020  0.12037761  1
  O  O195  1  0.12005616  0.61933045  0.61919770  1
  O  O196  1  0.61834563  0.11962363  0.11948462  1
  O  O197  1  0.61766926  0.11783992  0.62243355  1
  O  O198  1  0.62118367  0.62079748  0.12326116  1
  O  O199  1  0.61989533  0.61985928  0.62064355  1
  O  O200  1  0.38132707  0.38222006  0.37535792  1
  O  O201  1  0.37426727  0.38161889  0.88247878  1
  O  O202  1  0.38031903  0.87963761  0.38148044  1
  O  O203  1  0.38217590  0.87963892  0.87956050  1
  O  O204  1  0.88080877  0.37925332  0.38063020  1
  O  O205  1  0.87366288  0.38179482  0.88243848  1
  O  O206  1  0.88756614  0.87493726  0.37404330  1
  O  O207  1  0.88315104  0.87614649  0.88114829  1
  O  O208  1  0.25620742  0.00684789  0.37602222  1
  O  O209  1  0.25757586  0.00657032  0.87416218  1
  O  O210  1  0.25797905  0.50288719  0.37209349  1
  O  O211  1  0.25494341  0.50489146  0.87040345  1
  O  O212  1  0.74935670  0.01131223  0.37374109  1
  O  O213  1  0.75159898  0.01318976  0.87440535  1
  O  O214  1  0.75987140  0.50316075  0.37333486  1
  O  O215  1  0.75439207  0.50477376  0.87082949  1
  O  O216  1  0.24234587  0.49281557  0.12660775  1
  O  O217  1  0.24433358  0.49536940  0.62974702  1
  O  O218  1  0.24208514  0.99722579  0.12544632  1
  O  O219  1  0.24302520  0.99327814  0.62521076  1
  O  O220  1  0.74758506  0.48671132  0.12698597  1
  O  O221  1  0.74468336  0.49470312  0.63002081  1
  O  O222  1  0.73859055  1.00219042  0.12473544  1
  O  O223  1  0.74239295  0.99302970  0.62500734  1
  O  O224  1  0.00450748  0.36934602  0.25631010  1
  O  O225  1  0.00819740  0.37242931  0.75224011  1
  O  O226  1  0.01034301  0.87524340  0.25820868  1
  O  O227  1  0.00571878  0.87011738  0.75372837  1
  O  O228  1  0.50878517  0.37498717  0.25554654  1
  O  O229  1  0.50540762  0.36846980  0.74850862  1
  O  O230  1  0.50587466  0.87206054  0.25954708  1
  O  O231  1  0.50589930  0.86829117  0.75620244  1
  O  O232  1  0.49935538  0.12702053  0.23749038  1
  O  O233  1  0.49388246  0.13022388  0.74318099  1
  O  O234  1  0.48745194  0.62906024  0.24902444  1
  O  O235  1  0.49968661  0.63099623  0.74429051  1
  O  O236  1  0.99289202  0.12933889  0.24627611  1
  O  O237  1  0.99209360  0.12681693  0.74250145  1
  O  O238  1  0.99155820  0.62582826  0.24365477  1
  O  O239  1  1.00031258  0.63121667  0.74314688  1
  O  O240  1  0.36637776  0.25614673  0.00131888  1
  O  O241  1  0.36649317  0.25150784  0.50664303  1
  O  O242  1  0.37225208  0.75450328  0.00747468  1
  O  O243  1  0.37083295  0.75545815  0.50572861  1
  O  O244  1  0.86712683  0.25728522  0.00249507  1
  O  O245  1  0.86922173  0.25648938  0.50468161  1
  O  O246  1  0.87172855  0.75488517  0.00472447  1
  O  O247  1  0.86936057  0.75075041  0.50679568  1
  O  O248  1  0.12863160  0.24444866  0.49576042  1
  O  O249  1  0.12926547  0.24397526  0.99471405  1
  O  O250  1  0.13075419  0.74499184  0.49529938  1
  O  O251  1  0.13326421  0.74278891  0.99933416  1
  O  O252  1  0.63199617  0.24872992  0.49327340  1
  O  O253  1  0.63179546  0.24426437  0.99777163  1
  O  O254  1  0.63033352  0.74425229  0.49343118  1
  O  O255  1  0.63268275  0.75046808  0.99387769  1
  O  O256  1  0.49979684  0.23811628  0.12399314  1
  O  O257  1  0.49315443  0.24407308  0.62847980  1
  O  O258  1  0.48869286  0.74991234  0.12520417  1
  O  O259  1  0.49581147  0.74482103  0.63060740  1
  O  O260  1  0.99900293  0.24302537  0.13253495  1
  O  O261  1  0.99191872  0.24266740  0.62532659  1
  O  O262  1  0.99458316  0.74220966  0.12505435  1
  O  O263  1  0.99575458  0.74500068  0.62900261  1
  O  O264  1  0.00489826  0.25517444  0.37155881  1
  O  O265  1  0.00758073  0.25253482  0.87323336  1
  O  O266  1  0.00758115  0.76074405  0.37422684  1
  O  O267  1  0.00320286  0.75620708  0.86795329  1
  O  O268  1  0.50624862  0.25672502  0.37553065  1
  O  O269  1  0.50151062  0.25148563  0.86502322  1
  O  O270  1  0.51120990  0.75561012  0.37749428  1
  O  O271  1  0.50560936  0.75513120  0.87159435  1
  O  O272  1  0.24271083  0.13103734  0.49532045  1
  O  O273  1  0.24325077  0.12985521  0.99413480  1
  O  O274  1  0.24333579  0.63198028  0.49947416  1
  O  O275  1  0.24577050  0.62945761  0.99541366  1
  O  O276  1  0.74936486  0.13124809  0.48921505  1
  O  O277  1  0.74632964  0.13081339  0.99259063  1
  O  O278  1  0.74350455  0.63113528  0.49992583  1
  O  O279  1  0.74936014  0.63187808  0.99408189  1
  O  O280  1  0.25311009  0.36963201  0.00596810  1
  O  O281  1  0.24915338  0.36785515  0.50722141  1
  O  O282  1  0.25844569  0.86802430  0.00000729  1
  O  O283  1  0.25527010  0.86952913  0.50559533  1
  O  O284  1  0.75305993  0.37125121  0.00796918  1
  O  O285  1  0.75548919  0.37045735  0.50498256  1
  O  O286  1  0.75923821  0.86843857  0.00156860  1
  O  O287  1  0.75138362  0.86692649  0.50720584  1
  O  O288  1  0.12465569  0.49308591  0.24411127  1
  O  O289  1  0.13079705  0.49470900  0.74463671  1
  O  O290  1  0.12526125  0.99120744  0.24335981  1
  O  O291  1  0.12605834  0.99336552  0.74214111  1
  O  O292  1  0.62637920  0.48792740  0.25124854  1
  O  O293  1  0.63004450  0.49475064  0.74414314  1
  O  O294  1  0.62617725  1.00096715  0.23790124  1
  O  O295  1  0.62532163  0.99206850  0.74266200  1
  O  O296  1  0.37324340  0.00241826  0.25864740  1
  O  O297  1  0.37456947  0.00617302  0.75670360  1
  O  O298  1  0.37425324  0.51017855  0.25561358  1
  O  O299  1  0.36766464  0.50077789  0.75615730  1
  O  O300  1  0.87446147  0.01326122  0.25146668  1
  O  O301  1  0.87058037  0.00913348  0.75150894  1
  O  O302  1  0.87697600  0.50891437  0.25618784  1
  O  O303  1  0.86732075  0.50038027  0.75690151  1
  O  O304  1  0.11863195  0.36933129  0.37107926  1
  O  O305  1  0.12422641  0.36872950  0.86922248  1
  O  O306  1  0.11817928  0.87188067  0.36784288  1
  O  O307  1  0.11950035  0.87326164  0.86746766  1
  O  O308  1  0.62044040  0.37118598  0.36809888  1
  O  O309  1  0.62236285  0.37140506  0.86437145  1
  O  O310  1  0.61996449  0.86453786  0.37689022  1
  O  O311  1  0.62024971  0.87019828  0.87067576  1
  O  O312  1  0.38681711  0.12465434  0.12313518  1
  O  O313  1  0.37923556  0.13001973  0.63007183  1
  O  O314  1  0.37613466  0.63445219  0.13284121  1
  O  O315  1  0.38235948  0.63172731  0.62642164  1
  O  O316  1  0.88030516  0.12732894  0.13416414  1
  O  O317  1  0.87792912  0.13024375  0.62851927  1
  O  O318  1  0.88154144  0.62849469  0.13197259  1
  O  O319  1  0.88297944  0.63113016  0.62730794  1
  O  O320  1  0.24702903  0.25598723  0.11715228  1
  O  O321  1  0.25377075  0.25484740  0.62029420  1
  O  O322  1  0.26266747  0.75274570  0.11839951  1
  O  O323  1  0.25568766  0.75574502  0.61913528  1
  O  O324  1  0.75013251  0.26134007  0.11983670  1
  O  O325  1  0.75447637  0.25535399  0.61865457  1
  O  O326  1  0.75943517  0.75106435  0.11785996  1
  O  O327  1  0.75473085  0.75448721  0.62084324  1
  O  O328  1  0.24280664  0.24512024  0.38155838  1
  O  O329  1  0.24348856  0.24366867  0.88107027  1
  O  O330  1  0.24393130  0.74963079  0.38277941  1
  O  O331  1  0.25026600  0.74261471  0.88142348  1
  O  O332  1  0.74460777  0.24288585  0.37972417  1
  O  O333  1  0.74767151  0.23962805  0.88032282  1
  O  O334  1  0.74143064  0.74816043  0.38211403  1
  O  O335  1  0.74594240  0.74491707  0.88063805  1
  O  O336  1  0.00475145  0.12036299  0.00478790  1
  O  O337  1  0.00449493  0.12032361  0.50493815  1
  O  O338  1  0.00580305  0.61948954  0.00529933  1
  O  O339  1  0.00645153  0.61956443  0.50588757  1
  O  O340  1  0.50557651  0.12014118  0.00593940  1
  O  O341  1  0.50016005  0.11774180  0.50642109  1
  O  O342  1  0.50061200  0.61273910  0.00181245  1
  O  O343  1  0.50662128  0.61941733  0.50691704  1
  O  O344  1  0.49884542  0.38233786  0.49352626  1
  O  O345  1  0.49238159  0.38245026  0.99864893  1
  O  O346  1  0.49368887  0.87998398  0.49512102  1
  O  O347  1  0.49554223  0.88131577  0.99365380  1
  O  O348  1  0.99453696  0.38022173  0.49610200  1
  O  O349  1  0.99229257  0.38220031  1.00013422  1
  O  O350  1  1.00118962  0.88041577  0.48938688  1
  O  O351  1  0.99702065  0.87999138  0.99390004  1
  O  O352  1  0.49494944  0.49490546  0.38108395  1
  O  O353  1  0.49283749  0.49765665  0.88384914  1
  O  O354  1  0.49499882  0.99489168  0.38102151  1
  O  O355  1  0.49582007  0.99485524  0.87989955  1
  O  O356  1  0.99597454  0.49351403  0.38243883  1
  O  O357  1  0.99272961  0.49885520  0.88222044  1
  O  O358  1  1.00008245  0.99064815  0.38009170  1
  O  O359  1  0.99907448  0.99366282  0.88144108  1
  O  O360  1  0.00659971  0.00670039  0.11802820  1
  O  O361  1  0.00478708  0.00568101  0.61867856  1
  O  O362  1  0.00580105  0.50553899  0.11878138  1
  O  O363  1  0.00578902  0.50454719  0.62010808  1
  O  O364  1  0.50811232  0.00808071  0.11881901  1
  O  O365  1  0.50397304  0.00434442  0.61985551  1
  O  O366  1  0.49933633  0.50067040  0.11363626  1
  O  O367  1  0.50564712  0.50493144  0.62025081  1
  O  O368  1  0.24093520  0.37479214  0.24376962  1
  O  O369  1  0.24394807  0.38071936  0.74419733  1
  O  O370  1  0.23782863  0.87788680  0.24933328  1
  O  O371  1  0.24415005  0.87583324  0.74261819  1
  O  O372  1  0.74203305  0.37469904  0.24321662  1
  O  O373  1  0.74387615  0.38017739  0.74309361  1
  O  O374  1  0.74741752  0.87995455  0.24566935  1
  O  O375  1  0.74316944  0.87500093  0.74398374  1
  O  O376  1  0.24974314  0.12233573  0.25914957  1
  O  O377  1  0.25675264  0.12313786  0.75681864  1
  O  O378  1  0.26279538  0.62491762  0.25171114  1
  O  O379  1  0.25056215  0.61803349  0.75602986  1
  O  O380  1  0.75767591  0.12727961  0.25809797  1
  O  O381  1  0.75386492  0.12483163  0.75812432  1
  O  O382  1  0.76507410  0.62181984  0.25079960  1
  O  O383  1  0.75139035  0.61767629  0.75761071  1
  O  O384  1  0.36783056  0.11799549  0.37555784  1
  O  O385  1  0.36986444  0.11937302  0.87007346  1
  O  O386  1  0.37464785  0.62060475  0.36709991  1
  O  O387  1  0.36765646  0.61728396  0.87348397  1
  O  O388  1  0.86601707  0.12492131  0.36663662  1
  O  O389  1  0.86518609  0.12526727  0.86904680  1
  O  O390  1  0.87783568  0.62061341  0.36604591  1
  O  O391  1  0.86818716  0.61770849  0.87396039  1
  O  O392  1  0.12809885  0.38021276  0.13061211  1
  O  O393  1  0.13018289  0.38094214  0.63066771  1
  O  O394  1  0.12522499  0.87991616  0.13376609  1
  O  O395  1  0.12986035  0.88056571  0.62877068  1
  O  O396  1  0.63206226  0.37513286  0.13453870  1
  O  O397  1  0.63074669  0.38144160  0.62877958  1
  O  O398  1  0.62667009  0.88801510  0.12511742  1
  O  O399  1  0.62959352  0.87862498  0.63073336  1
  O  O400  1  0.11826685  0.25476420  0.25736284  1
  O  O401  1  0.12398480  0.25633107  0.75681066  1
  O  O402  1  0.12461327  0.75975394  0.25438173  1
  O  O403  1  0.11863676  0.75731255  0.74963855  1
  O  O404  1  0.62267346  0.26198836  0.25638295  1
  O  O405  1  0.61721650  0.25665175  0.74729147  1
  O  O406  1  0.62550284  0.74890350  0.26287093  1
  O  O407  1  0.61966834  0.75541500  0.75700725  1
  O  O408  1  0.37806660  0.24499456  0.24484950  1
  O  O409  1  0.37892547  0.24425790  0.74372570  1
  O  O410  1  0.37584326  0.74474501  0.24220515  1
  O  O411  1  0.38252858  0.74858556  0.74351693  1
  O  O412  1  0.88106231  0.23970791  0.25032059  1
  O  O413  1  0.87438527  0.24391133  0.74190729  1
  O  O414  1  0.87866891  0.73983739  0.24405558  1
  O  O415  1  0.88294805  0.74808826  0.74278879  1
  O  O416  1  0.38209541  0.49899850  0.49321531  1
  O  O417  1  0.38071067  0.49416944  0.99541007  1
  O  O418  1  0.38004785  0.99359790  0.49495235  1
  O  O419  1  0.38179542  0.99464467  0.99366394  1
  O  O420  1  0.88163016  0.49491337  0.49606939  1
  O  O421  1  0.87951640  0.49490552  0.99548361  1
  O  O422  1  0.88288678  0.99635848  0.49547563  1
  O  O423  1  0.88322406  0.99373595  0.99846722  1
  O  O424  1  0.11950372  0.00555126  0.00432160  1
  O  O425  1  0.11843251  0.00609814  0.50580052  1
  O  O426  1  0.11945660  0.50532833  0.00624095  1
  O  O427  1  0.11971793  0.50482035  0.50589773  1
  O  O428  1  0.62012099  0.00631565  0.00740183  1
  O  O429  1  0.61652361  0.00048164  0.50695309  1
  O  O430  1  0.61256940  0.49882731  0.00095049  1
  O  O431  1  0.62018456  0.50491773  0.50565594  1
  O  O432  1  0.36609561  0.37358627  0.11840311  1
  O  O433  1  0.36702941  0.36837726  0.62266518  1
  O  O434  1  0.37630380  0.86741500  0.11907584  1
  O  O435  1  0.37043912  0.86937229  0.61967577  1
  O  O436  1  0.86525647  0.37402764  0.12090105  1
  O  O437  1  0.86898336  0.37018940  0.61930099  1
  O  O438  1  0.87781920  0.86829955  0.11802020  1
  O  O439  1  0.86861084  0.86790119  0.62337716  1
  O  O440  1  0.12846551  0.13037269  0.38153583  1
  O  O441  1  0.12965033  0.12939546  0.88017159  1
  O  O442  1  0.12521528  0.63141124  0.38132246  1
  O  O443  1  0.13240552  0.62538722  0.88267753  1
  O  O444  1  0.63362487  0.13105892  0.37460997  1
  O  O445  1  0.63383832  0.12570448  0.88013582  1
  O  O446  1  0.62587200  0.63384764  0.38169168  1
  O  O447  1  0.63212937  0.63223046  0.87818167  1
