# generated using pymatgen
data_V3Zn3O8
_symmetry_space_group_name_H-M   'P 1'
_cell_length_a   17.08928055
_cell_length_b   17.08958180
_cell_length_c   17.09000580
_cell_angle_alpha   90.00264371
_cell_angle_beta   90.00410358
_cell_angle_gamma   89.99564101
_symmetry_Int_Tables_number   1
_chemical_formula_structural   V3Zn3O8
_chemical_formula_sum   'V96 Zn96 O256'
_cell_volume   4991.11322211
_cell_formula_units_Z   32
loop_
 _symmetry_equiv_pos_site_id
 _symmetry_equiv_pos_as_xyz
  1  'x, y, z'
loop_
 _atom_site_type_symbol
 _atom_site_label
 _atom_site_symmetry_multiplicity
 _atom_site_fract_x
 _atom_site_fract_y
 _atom_site_fract_z
 _atom_site_occupancy
  V  V0  1  0.75143171  0.87480046  0.12501237  1
  V  V1  1  -0.00083380  0.62522803  0.62535402  1
  V  V2  1  0.50028547  -0.00053016  0.00040656  1
  V  V3  1  0.74942253  0.37455471  0.12612347  1
  V  V4  1  0.50061050  0.12455951  0.12564448  1
  V  V5  1  0.75111446  0.75006901  0.00123374  1
  V  V6  1  0.24941298  0.62485986  0.37401246  1
  V  V7  1  0.37521685  0.74960566  0.62587726  1
  V  V8  1  0.37654827  0.25013380  0.12486700  1
  V  V9  1  0.12525617  0.87551511  0.24877056  1
  V  V10  1  0.12446565  0.50002361  0.62464115  1
  V  V11  1  -0.00177989  0.49801613  0.49982732  1
  V  V12  1  -0.00055063  0.24938331  0.74982724  1
  V  V13  1  0.37421868  0.25077751  0.62536233  1
  V  V14  1  0.49992833  0.37513742  0.87469517  1
  V  V15  1  0.87405013  0.50057961  0.87448249  1
  V  V16  1  0.75013909  -0.00200616  0.24980395  1
  V  V17  1  0.24996308  0.49982247  0.24822822  1
  V  V18  1  0.87534421  0.12490307  0.24947737  1
  V  V19  1  0.50059763  0.62506068  0.12495037  1
  V  V20  1  0.25003767  0.12463265  0.87556063  1
  V  V21  1  0.12579667  0.62587423  0.00045025  1
  V  V22  1  0.12408959  0.00084826  0.62350255  1
  V  V23  1  0.49932866  0.00068694  0.50076939  1
  V  V24  1  0.74997235  0.62380692  0.37570731  1
  V  V25  1  0.12478949  0.12493192  0.00103336  1
  V  V26  1  -0.00030754  0.87564597  0.87524487  1
  V  V27  1  0.49919618  0.50050626  0.49951775  1
  V  V28  1  0.37448393  0.12528053  0.75067060  1
  V  V29  1  0.24967332  0.37528436  0.62416055  1
  V  V30  1  0.87426300  0.24947149  0.12538167  1
  V  V31  1  0.24983128  0.00000884  0.75014087  1
  V  V32  1  0.74978360  0.12358045  0.37611473  1
  V  V33  1  0.87521827  -0.00023851  0.87441024  1
  V  V34  1  0.25131039  0.25027061  0.00047167  1
  V  V35  1  0.87502325  0.87392589  0.49944724  1
  V  V36  1  0.50068919  0.75098710  0.25113054  1
  V  V37  1  0.49965379  0.12514978  0.62489957  1
  V  V38  1  0.74818348  0.87472709  0.62552394  1
  V  V39  1  0.00125787  0.00066105  0.49984441  1
  V  V40  1  0.12378032  0.25037589  0.37452898  1
  V  V41  1  0.37601310  0.87531594  0.00056814  1
  V  V42  1  0.74896481  0.62560733  0.87458861  1
  V  V43  1  0.37530057  0.62546452  0.74958024  1
  V  V44  1  0.50016981  0.87420128  0.37480721  1
  V  V45  1  0.62435253  0.24988992  0.37596715  1
  V  V46  1  0.37523156  0.50027872  0.87468710  1
  V  V47  1  0.25044281  0.75152603  0.00022820  1
  V  V48  1  0.12521210  0.24974307  0.87504055  1
  V  V49  1  0.74944390  -0.00068191  0.74887070  1
  V  V50  1  0.12458222  0.37521159  0.24848864  1
  V  V51  1  0.62506419  0.25032483  0.87478728  1
  V  V52  1  0.37497338  0.37613647  0.49959492  1
  V  V53  1  0.00005927  0.87419630  0.37386015  1
  V  V54  1  0.25106539  0.12633646  0.37475560  1
  V  V55  1  0.62558265  0.62601215  0.00107524  1
  V  V56  1  0.24913040  0.74981087  0.49968466  1
  V  V57  1  0.62490611  0.49907565  0.12621591  1
  V  V58  1  0.12418831  0.62433045  0.49940629  1
  V  V59  1  0.25043662  0.50071906  0.74966397  1
  V  V60  1  0.37519491  0.37505813  -0.00028903  1
  V  V61  1  0.12520849  0.37496326  0.74934007  1
  V  V62  1  0.87522731  0.87457304  -0.00053979  1
  V  V63  1  0.49928726  0.62590932  0.62474894  1
  V  V64  1  0.62558176  -0.00041051  0.12538057  1
  V  V65  1  0.37423543  0.62543360  0.24966917  1
  V  V66  1  0.37410115  0.00173354  0.37494035  1
  V  V67  1  0.37625121  0.12618274  0.25077658  1
  V  V68  1  0.12524308  0.87513179  0.74988770  1
  V  V69  1  0.00023939  0.74952869  0.74916826  1
  V  V70  1  0.00188700  0.50117559  0.00056907  1
  V  V71  1  0.87492888  0.24946700  0.62582212  1
  V  V72  1  0.50071989  0.37453528  0.37386842  1
  V  V73  1  0.75042498  0.24905306  0.50132648  1
  V  V74  1  0.24932801  0.25083432  0.49948628  1
  V  V75  1  0.37639851  -0.00065081  0.87644078  1
  V  V76  1  0.74994470  0.12588200  0.87459836  1
  V  V77  1  0.37477892  0.75142422  0.12432723  1
  V  V78  1  0.87543332  0.12575575  0.74933351  1
  V  V79  1  0.74850427  0.37588609  0.62638913  1
  V  V80  1  0.87512150  -0.00106448  0.37484991  1
  V  V81  1  0.62454569  0.12368009  0.50162212  1
  V  V82  1  0.00023803  0.37549819  0.87500091  1
  V  V83  1  0.62547872  0.49969543  0.62610746  1
  V  V84  1  0.12378517  0.75035250  0.37383205  1
  V  V85  1  0.37410210  0.87549209  0.49977257  1
  V  V86  1  0.62479461  0.62625812  0.49917063  1
  V  V87  1  0.12624710  0.75110637  0.87508456  1
  V  V88  1  0.87523697  0.37478410  0.49975760  1
  V  V89  1  0.87563802  0.62350541  0.24910352  1
  V  V90  1  0.12516474  0.00080879  0.12535025  1
  V  V91  1  -0.00011127  0.12652438  0.12482393  1
  V  V92  1  0.24958349  0.87517276  0.62454048  1
  V  V93  1  0.87561958  0.74953270  0.62434046  1
  V  V94  1  0.74985157  0.24928923  -0.00031780  1
  V  V95  1  0.49995416  0.25094165  0.75059588  1
  Zn  Zn96  1  0.25042492  0.87716706  0.12588409  1
  Zn  Zn97  1  0.87714529  0.74950616  0.12570872  1
  Zn  Zn98  1  0.62207477  0.87452817  0.75213800  1
  Zn  Zn99  1  0.62519694  0.12429448  0.00026707  1
  Zn  Zn100  1  -0.00115997  0.25166010  0.25004966  1
  Zn  Zn101  1  0.25225607  0.62586813  0.87433902  1
  Zn  Zn102  1  0.87496339  0.49612741  0.37389647  1
  Zn  Zn103  1  0.87663961  0.37469958  0.00141780  1
  Zn  Zn104  1  0.12455856  0.49982819  0.12442079  1
  Zn  Zn105  1  0.87407510  0.62532896  0.74891350  1
  Zn  Zn106  1  0.37571880  0.50035720  0.37461221  1
  Zn  Zn107  1  0.62607530  0.37727608  0.75149606  1
  Zn  Zn108  1  0.62468466  0.37299660  0.25046698  1
  Zn  Zn109  1  0.50220953  0.25005416  0.24862656  1
  Zn  Zn110  1  0.74836109  0.50016138  0.75030583  1
  Zn  Zn111  1  0.75075746  0.49763790  0.25210679  1
  Zn  Zn112  1  -0.00374298  0.37467516  0.37397295  1
  Zn  Zn113  1  0.12410470  0.12552714  0.50025492  1
  Zn  Zn114  1  0.50302173  0.87345646  0.87262273  1
  Zn  Zn115  1  0.25071782  0.00105374  0.24990292  1
  Zn  Zn116  1  -0.00164024  0.62614869  0.12626864  1
  Zn  Zn117  1  0.25123492  0.37543813  0.12352629  1
  Zn  Zn118  1  0.74882707  0.75023301  0.49985460  1
  Zn  Zn119  1  0.49854490  0.50061157  -0.00057036  1
  Zn  Zn120  1  0.62320724  0.75372364  0.87350025  1
  Zn  Zn121  1  -0.00023862  0.00032517  -0.00075460  1
  Zn  Zn122  1  0.62307798  -0.00122126  0.62693716  1
  Zn  Zn123  1  0.62534632  0.75105284  0.37499956  1
  Zn  Zn124  1  0.62674931  0.87264087  0.25173129  1
  Zn  Zn125  1  0.00097594  0.12528815  0.62296320  1
  Zn  Zn126  1  0.50277433  0.75215321  0.75221241  1
  Zn  Zn127  1  0.00038115  0.74666367  0.24699514  1
  Zn  Zn128  1  0.19046793  0.18792881  0.18765742  1
  Zn  Zn129  1  0.18628422  0.18629354  0.68694377  1
  Zn  Zn130  1  0.18748126  0.68895603  0.18491387  1
  Zn  Zn131  1  0.18793609  0.68702869  0.68723513  1
  Zn  Zn132  1  0.68611362  0.18624432  0.18936654  1
  Zn  Zn133  1  0.68623946  0.18787718  0.68867279  1
  Zn  Zn134  1  0.68908997  0.68839935  0.18894729  1
  Zn  Zn135  1  0.68604510  0.68891274  0.68899234  1
  Zn  Zn136  1  0.31368496  0.31236993  0.31149166  1
  Zn  Zn137  1  0.31260815  0.31350790  0.81301036  1
  Zn  Zn138  1  0.31212071  0.81284935  0.31230229  1
  Zn  Zn139  1  0.31481069  0.81251281  0.81381413  1
  Zn  Zn140  1  0.81121570  0.31069761  0.31252932  1
  Zn  Zn141  1  0.81195356  0.31442634  0.81200753  1
  Zn  Zn142  1  0.81246939  0.80860768  0.31164720  1
  Zn  Zn143  1  0.81243958  0.81149795  0.81149149  1
  Zn  Zn144  1  0.18650842  0.43767956  0.43523196  1
  Zn  Zn145  1  0.18975454  0.43732894  0.93546109  1
  Zn  Zn146  1  0.18741609  0.93873769  0.43619178  1
  Zn  Zn147  1  0.18842953  0.93748026  0.93943148  1
  Zn  Zn148  1  0.68730639  0.43861718  0.43993737  1
  Zn  Zn149  1  0.68612358  0.43670350  0.94053782  1
  Zn  Zn150  1  0.68557321  0.93666804  0.43859576  1
  Zn  Zn151  1  0.68685140  0.93747860  0.93754451  1
  Zn  Zn152  1  0.31252016  0.06198401  0.06464352  1
  Zn  Zn153  1  0.31125516  0.06392404  0.56169589  1
  Zn  Zn154  1  0.31239538  0.56303853  0.06236582  1
  Zn  Zn155  1  0.31260413  0.56264316  0.56238244  1
  Zn  Zn156  1  0.81216259  0.06151368  0.06107113  1
  Zn  Zn157  1  0.81402822  0.06096850  0.56291745  1
  Zn  Zn158  1  0.81220697  0.56206071  0.06266073  1
  Zn  Zn159  1  0.81202970  0.56153344  0.56160315  1
  Zn  Zn160  1  0.43760306  0.43724561  0.18713052  1
  Zn  Zn161  1  0.43856245  0.43859997  0.68797213  1
  Zn  Zn162  1  0.43841443  0.93800687  0.18855802  1
  Zn  Zn163  1  0.43771683  0.93719689  0.68842864  1
  Zn  Zn164  1  0.93703848  0.43907640  0.18783253  1
  Zn  Zn165  1  0.93638010  0.43703979  0.68763620  1
  Zn  Zn166  1  0.93880615  0.93837143  0.18586683  1
  Zn  Zn167  1  0.93701226  0.93741189  0.68678795  1
  Zn  Zn168  1  0.06171143  0.06309978  0.31131513  1
  Zn  Zn169  1  0.06151561  0.06252202  0.81168544  1
  Zn  Zn170  1  0.06028975  0.56001055  0.31457673  1
  Zn  Zn171  1  0.06311391  0.56420419  0.81295359  1
  Zn  Zn172  1  0.56258500  0.06095253  0.31184431  1
  Zn  Zn173  1  0.56409825  0.06136095  0.81268227  1
  Zn  Zn174  1  0.56334301  0.56254836  0.31167749  1
  Zn  Zn175  1  0.56169063  0.56301037  0.81140605  1
  Zn  Zn176  1  0.43760643  0.18870709  0.43849891  1
  Zn  Zn177  1  0.43910825  0.18655767  0.93884292  1
  Zn  Zn178  1  0.43660922  0.68808585  0.43659444  1
  Zn  Zn179  1  0.43938293  0.68798628  0.93658686  1
  Zn  Zn180  1  0.93865593  0.18702471  0.43781021  1
  Zn  Zn181  1  0.93649441  0.18740410  0.93868747  1
  Zn  Zn182  1  0.93654009  0.68689804  0.43604907  1
  Zn  Zn183  1  0.93735193  0.68881697  0.93711111  1
  Zn  Zn184  1  0.06296900  0.31246964  0.06337302  1
  Zn  Zn185  1  0.06104687  0.31251377  0.56232060  1
  Zn  Zn186  1  0.05906217  0.81144710  0.06414000  1
  Zn  Zn187  1  0.06189114  0.81315700  0.56160433  1
  Zn  Zn188  1  0.56202747  0.31156434  0.05969506  1
  Zn  Zn189  1  0.56306241  0.31286864  0.56221766  1
  Zn  Zn190  1  0.56412286  0.81324938  0.06188980  1
  Zn  Zn191  1  0.56259984  0.81084671  0.56212427  1
  O  O192  1  0.12035893  0.12104161  0.12107470  1
  O  O193  1  0.12286442  0.11698818  0.62218695  1
  O  O194  1  0.12309208  0.62346428  0.11105258  1
  O  O195  1  0.11975812  0.61948913  0.61867946  1
  O  O196  1  0.61910083  0.11779737  0.12408906  1
  O  O197  1  0.61750047  0.12483342  0.61858031  1
  O  O198  1  0.62194367  0.61689974  0.12109771  1
  O  O199  1  0.61985367  0.61951373  0.61812127  1
  O  O200  1  0.38419583  0.37546935  0.38121847  1
  O  O201  1  0.38018999  0.37995656  0.87966882  1
  O  O202  1  0.37869064  0.88087242  0.38131967  1
  O  O203  1  0.37514562  0.88354134  0.88286019  1
  O  O204  1  0.87512758  0.37459229  0.38333980  1
  O  O205  1  0.88082725  0.38443085  0.87811454  1
  O  O206  1  0.87989966  0.87967842  0.37913788  1
  O  O207  1  0.88014431  0.88021225  0.87912183  1
  O  O208  1  0.25676189  0.00791634  0.37463288  1
  O  O209  1  0.25491990  0.00586584  0.86969794  1
  O  O210  1  0.25041729  0.50586421  0.36417406  1
  O  O211  1  0.25673106  0.50094514  0.86627049  1
  O  O212  1  0.75591734  0.00439783  0.37086744  1
  O  O213  1  0.75673429  0.00606832  0.86873346  1
  O  O214  1  0.75045829  0.51069034  0.37400525  1
  O  O215  1  0.75911598  0.50716926  0.87893338  1
  O  O216  1  0.24764461  0.49937930  0.13713867  1
  O  O217  1  0.24375513  0.49432445  0.62920568  1
  O  O218  1  0.23967126  0.99906795  0.12845009  1
  O  O219  1  0.24535500  0.99456928  0.63027095  1
  O  O220  1  0.74193031  0.49025060  0.12406761  1
  O  O221  1  0.74350605  0.49388593  0.62580966  1
  O  O222  1  0.74573302  0.99510614  0.13050779  1
  O  O223  1  0.75159420  0.98985642  0.63001665  1
  O  O224  1  0.01213627  0.37443159  0.25160879  1
  O  O225  1  0.00593503  0.36979911  0.75553887  1
  O  O226  1  0.01067884  0.87536284  0.25582396  1
  O  O227  1  0.00604551  0.86952597  0.75491737  1
  O  O228  1  0.50112745  0.37403673  0.26286465  1
  O  O229  1  0.49970042  0.36764684  0.75651683  1
  O  O230  1  0.49998781  0.86859901  0.25756225  1
  O  O231  1  0.50224825  0.87252774  0.75181601  1
  O  O232  1  0.49344867  0.12612643  0.24421577  1
  O  O233  1  0.49315724  0.13073274  0.74497420  1
  O  O234  1  0.49362145  0.62981660  0.24485716  1
  O  O235  1  0.49159053  0.62466782  0.74090557  1
  O  O236  1  0.99275852  0.12711418  0.24318613  1
  O  O237  1  0.99323465  0.13230391  0.74907469  1
  O  O238  1  0.98991152  0.62304536  0.24944220  1
  O  O239  1  1.00037628  0.63176081  0.74316411  1
  O  O240  1  0.36983136  0.25473397  0.00433255  1
  O  O241  1  0.36919895  0.25654208  0.50631189  1
  O  O242  1  0.36970228  0.75475913  0.00560349  1
  O  O243  1  0.36758772  0.75541893  0.50505687  1
  O  O244  1  0.86827615  0.25259902  0.00705892  1
  O  O245  1  0.86941401  0.25395823  0.50594723  1
  O  O246  1  0.86872896  0.75691317  0.00020857  1
  O  O247  1  0.87507906  0.75704689  0.50676777  1
  O  O248  1  0.13080838  0.25172106  0.49015987  1
  O  O249  1  0.13080789  0.24511369  0.99412833  1
  O  O250  1  0.13006091  0.74451933  0.49471970  1
  O  O251  1  0.12917959  0.74380875  0.99462950  1
  O  O252  1  0.63088756  0.24338024  0.49558463  1
  O  O253  1  0.63217129  0.24714397  0.99267002  1
  O  O254  1  0.62671525  0.73948662  0.49755784  1
  O  O255  1  0.63394821  0.74189699  0.99995713  1
  O  O256  1  0.49453505  0.24317292  0.12538088  1
  O  O257  1  0.49326640  0.24542271  0.62965276  1
  O  O258  1  0.49442740  0.74430541  0.13061946  1
  O  O259  1  0.49099716  0.74246044  0.62344259  1
  O  O260  1  0.99297919  0.24480852  0.12662520  1
  O  O261  1  0.99343603  0.24933367  0.63237476  1
  O  O262  1  0.99480571  0.74424805  0.12852789  1
  O  O263  1  0.99610370  0.74517720  0.62966127  1
  O  O264  1  0.01197877  0.25153216  0.37281959  1
  O  O265  1  0.00549394  0.25584023  0.87028121  1
  O  O266  1  0.00738943  0.75663863  0.37377738  1
  O  O267  1  0.00633573  0.75588922  0.86894374  1
  O  O268  1  0.50578729  0.26033119  0.37753501  1
  O  O269  1  0.50436556  0.25447543  0.86973332  1
  O  O270  1  0.49891893  0.75663449  0.36861854  1
  O  O271  1  0.50368026  0.75295565  0.87206725  1
  O  O272  1  0.24849088  0.13369145  0.49300495  1
  O  O273  1  0.24479147  0.13063101  0.99440291  1
  O  O274  1  0.24366500  0.62958851  0.49469480  1
  O  O275  1  0.24086783  0.63104229  0.99821522  1
  O  O276  1  0.74555096  0.12910159  0.49538250  1
  O  O277  1  0.74985873  0.13163049  0.99209488  1
  O  O278  1  0.74393556  0.62537865  0.49162595  1
  O  O279  1  0.74631405  0.62938574  0.99318242  1
  O  O280  1  0.25629849  0.36794841  0.00004824  1
  O  O281  1  0.25465660  0.37100540  0.50496417  1
  O  O282  1  0.25686535  0.86888140  0.00270324  1
  O  O283  1  0.25427174  0.86948728  0.50456771  1
  O  O284  1  0.75151309  0.36893461  0.01159719  1
  O  O285  1  0.75494828  0.36813916  0.50628574  1
  O  O286  1  0.75644206  0.86963498  0.00509358  1
  O  O287  1  0.75692885  0.87454780  0.50845060  1
  O  O288  1  0.13285654  0.49249224  0.24976593  1
  O  O289  1  0.12945287  0.49463182  0.74448400  1
  O  O290  1  0.12614381  0.99197173  0.24413633  1
  O  O291  1  0.13070275  0.99422011  0.74509615  1
  O  O292  1  0.62743571  0.49812484  0.23647724  1
  O  O293  1  0.62642969  0.49778993  0.74096703  1
  O  O294  1  0.63301579  0.99791192  0.24421225  1
  O  O295  1  0.63495515  0.99912501  0.74545737  1
  O  O296  1  0.37350384  0.00706266  0.25753702  1
  O  O297  1  0.36800254  0.00662166  0.75519051  1
  O  O298  1  0.36554636  0.50580014  0.25087519  1
  O  O299  1  0.36896788  0.50498597  0.75373995  1
  O  O300  1  0.87009091  0.00527095  0.25584761  1
  O  O301  1  0.86995269  0.00574221  0.75492481  1
  O  O302  1  0.87167292  0.50869234  0.25314375  1
  O  O303  1  0.87563729  0.50250850  0.76400595  1
  O  O304  1  0.12574479  0.36581549  0.36564946  1
  O  O305  1  0.12047176  0.36927972  0.86841861  1
  O  O306  1  0.12027078  0.87075278  0.36738379  1
  O  O307  1  0.12037520  0.87086903  0.86917521  1
  O  O308  1  0.61612410  0.36973942  0.37685011  1
  O  O309  1  0.61837974  0.36897969  0.87499943  1
  O  O310  1  0.61617409  0.87251390  0.37366788  1
  O  O311  1  0.62326081  0.87300371  0.87199267  1
  O  O312  1  0.38078979  0.13019788  0.13070451  1
  O  O313  1  0.37898542  0.13160697  0.63070975  1
  O  O314  1  0.38047396  0.63098820  0.13035586  1
  O  O315  1  0.37923696  0.62999162  0.62888536  1
  O  O316  1  0.87931405  0.12945698  0.13003064  1
  O  O317  1  0.87598725  0.13186694  0.63157596  1
  O  O318  1  0.87393058  0.62436973  0.13638508  1
  O  O319  1  0.88173321  0.63066136  0.62601950  1
  O  O320  1  0.25806229  0.25104100  0.11731996  1
  O  O321  1  0.25453728  0.25612326  0.62045922  1
  O  O322  1  0.25702232  0.75247624  0.11809936  1
  O  O323  1  0.25390082  0.75575295  0.61857201  1
  O  O324  1  0.75338624  0.25634387  0.12059868  1
  O  O325  1  0.75503148  0.25477654  0.61994171  1
  O  O326  1  0.75337932  0.75661574  0.11894799  1
  O  O327  1  0.75742357  0.75882983  0.62377113  1
  O  O328  1  0.24311109  0.24682388  0.38027315  1
  O  O329  1  0.24466684  0.24419283  0.87954542  1
  O  O330  1  0.24384955  0.74465408  0.38066976  1
  O  O331  1  0.24324839  0.74917289  0.88169130  1
  O  O332  1  0.74450535  0.24289188  0.38233509  1
  O  O333  1  0.74570331  0.24596215  0.87954657  1
  O  O334  1  0.74785329  0.73701989  0.37804988  1
  O  O335  1  0.75223016  0.73821128  0.88133048  1
  O  O336  1  0.00745297  0.12462316  0.00610353  1
  O  O337  1  0.00281527  0.11624040  0.50150677  1
  O  O338  1  0.00895249  0.61632058  -0.00307636  1
  O  O339  1  0.00558494  0.61915498  0.50566335  1
  O  O340  1  0.50078585  0.11742151  0.00807547  1
  O  O341  1  0.50404345  0.12069756  0.50560638  1
  O  O342  1  0.50696723  0.62305787  0.00842886  1
  O  O343  1  0.50409253  0.61946618  0.50396943  1
  O  O344  1  0.49479296  0.38009838  0.49257650  1
  O  O345  1  0.49250858  0.37622768  0.99212941  1
  O  O346  1  0.49264960  0.88053850  0.49592028  1
  O  O347  1  0.49254457  0.88281022  1.00090512  1
  O  O348  1  0.99289039  0.38056448  0.50024924  1
  O  O349  1  1.00203955  0.38537318  0.99340833  1
  O  O350  1  0.99494217  0.88067299  0.49345579  1
  O  O351  1  0.99400897  0.87659661  0.99190888  1
  O  O352  1  0.49966159  0.49090121  0.38053502  1
  O  O353  1  0.49308976  0.49348389  0.87652713  1
  O  O354  1  0.49325577  0.99522293  0.38167283  1
  O  O355  1  0.49214431  1.00232485  0.88271214  1
  O  O356  1  0.99794791  0.49540178  0.38589978  1
  O  O357  1  0.99382698  0.49639318  0.88186356  1
  O  O358  1  0.99440770  0.99414356  0.37928835  1
  O  O359  1  0.99360877  0.99346143  0.87506134  1
  O  O360  1  0.00860055  0.00791003  0.12282318  1
  O  O361  1  0.00645362  -0.00047603  0.61830561  1
  O  O362  1  0.00192966  0.50156162  0.11074726  1
  O  O363  1  0.00582610  0.50486698  0.62063993  1
  O  O364  1  0.50547668  0.00529460  0.12036313  1
  O  O365  1  0.49874291  0.00807304  0.61800268  1
  O  O366  1  0.50881078  0.50545585  0.12404322  1
  O  O367  1  0.50439660  0.50547984  0.61809097  1
  O  O368  1  0.24293650  0.38418405  0.25034205  1
  O  O369  1  0.24455448  0.37999291  0.74356754  1
  O  O370  1  0.23652135  0.87705363  0.25000795  1
  O  O371  1  0.24488126  0.88068362  0.74432500  1
  O  O372  1  0.74695024  0.37526187  0.23792546  1
  O  O373  1  0.74757220  0.37852131  0.74202411  1
  O  O374  1  0.75116326  0.88112616  0.24395178  1
  O  O375  1  0.75325385  0.88106422  0.73853177  1
  O  O376  1  0.25829895  0.12504368  0.25778398  1
  O  O377  1  0.25496770  0.12000791  0.75571971  1
  O  O378  1  0.25305759  0.61821957  0.25392001  1
  O  O379  1  0.25577054  0.61767873  0.74981662  1
  O  O380  1  0.75586990  0.11819468  0.25678700  1
  O  O381  1  0.75655879  0.12065394  0.75479653  1
  O  O382  1  0.75731508  0.62271837  0.25897013  1
  O  O383  1  0.75293740  0.62182154  0.76249710  1
  O  O384  1  0.37102228  0.12161953  0.37096788  1
  O  O385  1  0.36873720  0.12029114  0.86997476  1
  O  O386  1  0.36715882  0.62356986  0.36772186  1
  O  O387  1  0.37351230  0.61775015  0.86824290  1
  O  O388  1  0.86912469  0.11916812  0.37032981  1
  O  O389  1  0.86986136  0.12053302  0.86870873  1
  O  O390  1  0.86632052  0.62180720  0.36862546  1
  O  O391  1  0.86677477  0.61654389  0.87602344  1
  O  O392  1  0.12916129  0.37596253  0.13628089  1
  O  O393  1  0.13024708  0.38021833  0.63020553  1
  O  O394  1  0.12445840  0.88199167  0.13344945  1
  O  O395  1  0.13071378  0.87980855  0.63045800  1
  O  O396  1  0.63163542  0.38193858  0.12498435  1
  O  O397  1  0.63079502  0.38154345  0.62451805  1
  O  O398  1  0.63348045  0.88203773  0.12698005  1
  O  O399  1  0.63872034  0.87658995  0.62286799  1
  O  O400  1  0.12742190  0.25912209  0.25821991  1
  O  O401  1  0.12052834  0.25559920  0.75540418  1
  O  O402  1  0.12431859  0.75856893  0.25531749  1
  O  O403  1  0.12081304  0.75604773  0.75439985  1
  O  O404  1  0.62224556  0.25162098  0.26040657  1
  O  O405  1  0.61712027  0.25206375  0.75661718  1
  O  O406  1  0.61581519  0.75150949  0.25226518  1
  O  O407  1  0.62227047  0.75392876  0.75378848  1
  O  O408  1  0.37808029  0.24447224  0.24329196  1
  O  O409  1  0.37900837  0.24467602  0.74480608  1
  O  O410  1  0.37902779  0.74467145  0.24431547  1
  O  O411  1  0.37296446  0.74267583  0.74174571  1
  O  O412  1  0.87520838  0.24256231  0.24349038  1
  O  O413  1  0.88029452  0.24551713  0.74563304  1
  O  O414  1  0.87805022  0.73656569  0.24981230  1
  O  O415  1  0.88341482  0.74829331  0.74309121  1
  O  O416  1  0.38032322  0.49380089  0.49774954  1
  O  O417  1  0.37469088  0.49361977  0.99344087  1
  O  O418  1  0.37928983  0.99510353  0.49499190  1
  O  O419  1  0.37954770  0.99540483  0.99601089  1
  O  O420  1  0.88158197  0.49183270  0.50069494  1
  O  O421  1  0.88522087  0.50015200  0.99081907  1
  O  O422  1  0.88074923  0.99377697  0.49352422  1
  O  O423  1  0.87630298  0.99333223  0.99163737  1
  O  O424  1  0.12400290  0.00702530  0.00740514  1
  O  O425  1  0.11920006  0.00038138  0.50532757  1
  O  O426  1  0.11844909  0.50821758  -0.00282425  1
  O  O427  1  0.12029810  0.50449429  0.50569936  1
  O  O428  1  0.61899511  0.00256722  0.00782060  1
  O  O429  1  0.61712828  0.00704653  0.50238833  1
  O  O430  1  0.62380686  0.50593204  0.01228606  1
  O  O431  1  0.61803143  0.50685597  0.50630460  1
  O  O432  1  0.37453875  0.36861920  0.11825060  1
  O  O433  1  0.36921102  0.37010052  0.61979504  1
  O  O434  1  0.37338871  0.86912308  0.11963386  1
  O  O435  1  0.36764613  0.87038108  0.61863146  1
  O  O436  1  0.86563528  0.36993073  0.12414157  1
  O  O437  1  0.86899472  0.36868668  0.62040361  1
  O  O438  1  0.86896900  0.87613937  0.11757524  1
  O  O439  1  0.86808357  0.86990434  0.61904618  1
  O  O440  1  0.13110961  0.13614529  0.37350691  1
  O  O441  1  0.13047021  0.13024873  0.87983521  1
  O  O442  1  0.13009228  0.63026265  0.38035860  1
  O  O443  1  0.12680584  0.63167227  0.88460626  1
  O  O444  1  0.63024988  0.12889301  0.38210535  1
  O  O445  1  0.63262639  0.13219621  0.87594564  1
  O  O446  1  0.63305118  0.62441501  0.38094251  1
  O  O447  1  0.63657207  0.62057412  0.88270894  1
