# generated using pymatgen
data_V3Zn3O8
_symmetry_space_group_name_H-M   'P 1'
_cell_length_a   17.08663956
_cell_length_b   17.08602702
_cell_length_c   17.08712913
_cell_angle_alpha   90.00234310
_cell_angle_beta   90.00552110
_cell_angle_gamma   89.98926862
_symmetry_Int_Tables_number   1
_chemical_formula_structural   V3Zn3O8
_chemical_formula_sum   'V96 Zn96 O256'
_cell_volume   4988.46395339
_cell_formula_units_Z   32
loop_
 _symmetry_equiv_pos_site_id
 _symmetry_equiv_pos_as_xyz
  1  'x, y, z'
loop_
 _atom_site_type_symbol
 _atom_site_label
 _atom_site_symmetry_multiplicity
 _atom_site_fract_x
 _atom_site_fract_y
 _atom_site_fract_z
 _atom_site_occupancy
  V  V0  1  0.50015948  0.24993041  0.25005063  1
  V  V1  1  0.37531946  0.87468924  0.50039620  1
  V  V2  1  0.87497626  0.24982231  0.12483281  1
  V  V3  1  0.00255262  0.12525410  0.62402416  1
  V  V4  1  0.62535512  0.24970060  0.37527988  1
  V  V5  1  0.00042389  0.00078876  0.00032599  1
  V  V6  1  0.87545280  0.25033338  0.62241639  1
  V  V7  1  0.25057111  0.87394458  0.62430877  1
  V  V8  1  0.37540224  0.49882022  0.37680089  1
  V  V9  1  0.62515384  0.75014463  0.87617891  1
  V  V10  1  0.25178653  0.37571305  0.62569874  1
  V  V11  1  0.50066924  0.12485335  0.12456423  1
  V  V12  1  0.74742537  0.62498165  0.37461830  1
  V  V13  1  0.87344596  0.62491238  0.74979063  1
  V  V14  1  0.75100582  0.24994657  0.49950311  1
  V  V15  1  0.75105168  0.12465837  0.37387328  1
  V  V16  1  0.37591753  0.25119274  0.62558759  1
  V  V17  1  0.62489538  0.87470931  0.75033477  1
  V  V18  1  0.62495232  0.87444138  0.25090638  1
  V  V19  1  0.24943904  0.75027768  0.50001845  1
  V  V20  1  0.87467653  0.49968331  0.37447235  1
  V  V21  1  0.87463250  0.12553835  0.24969434  1
  V  V22  1  -0.00030771  0.75136427  0.25141960  1
  V  V23  1  0.00056208  0.87546409  0.87518019  1
  V  V24  1  0.12498516  0.50100683  0.62434590  1
  V  V25  1  0.49858723  0.62484920  0.12417555  1
  V  V26  1  -0.00068835  0.75018229  0.75029083  1
  V  V27  1  -0.00082690  0.37611058  0.87461446  1
  V  V28  1  0.12502589  0.00072623  0.62401237  1
  V  V29  1  0.74965979  0.24963094  -0.00162690  1
  V  V30  1  0.49928878  0.87543543  0.87570853  1
  V  V31  1  0.62456055  0.00066155  0.12512164  1
  V  V32  1  0.75001116  0.87378013  0.62547771  1
  V  V33  1  0.24941116  0.24917226  -0.00038298  1
  V  V34  1  0.75027838  0.37539266  0.12316697  1
  V  V35  1  0.37534537  0.25034208  0.12523023  1
  V  V36  1  0.12500234  0.00096636  0.12538263  1
  V  V37  1  0.50106059  -0.00165021  0.50009320  1
  V  V38  1  0.49970592  -0.00015404  0.00044648  1
  V  V39  1  0.74990840  0.62605061  0.87458887  1
  V  V40  1  0.24874017  0.62513809  0.87529013  1
  V  V41  1  0.25033673  0.00019259  0.24996866  1
  V  V42  1  0.49943944  0.37544658  0.37623795  1
  V  V43  1  0.25108524  0.00039911  0.75058604  1
  V  V44  1  0.12501743  0.74948260  0.87565120  1
  V  V45  1  0.50173224  0.24958702  0.75133719  1
  V  V46  1  -0.00062340  0.12618954  0.12570805  1
  V  V47  1  0.49965961  0.75061534  0.25089682  1
  V  V48  1  0.24961075  0.37561422  0.12583177  1
  V  V49  1  0.74988727  0.87550060  0.12570943  1
  V  V50  1  0.37649993  -0.00074443  0.37580004  1
  V  V51  1  0.87325627  0.75035023  0.62485189  1
  V  V52  1  0.37532377  0.12406409  0.75258988  1
  V  V53  1  0.87462141  0.62572529  0.24870309  1
  V  V54  1  0.87591345  0.87663023  0.49896765  1
  V  V55  1  0.37471225  0.87577172  -0.00062717  1
  V  V56  1  0.62662937  0.24913305  0.87459216  1
  V  V57  1  0.24770909  0.74966236  -0.00030908  1
  V  V58  1  0.12613828  0.12616357  -0.00002769  1
  V  V59  1  0.62396644  0.62407284  0.49890543  1
  V  V60  1  0.12460682  0.37473123  0.74941504  1
  V  V61  1  0.49902510  0.50052030  0.00012607  1
  V  V62  1  0.87570556  0.37528113  -0.00194139  1
  V  V63  1  0.75043604  0.00038262  0.25063673  1
  V  V64  1  0.75076914  -0.00043669  0.75096176  1
  V  V65  1  0.62396533  0.50054588  0.12310425  1
  V  V66  1  0.74976164  0.50046476  0.24848495  1
  V  V67  1  0.62558203  0.12348582  0.50050908  1
  V  V68  1  0.12601573  0.25085714  0.37527483  1
  V  V69  1  0.37568576  0.12491619  0.25072711  1
  V  V70  1  0.24911958  0.49999215  0.25059697  1
  V  V71  1  0.25060695  0.50111810  0.75076214  1
  V  V72  1  0.75010588  0.49941285  0.74864316  1
  V  V73  1  -0.00085710  0.62448062  0.62536460  1
  V  V74  1  0.87498110  0.74984227  0.12582374  1
  V  V75  1  0.49923847  0.74942811  0.75024275  1
  V  V76  1  0.74973223  0.74984833  0.00006401  1
  V  V77  1  0.24778796  0.62652867  0.37574038  1
  V  V78  1  0.75094391  0.12448965  0.87461863  1
  V  V79  1  0.62471316  0.37505202  0.24907566  1
  V  V80  1  0.12408614  0.37549448  0.25041678  1
  V  V81  1  0.62652242  0.37437141  0.74931221  1
  V  V82  1  0.37401767  0.74999488  0.12487414  1
  V  V83  1  0.87509170  0.87545140  0.00075724  1
  V  V84  1  0.12550558  0.87543684  0.74932792  1
  V  V85  1  0.87514086  0.00058689  0.87454465  1
  V  V86  1  0.25100448  0.12534804  0.37581842  1
  V  V87  1  0.12359374  0.87551114  0.25134066  1
  V  V88  1  -0.00117934  0.49960669  0.49859046  1
  V  V89  1  0.00118147  0.25032481  0.74767014  1
  V  V90  1  0.49944569  0.62381548  0.62592364  1
  V  V91  1  0.62529216  -0.00096667  0.62473908  1
  V  V92  1  0.12688529  0.12482873  0.50007293  1
  V  V93  1  0.37420308  0.50058553  0.87594300  1
  V  V94  1  0.24970282  0.87548979  0.12490487  1
  V  V95  1  0.37457284  0.37570427  0.00050602  1
  Zn  Zn96  1  -0.00031916  0.50142345  0.00325536  1
  Zn  Zn97  1  -0.00175176  0.37477723  0.37447503  1
  Zn  Zn98  1  0.62499964  0.62500640  -0.00052483  1
  Zn  Zn99  1  0.87550360  0.50133542  0.87615960  1
  Zn  Zn100  1  0.37684203  0.37442564  0.50209001  1
  Zn  Zn101  1  0.50162609  0.12381623  0.62584668  1
  Zn  Zn102  1  0.74840515  0.75021028  0.49812806  1
  Zn  Zn103  1  0.37459231  0.62554757  0.74999053  1
  Zn  Zn104  1  0.12134837  0.62116946  0.00107215  1
  Zn  Zn105  1  -0.00127672  0.25068644  0.25059241  1
  Zn  Zn106  1  0.50169436  0.87349462  0.37629049  1
  Zn  Zn107  1  0.87720495  0.00088948  0.37568825  1
  Zn  Zn108  1  0.62444155  0.12534973  -0.00042716  1
  Zn  Zn109  1  0.37366598  0.74852169  0.62594836  1
  Zn  Zn110  1  0.00026882  0.00037928  0.49815702  1
  Zn  Zn111  1  0.37306445  0.62577330  0.24950962  1
  Zn  Zn112  1  0.12327631  0.50216197  0.12177584  1
  Zn  Zn113  1  0.49976205  0.37542534  0.87601634  1
  Zn  Zn114  1  0.25271221  0.25183487  0.50058672  1
  Zn  Zn115  1  0.24866824  0.12515188  0.87580279  1
  Zn  Zn116  1  0.00246350  0.62173433  0.12322485  1
  Zn  Zn117  1  0.62412583  0.49695164  0.62326399  1
  Zn  Zn118  1  0.12386416  0.62744328  0.50026464  1
  Zn  Zn119  1  0.12282348  0.75272465  0.37693285  1
  Zn  Zn120  1  0.00064463  0.87824374  0.37672924  1
  Zn  Zn121  1  0.37396403  0.00017786  0.87592155  1
  Zn  Zn122  1  0.62471540  0.75063488  0.37517150  1
  Zn  Zn123  1  0.87717835  0.12412073  0.74915868  1
  Zn  Zn124  1  0.87255111  0.37505111  0.49638748  1
  Zn  Zn125  1  0.12602412  0.24842494  0.87408421  1
  Zn  Zn126  1  0.75026186  0.37512189  0.62165587  1
  Zn  Zn127  1  0.49971755  0.49739605  0.50302646  1
  Zn  Zn128  1  0.18802215  0.18805391  0.18754913  1
  Zn  Zn129  1  0.18935592  0.18801615  0.68787615  1
  Zn  Zn130  1  0.18470403  0.68674003  0.18750412  1
  Zn  Zn131  1  0.18666995  0.68687996  0.68747849  1
  Zn  Zn132  1  0.68779471  0.18749491  0.18656497  1
  Zn  Zn133  1  0.69009371  0.18540108  0.68704057  1
  Zn  Zn134  1  0.68581984  0.68686600  0.18598365  1
  Zn  Zn135  1  0.68549465  0.68751037  0.68630155  1
  Zn  Zn136  1  0.31200558  0.31323548  0.31271745  1
  Zn  Zn137  1  0.31154693  0.31309461  0.81451591  1
  Zn  Zn138  1  0.31294784  0.81334797  0.31336972  1
  Zn  Zn139  1  0.31383355  0.81114663  0.81200172  1
  Zn  Zn140  1  0.81240705  0.31342689  0.31198638  1
  Zn  Zn141  1  0.81444227  0.31109013  0.81024656  1
  Zn  Zn142  1  0.81133437  0.81141865  0.31506751  1
  Zn  Zn143  1  0.81277814  0.81295097  0.81339788  1
  Zn  Zn144  1  0.18876151  0.43722293  0.44071216  1
  Zn  Zn145  1  0.18518128  0.43723056  0.93774532  1
  Zn  Zn146  1  0.18746222  0.93739109  0.43699048  1
  Zn  Zn147  1  0.18831991  0.93884836  0.93627706  1
  Zn  Zn148  1  0.68735443  0.43778756  0.43711018  1
  Zn  Zn149  1  0.68769714  0.43798147  0.93569629  1
  Zn  Zn150  1  0.68872731  0.93632329  0.43611539  1
  Zn  Zn151  1  0.68652646  0.93768607  0.93843456  1
  Zn  Zn152  1  0.31327000  0.06302397  0.06269210  1
  Zn  Zn153  1  0.31283541  0.06279588  0.56329923  1
  Zn  Zn154  1  0.30979842  0.56371979  0.06283579  1
  Zn  Zn155  1  0.31322155  0.56325143  0.56143457  1
  Zn  Zn156  1  0.81190488  0.06341863  0.06199638  1
  Zn  Zn157  1  0.81253486  0.06251416  0.56288854  1
  Zn  Zn158  1  0.81529689  0.56261128  0.06092895  1
  Zn  Zn159  1  0.81135504  0.56291599  0.56205153  1
  Zn  Zn160  1  0.43647930  0.43827344  0.18878937  1
  Zn  Zn161  1  0.43890535  0.43863757  0.69101983  1
  Zn  Zn162  1  0.43774935  0.93657668  0.18706054  1
  Zn  Zn163  1  0.43775174  0.93695323  0.68627054  1
  Zn  Zn164  1  0.93878669  0.43764233  0.18664269  1
  Zn  Zn165  1  0.93642828  0.43634898  0.68618964  1
  Zn  Zn166  1  0.93694012  0.93848608  0.18849114  1
  Zn  Zn167  1  0.93836834  0.93825592  0.68601341  1
  Zn  Zn168  1  0.06002936  0.06224894  0.31413502  1
  Zn  Zn169  1  0.06365924  0.06398135  0.81202543  1
  Zn  Zn170  1  0.06176817  0.56392217  0.31138695  1
  Zn  Zn171  1  0.06300379  0.56204079  0.81292657  1
  Zn  Zn172  1  0.56270053  0.06163483  0.31334987  1
  Zn  Zn173  1  0.56267234  0.06230292  0.81350886  1
  Zn  Zn174  1  0.56095279  0.56280981  0.31129265  1
  Zn  Zn175  1  0.56288216  0.56222469  0.81355077  1
  Zn  Zn176  1  0.43962390  0.18610751  0.43939762  1
  Zn  Zn177  1  0.43844215  0.18867153  0.93745231  1
  Zn  Zn178  1  0.43561548  0.68695062  0.43852580  1
  Zn  Zn179  1  0.43578366  0.68691749  0.93775550  1
  Zn  Zn180  1  0.94008150  0.18627802  0.43713823  1
  Zn  Zn181  1  0.93796485  0.18864039  0.93637817  1
  Zn  Zn182  1  0.93448689  0.68799104  0.43659736  1
  Zn  Zn183  1  0.93741007  0.68614121  0.93801386  1
  Zn  Zn184  1  0.06222434  0.31249337  0.06219121  1
  Zn  Zn185  1  0.06400953  0.31404028  0.56080696  1
  Zn  Zn186  1  0.06264113  0.81125417  0.06404957  1
  Zn  Zn187  1  0.06268311  0.81150772  0.56231566  1
  Zn  Zn188  1  0.56237419  0.31327647  0.06090748  1
  Zn  Zn189  1  0.56197306  0.31098341  0.56285272  1
  Zn  Zn190  1  0.56268508  0.81312562  0.06309448  1
  Zn  Zn191  1  0.56181170  0.81000789  0.56274815  1
  O  O192  1  0.11981787  0.11969733  0.12075100  1
  O  O193  1  0.12259172  0.12069327  0.61962417  1
  O  O194  1  0.12242224  0.62174745  0.12134152  1
  O  O195  1  0.11646935  0.61810326  0.62480855  1
  O  O196  1  0.61819598  0.11891865  0.12422277  1
  O  O197  1  0.62521014  0.11732724  0.61868715  1
  O  O198  1  0.61784926  0.61751214  0.12232116  1
  O  O199  1  0.61638631  0.62343034  0.61674161  1
  O  O200  1  0.38000651  0.38294432  0.37575193  1
  O  O201  1  0.37614858  0.38206144  0.88271912  1
  O  O202  1  0.37607292  0.88271939  0.38200362  1
  O  O203  1  0.38191423  0.87581110  0.88176405  1
  O  O204  1  0.87779988  0.38336636  0.37545721  1
  O  O205  1  0.88369338  0.37405991  0.87880934  1
  O  O206  1  0.87356209  0.87618264  0.38804692  1
  O  O207  1  0.88103542  0.88043433  0.88121299  1
  O  O208  1  0.25635091  0.00600423  0.36894539  1
  O  O209  1  0.25365413  0.00288556  0.86641338  1
  O  O210  1  0.25691144  0.50641307  0.37185687  1
  O  O211  1  0.25446331  0.50486908  0.86989231  1
  O  O212  1  0.75143429  0.00772460  0.36771619  1
  O  O213  1  0.75546993  0.00365810  0.87084587  1
  O  O214  1  0.75434119  0.50511227  0.36733829  1
  O  O215  1  0.75082151  0.50598708  0.86346629  1
  O  O216  1  0.25004444  0.49243752  0.13355789  1
  O  O217  1  0.24558754  0.49612768  0.63042123  1
  O  O218  1  0.24490923  0.99510842  0.13083511  1
  O  O219  1  0.24469802  0.99418069  0.63082910  1
  O  O220  1  0.74452770  0.49456296  0.12914427  1
  O  O221  1  0.74734927  0.49838514  0.63710246  1
  O  O222  1  0.74472828  0.99496407  0.13022194  1
  O  O223  1  0.74452910  0.99401004  0.63149641  1
  O  O224  1  0.01223307  0.37215166  0.25331853  1
  O  O225  1  0.00453576  0.36999604  0.75500856  1
  O  O226  1  0.00421967  0.86696767  0.25033127  1
  O  O227  1  0.00541033  0.87000209  0.75512557  1
  O  O228  1  0.50549952  0.36890673  0.25502023  1
  O  O229  1  0.51136791  0.36935243  0.75277522  1
  O  O230  1  0.50530887  0.86568463  0.24903616  1
  O  O231  1  0.50584236  0.87011826  0.75506431  1
  O  O232  1  0.49495795  0.13051492  0.24505805  1
  O  O233  1  0.49172528  0.13001842  0.74857757  1
  O  O234  1  0.49759307  0.63473626  0.24324660  1
  O  O235  1  0.50155696  0.63031926  0.74130492  1
  O  O236  1  0.99345185  0.12689475  0.24258975  1
  O  O237  1  1.00005101  0.13209889  0.74188145  1
  O  O238  1  0.99291101  0.63570314  0.25019135  1
  O  O239  1  0.99339803  0.63033075  0.74543254  1
  O  O240  1  0.37056416  0.25534304  0.00665661  1
  O  O241  1  0.37580827  0.24966060  0.51367238  1
  O  O242  1  0.36851088  0.75660951  0.00548930  1
  O  O243  1  0.36769463  0.75672150  0.50192877  1
  O  O244  1  0.86879550  0.25528810  0.00512042  1
  O  O245  1  0.87069442  0.25036259  0.50679971  1
  O  O246  1  0.86926937  0.75734456  0.00523828  1
  O  O247  1  0.87241237  0.75796639  0.50722474  1
  O  O248  1  0.12867326  0.24545610  0.49066280  1
  O  O249  1  0.13194390  0.24340784  1.00081363  1
  O  O250  1  0.13237284  0.74758584  0.49664223  1
  O  O251  1  0.13158409  0.75276277  0.99226119  1
  O  O252  1  0.63024624  0.24338348  0.49453955  1
  O  O253  1  0.63193689  0.24999657  0.99303838  1
  O  O254  1  0.62581332  0.73699243  0.49764147  1
  O  O255  1  0.63212902  0.75033387  0.99427660  1
  O  O256  1  0.49488783  0.24557857  0.13076995  1
  O  O257  1  0.49139412  0.24774441  0.63267894  1
  O  O258  1  0.49445784  0.74593940  0.13164092  1
  O  O259  1  0.49962915  0.73984897  0.63190187  1
  O  O260  1  0.99260476  0.24362171  0.12622248  1
  O  O261  1  0.99417513  0.24586455  0.62736349  1
  O  O262  1  0.99261377  0.75187062  0.13650843  1
  O  O263  1  0.99417838  0.74438756  0.63174422  1
  O  O264  1  0.01423297  0.25163579  0.37329273  1
  O  O265  1  0.00023936  0.25975995  0.86680758  1
  O  O266  1  -0.00082849  0.75241032  0.36261754  1
  O  O267  1  0.00415665  0.75702550  0.86909395  1
  O  O268  1  0.50560902  0.25425524  0.36915743  1
  O  O269  1  0.50786844  0.25230424  0.86884951  1
  O  O270  1  0.49981864  0.75001059  0.36192298  1
  O  O271  1  0.50546881  0.75538195  0.87100402  1
  O  O272  1  0.24501135  0.12738635  0.49340875  1
  O  O273  1  0.24437278  0.13118542  1.00100791  1
  O  O274  1  0.24896110  0.63075655  0.49147118  1
  O  O275  1  0.24855825  0.63361987  0.99248949  1
  O  O276  1  0.74454502  0.12984037  0.49374575  1
  O  O277  1  0.74836263  0.13159506  0.99312656  1
  O  O278  1  0.74017026  0.62472222  0.49449413  1
  O  O279  1  0.74959154  0.63235791  0.99313040  1
  O  O280  1  0.25547281  0.36927810  0.00668704  1
  O  O281  1  0.25480806  0.37252758  0.51030300  1
  O  O282  1  0.25456875  0.87049773  0.00584500  1
  O  O283  1  0.25529165  0.87018892  0.50500377  1
  O  O284  1  0.75517255  0.36925573  0.00398598  1
  O  O285  1  0.75087585  0.36660528  0.50198545  1
  O  O286  1  0.75580042  0.87053084  0.00584286  1
  O  O287  1  0.75766562  0.87313362  0.50750666  1
  O  O288  1  0.13135152  0.48828948  0.25388594  1
  O  O289  1  0.13021772  0.49416267  0.74373251  1
  O  O290  1  0.13100420  0.99654533  0.24418440  1
  O  O291  1  0.13070632  0.99458194  0.74419202  1
  O  O292  1  0.62942792  0.49423946  0.24347858  1
  O  O293  1  0.63354247  0.49096708  0.75056720  1
  O  O294  1  0.63013437  0.99479213  0.24439351  1
  O  O295  1  0.63054669  0.99351140  0.74530032  1
  O  O296  1  0.37018326  0.00523296  0.25465610  1
  O  O297  1  0.37106457  0.00947282  0.74911535  1
  O  O298  1  0.36821778  0.50067148  0.26132396  1
  O  O299  1  0.36793668  0.50115115  0.75796436  1
  O  O300  1  0.86696153  0.00739530  0.24955711  1
  O  O301  1  0.86909409  -0.00016065  0.75670618  1
  O  O302  1  0.86851437  0.50549023  0.25422748  1
  O  O303  1  0.86495619  0.50534560  0.74922579  1
  O  O304  1  0.12792958  0.36648017  0.36738927  1
  O  O305  1  0.11524067  0.37214888  0.86740423  1
  O  O306  1  0.12333811  0.87346275  0.36618601  1
  O  O307  1  0.11933027  0.87046914  0.86873561  1
  O  O308  1  0.62013780  0.36936127  0.36791859  1
  O  O309  1  0.62568744  0.36819069  0.86373251  1
  O  O310  1  0.62295756  0.87157641  0.36671239  1
  O  O311  1  0.61953790  0.86974983  0.86968163  1
  O  O312  1  0.38076849  0.13082884  0.13183866  1
  O  O313  1  0.37615549  0.13370757  0.63549842  1
  O  O314  1  0.37978734  0.63230236  0.12699665  1
  O  O315  1  0.38719237  0.62585796  0.62611998  1
  O  O316  1  0.87948438  0.13048644  0.12934491  1
  O  O317  1  0.88226909  0.13522893  0.62431090  1
  O  O318  1  0.87389705  0.63347272  0.13281859  1
  O  O319  1  0.87935144  0.63073005  0.63060579  1
  O  O320  1  0.25700990  0.25521644  0.12074514  1
  O  O321  1  0.26150588  0.25658369  0.62690782  1
  O  O322  1  0.25464409  0.75678498  0.12087009  1
  O  O323  1  0.25028829  0.75593455  0.61859443  1
  O  O324  1  0.75456505  0.25591924  0.11883938  1
  O  O325  1  0.76040388  0.24815819  0.61842034  1
  O  O326  1  0.75474358  0.75648580  0.12048717  1
  O  O327  1  0.75580073  0.75632614  0.62502086  1
  O  O328  1  0.24226128  0.24411049  0.37582200  1
  O  O329  1  0.24742065  0.24780945  0.88402744  1
  O  O330  1  0.25078203  0.74071808  0.37994769  1
  O  O331  1  0.24423715  0.74594130  0.87957918  1
  O  O332  1  0.74373281  0.24465033  0.37904280  1
  O  O333  1  0.74657469  0.24427324  0.87862037  1
  O  O334  1  0.74576092  0.73954781  0.37633773  1
  O  O335  1  0.74476210  0.74629152  0.88023060  1
  O  O336  1  0.00475580  0.11981388  0.00587473  1
  O  O337  1  0.00955429  0.12445598  0.50684669  1
  O  O338  1  0.00132577  0.62181967  0.00277825  1
  O  O339  1  -0.00099147  0.61568276  0.50563020  1
  O  O340  1  0.50072818  0.11905413  0.00723299  1
  O  O341  1  0.50808464  0.11724505  0.50231821  1
  O  O342  1  0.50083432  0.61890779  0.00670354  1
  O  O343  1  0.50701085  0.62383177  0.50806931  1
  O  O344  1  0.49901470  0.37707755  0.49210215  1
  O  O345  1  0.49221138  0.38196054  0.99982692  1
  O  O346  1  0.49408907  0.88001132  0.49888433  1
  O  O347  1  0.49413469  0.87978088  0.99590974  1
  O  O348  1  0.99920368  0.38899866  0.49787176  1
  O  O349  1  0.99361108  0.37175362  0.98870645  1
  O  O350  1  0.98788607  0.87542796  0.50092087  1
  O  O351  1  0.99493543  0.88108456  0.99541640  1
  O  O352  1  0.48970854  0.49466776  0.37318190  1
  O  O353  1  0.49338731  0.49920002  0.88207478  1
  O  O354  1  0.49379008  0.99825128  0.38133297  1
  O  O355  1  0.49895895  0.99281625  0.88200277  1
  O  O356  1  0.99398856  0.50198582  0.38377257  1
  O  O357  1  0.99669938  0.48532900  0.87131047  1
  O  O358  1  0.99486503  0.99675299  0.37973919  1
  O  O359  1  0.99562587  0.99467694  0.88053399  1
  O  O360  1  0.00509595  0.00567232  0.11930604  1
  O  O361  1  0.00823451  0.00722859  0.62426450  1
  O  O362  1  0.00377403  0.50227312  0.12324361  1
  O  O363  1  0.00344728  0.50489776  0.61788497  1
  O  O364  1  0.50499988  0.00526713  0.12079795  1
  O  O365  1  0.50802879  0.00034818  0.61850312  1
  O  O366  1  0.50372537  0.50491287  0.12070687  1
  O  O367  1  0.50273935  0.51024915  0.62505882  1
  O  O368  1  0.24248550  0.37938962  0.24595759  1
  O  O369  1  0.24452131  0.38137063  0.74525554  1
  O  O370  1  0.24506101  0.88092813  0.24421918  1
  O  O371  1  0.24488211  0.87958046  0.74435218  1
  O  O372  1  0.74378121  0.38070264  0.24314554  1
  O  O373  1  0.74299715  0.38230701  0.74884342  1
  O  O374  1  0.74549866  0.88001997  0.24446374  1
  O  O375  1  0.74430326  0.87997150  0.74591941  1
  O  O376  1  0.25654835  0.11945500  0.25499165  1
  O  O377  1  0.25998009  0.11956139  0.75038337  1
  O  O378  1  0.25142627  0.61994548  0.26011818  1
  O  O379  1  0.25064271  0.61835785  0.75640242  1
  O  O380  1  0.75456562  0.12028567  0.25420655  1
  O  O381  1  0.75295890  0.11691329  0.75668050  1
  O  O382  1  0.75378446  0.61892326  0.25388134  1
  O  O383  1  0.75317762  0.61801283  0.75385987  1
  O  O384  1  0.37099935  0.11991270  0.36988924  1
  O  O385  1  0.37427003  0.12464166  0.86249301  1
  O  O386  1  0.36526109  0.61620339  0.37387757  1
  O  O387  1  0.36713720  0.61828258  0.87388760  1
  O  O388  1  0.86808117  0.12611489  0.36812048  1
  O  O389  1  0.86990422  0.11782094  0.87320604  1
  O  O390  1  0.86724590  0.61932089  0.36840791  1
  O  O391  1  0.86757337  0.62485205  0.86610090  1
  O  O392  1  0.13157626  0.37189053  0.13724479  1
  O  O393  1  0.13089488  0.38149667  0.63011473  1
  O  O394  1  0.13035438  0.88192434  0.13064926  1
  O  O395  1  0.13053609  0.88028127  0.63068782  1
  O  O396  1  0.63046156  0.38007598  0.13007527  1
  O  O397  1  0.62757783  0.37431099  0.63764839  1
  O  O398  1  0.63110703  0.88102228  0.13070402  1
  O  O399  1  0.63025840  0.87900733  0.63079004  1
  O  O400  1  0.12682389  0.25806143  0.25934183  1
  O  O401  1  0.11901932  0.25748151  0.74862351  1
  O  O402  1  0.11488177  0.75714367  0.25090718  1
  O  O403  1  0.11865210  0.75649036  0.75502747  1
  O  O404  1  0.61997819  0.25533466  0.25483660  1
  O  O405  1  0.62306049  0.25612994  0.75400898  1
  O  O406  1  0.61436726  0.75520293  0.24783948  1
  O  O407  1  0.61981984  0.75620542  0.75634648  1
  O  O408  1  0.38058830  0.24481391  0.24541587  1
  O  O409  1  0.38011421  0.24365728  0.74436539  1
  O  O410  1  0.38411214  0.75107827  0.24320529  1
  O  O411  1  0.38367365  0.74678371  0.74702078  1
  O  O412  1  0.87496429  0.24397891  0.24260210  1
  O  O413  1  0.88155678  0.24783401  0.73833531  1
  O  O414  1  0.88098246  0.74646570  0.24527049  1
  O  O415  1  0.88007130  0.74573081  0.74484704  1
  O  O416  1  0.37684635  0.49785364  0.48735862  1
  O  O417  1  0.37886263  0.49448942  0.99615954  1
  O  O418  1  0.38059983  0.99532131  0.49557407  1
  O  O419  1  0.38142023  0.99336461  1.00003816  1
  O  O420  1  0.88281842  0.49968793  0.49474080  1
  O  O421  1  0.87560557  0.48953001  0.99532336  1
  O  O422  1  0.87619382  0.98860804  0.50122475  1
  O  O423  1  0.88073965  0.99466276  0.99522108  1
  O  O424  1  0.11955360  0.00471284  0.00638388  1
  O  O425  1  0.12579968  0.00669039  0.50713242  1
  O  O426  1  0.12017351  0.50083565  0.00270348  1
  O  O427  1  0.11547720  0.50262613  0.50581121  1
  O  O428  1  0.61817707  0.00065551  0.00772859  1
  O  O429  1  0.62123915  0.00376545  0.50514396  1
  O  O430  1  0.61825583  0.50035406  0.00576549  1
  O  O431  1  0.62250353  0.51092647  0.50164934  1
  O  O432  1  0.36961552  0.36927968  0.12130541  1
  O  O433  1  0.37181669  0.36552727  0.62820211  1
  O  O434  1  0.36857133  0.87029203  0.11915316  1
  O  O435  1  0.36776423  0.87404519  0.61803266  1
  O  O436  1  0.86862862  0.36904325  0.11966433  1
  O  O437  1  0.87418987  0.36131127  0.62155376  1
  O  O438  1  0.86892108  0.87062625  0.11973114  1
  O  O439  1  0.86965913  0.86979663  0.61904686  1
  O  O440  1  0.13158366  0.13284357  0.37841777  1
  O  O441  1  0.12651638  0.12764401  0.88396007  1
  O  O442  1  0.13801627  0.62603332  0.37607868  1
  O  O443  1  0.13095300  0.63316229  0.87440961  1
  O  O444  1  0.63072035  0.13070912  0.37977999  1
  O  O445  1  0.63263178  0.13123775  0.87606749  1
  O  O446  1  0.62873261  0.62419434  0.38303958  1
  O  O447  1  0.63184548  0.63267836  0.87649663  1
