# generated using pymatgen
data_V3Zn3O8
_symmetry_space_group_name_H-M   'P 1'
_cell_length_a   17.08908055
_cell_length_b   17.08837133
_cell_length_c   17.08930100
_cell_angle_alpha   90.02531502
_cell_angle_beta   89.98956732
_cell_angle_gamma   90.00068451
_symmetry_Int_Tables_number   1
_chemical_formula_structural   V3Zn3O8
_chemical_formula_sum   'V96 Zn96 O256'
_cell_volume   4990.49493696
_cell_formula_units_Z   32
loop_
 _symmetry_equiv_pos_site_id
 _symmetry_equiv_pos_as_xyz
  1  'x, y, z'
loop_
 _atom_site_type_symbol
 _atom_site_label
 _atom_site_symmetry_multiplicity
 _atom_site_fract_x
 _atom_site_fract_y
 _atom_site_fract_z
 _atom_site_occupancy
  V  V0  1  0.37634049  0.37555309  -0.00014771  1
  V  V1  1  0.37581880  0.25046056  0.12572842  1
  V  V2  1  0.00126694  0.37468670  0.37446643  1
  V  V3  1  0.50027942  0.00046347  0.00014411  1
  V  V4  1  0.12483120  0.62575098  0.49855347  1
  V  V5  1  -0.00052913  0.12469059  0.62580363  1
  V  V6  1  0.49880435  0.62599604  0.62417989  1
  V  V7  1  0.75096396  0.12438561  0.87541235  1
  V  V8  1  0.62554676  0.25011838  0.87591158  1
  V  V9  1  0.49940591  -0.00023195  0.49961810  1
  V  V10  1  0.62648174  0.37645518  0.74999093  1
  V  V11  1  0.37493443  0.00046217  0.87444426  1
  V  V12  1  0.87458580  0.74883182  0.62503342  1
  V  V13  1  0.12531811  0.12513988  0.00112314  1
  V  V14  1  0.25026535  0.24966459  0.00023660  1
  V  V15  1  0.37504859  0.12479419  0.75089895  1
  V  V16  1  0.49991512  0.87538019  0.87386609  1
  V  V17  1  0.50082792  0.25016408  0.75104151  1
  V  V18  1  0.12433331  0.00066859  0.12419832  1
  V  V19  1  0.87481137  0.74990761  0.12391426  1
  V  V20  1  0.24899533  0.75134697  0.49827334  1
  V  V21  1  0.12567149  0.62432291  -0.00019427  1
  V  V22  1  0.62432528  0.74977499  0.37438050  1
  V  V23  1  0.49992134  0.24911431  0.25045139  1
  V  V24  1  0.62710234  0.74818805  0.87632657  1
  V  V25  1  0.49915384  0.87596758  0.37481404  1
  V  V26  1  0.12462911  0.37541710  0.25005639  1
  V  V27  1  0.00146594  0.50044017  0.49958431  1
  V  V28  1  0.12636640  0.24975000  0.87686766  1
  V  V29  1  0.25098500  0.62455547  0.87304513  1
  V  V30  1  0.87572599  0.37526939  0.50068358  1
  V  V31  1  0.37301832  0.25273385  0.62396233  1
  V  V32  1  0.37424342  0.12576574  0.25044004  1
  V  V33  1  0.87536922  -0.00033479  0.87606831  1
  V  V34  1  0.37413063  0.87492036  -0.00045272  1
  V  V35  1  0.62495268  -0.00025854  0.62583298  1
  V  V36  1  0.37571025  0.62574319  0.24734112  1
  V  V37  1  0.74961451  -0.00069806  0.25160210  1
  V  V38  1  0.87589358  0.37388510  0.00175033  1
  V  V39  1  0.37541904  0.49999915  0.87444799  1
  V  V40  1  -0.00048528  0.75001116  0.24882566  1
  V  V41  1  0.12464535  0.87520190  0.24937331  1
  V  V42  1  0.24877709  0.12573550  0.37552885  1
  V  V43  1  0.62520884  0.12584684  0.50113727  1
  V  V44  1  0.12437683  0.74997205  0.87360795  1
  V  V45  1  0.00034629  -0.00004153  0.00034510  1
  V  V46  1  0.25023647  -0.00001754  0.75004833  1
  V  V47  1  0.75010122  0.87340325  0.12407793  1
  V  V48  1  0.49903027  0.75011924  0.74845591  1
  V  V49  1  0.87328777  0.50130651  0.87311152  1
  V  V50  1  0.74850309  0.87474271  0.62473368  1
  V  V51  1  0.62524530  0.12417016  0.00091987  1
  V  V52  1  0.49948770  0.37556432  0.37561666  1
  V  V53  1  0.74927945  0.74943354  0.50017967  1
  V  V54  1  -0.00115834  0.87559890  0.37568399  1
  V  V55  1  0.87577519  0.12511803  0.75159019  1
  V  V56  1  0.50033121  0.12513685  0.62574999  1
  V  V57  1  -0.00012801  0.75054371  0.75000576  1
  V  V58  1  0.24854153  0.87644177  0.62484759  1
  V  V59  1  0.25050083  0.75055266  -0.00102518  1
  V  V60  1  0.12458260  0.25020461  0.37469350  1
  V  V61  1  0.75043624  0.25079967  0.50169666  1
  V  V62  1  0.12487373  0.75018650  0.37407309  1
  V  V63  1  0.50017442  0.37562416  0.87667693  1
  V  V64  1  0.00119429  0.37449370  0.87600306  1
  V  V65  1  0.00115814  0.49996192  0.00049987  1
  V  V66  1  0.74980507  0.62438244  0.37426331  1
  V  V67  1  0.62457143  0.87563442  0.74869963  1
  V  V68  1  0.37445066  0.62515626  0.74912603  1
  V  V69  1  0.87513666  0.87457866  -0.00042380  1
  V  V70  1  0.25040375  0.87441884  0.12395951  1
  V  V71  1  0.87473261  0.62529254  0.24885892  1
  V  V72  1  0.12397795  0.12549502  0.50016191  1
  V  V73  1  0.24980478  0.00067762  0.25020404  1
  V  V74  1  0.49937833  0.50055023  0.49900084  1
  V  V75  1  0.00029095  0.24873859  0.75086517  1
  V  V76  1  0.62623506  0.37393076  0.25104313  1
  V  V77  1  0.62434034  -0.00034856  0.12480682  1
  V  V78  1  0.24987158  0.37606018  0.12562623  1
  V  V79  1  0.75135854  0.24935903  0.00201333  1
  V  V80  1  0.49964190  0.75009466  0.24827916  1
  V  V81  1  0.37440992  0.87588696  0.49827945  1
  V  V82  1  0.62443802  0.87483313  0.24943868  1
  V  V83  1  0.62312844  0.50104691  0.12291863  1
  V  V84  1  0.75089300  0.49976222  0.25059717  1
  V  V85  1  0.62419597  0.24965549  0.37652574  1
  V  V86  1  0.12556345  0.49996769  0.12455959  1
  V  V87  1  0.00035551  0.62530092  0.62314491  1
  V  V88  1  0.87510136  0.12444573  0.25089905  1
  V  V89  1  0.62426801  0.62483378  0.49979176  1
  V  V90  1  0.37348578  0.50048461  0.37423639  1
  V  V91  1  -0.00081998  -0.00008562  0.50113722  1
  V  V92  1  0.62523927  0.49921512  0.62585247  1
  V  V93  1  0.75171813  0.37349437  0.12625631  1
  V  V94  1  0.87482748  0.87502237  0.49970251  1
  V  V95  1  0.12748168  0.37660488  0.74735960  1
  Zn  Zn96  1  0.37417932  0.74935437  0.62337448  1
  Zn  Zn97  1  0.00060844  0.87507784  0.87427662  1
  Zn  Zn98  1  0.25036196  0.12441942  0.87538811  1
  Zn  Zn99  1  0.12808770  0.50083365  0.62367619  1
  Zn  Zn100  1  -0.00154475  0.24908169  0.24875767  1
  Zn  Zn101  1  0.49996308  0.12477829  0.12596166  1
  Zn  Zn102  1  0.12414357  0.87768143  0.75120608  1
  Zn  Zn103  1  0.62545683  0.62496944  -0.00083645  1
  Zn  Zn104  1  0.24907758  0.62577390  0.37399981  1
  Zn  Zn105  1  0.75063466  0.00037877  0.75018522  1
  Zn  Zn106  1  0.74951036  0.62409171  0.87435869  1
  Zn  Zn107  1  0.37685025  0.74892361  0.12247129  1
  Zn  Zn108  1  0.37221644  0.37550415  0.50018556  1
  Zn  Zn109  1  0.87242560  0.62356279  0.74908097  1
  Zn  Zn110  1  0.87261862  0.00010143  0.37645689  1
  Zn  Zn111  1  0.87717745  0.24902145  0.12682066  1
  Zn  Zn112  1  0.75148325  0.37710866  0.62773824  1
  Zn  Zn113  1  0.75113435  0.74679759  -0.00160177  1
  Zn  Zn114  1  0.24889072  0.50215154  0.24978055  1
  Zn  Zn115  1  0.25023821  0.50082129  0.74688927  1
  Zn  Zn116  1  0.24921874  0.25179437  0.50069190  1
  Zn  Zn117  1  -0.00032817  0.12672655  0.12659973  1
  Zn  Zn118  1  0.12429645  0.00168036  0.62750419  1
  Zn  Zn119  1  0.87445725  0.25033331  0.62765652  1
  Zn  Zn120  1  0.75009908  0.12218491  0.37665024  1
  Zn  Zn121  1  0.50136501  0.62731161  0.12114242  1
  Zn  Zn122  1  0.75071920  0.50095475  0.74844007  1
  Zn  Zn123  1  0.00023678  0.62518328  0.12475354  1
  Zn  Zn124  1  0.50050543  0.50309380  -0.00017602  1
  Zn  Zn125  1  0.25050771  0.37845428  0.62217884  1
  Zn  Zn126  1  0.87548288  0.50034340  0.37385480  1
  Zn  Zn127  1  0.37447508  0.00158931  0.37442187  1
  Zn  Zn128  1  0.18688714  0.18869303  0.18789049  1
  Zn  Zn129  1  0.18749321  0.18681715  0.68827494  1
  Zn  Zn130  1  0.18922866  0.68722361  0.18614684  1
  Zn  Zn131  1  0.18692949  0.68881562  0.68565781  1
  Zn  Zn132  1  0.68928594  0.18575316  0.18817299  1
  Zn  Zn133  1  0.68912617  0.18844734  0.68815855  1
  Zn  Zn134  1  0.68875817  0.68687582  0.18671050  1
  Zn  Zn135  1  0.68844843  0.68438557  0.69072225  1
  Zn  Zn136  1  0.31029879  0.31294476  0.31223749  1
  Zn  Zn137  1  0.31186051  0.31248533  0.81266035  1
  Zn  Zn138  1  0.31276810  0.81273407  0.31201344  1
  Zn  Zn139  1  0.31258919  0.81191419  0.81145241  1
  Zn  Zn140  1  0.81301099  0.31033555  0.31477243  1
  Zn  Zn141  1  0.81229557  0.31358098  0.81386785  1
  Zn  Zn142  1  0.81245108  0.81197376  0.31222856  1
  Zn  Zn143  1  0.81263692  0.81402710  0.81129092  1
  Zn  Zn144  1  0.18932867  0.43629446  0.43934899  1
  Zn  Zn145  1  0.18962889  0.43786180  0.93647374  1
  Zn  Zn146  1  0.18550595  0.93987569  0.43736175  1
  Zn  Zn147  1  0.18645047  0.93691984  0.93554207  1
  Zn  Zn148  1  0.68797985  0.43780811  0.43802301  1
  Zn  Zn149  1  0.68965579  0.43555360  0.93896371  1
  Zn  Zn150  1  0.68651155  0.93759368  0.43756249  1
  Zn  Zn151  1  0.68899927  0.93630007  0.93749715  1
  Zn  Zn152  1  0.31194736  0.06319137  0.06326806  1
  Zn  Zn153  1  0.31207188  0.06353221  0.56195963  1
  Zn  Zn154  1  0.31235311  0.56189898  0.06130638  1
  Zn  Zn155  1  0.30976332  0.56304453  0.56272267  1
  Zn  Zn156  1  0.81277655  0.06129638  0.06485856  1
  Zn  Zn157  1  0.81326740  0.06236380  0.56480265  1
  Zn  Zn158  1  0.80963947  0.56434372  0.05969930  1
  Zn  Zn159  1  0.81254713  0.56125762  0.56261647  1
  Zn  Zn160  1  0.43881251  0.43678728  0.18837935  1
  Zn  Zn161  1  0.43944894  0.43844790  0.68916785  1
  Zn  Zn162  1  0.43624498  0.93821670  0.18659455  1
  Zn  Zn163  1  0.43586190  0.93699383  0.68616669  1
  Zn  Zn164  1  0.93864524  0.43833817  0.18756860  1
  Zn  Zn165  1  0.94164421  0.43761386  0.68657071  1
  Zn  Zn166  1  0.93674202  0.93896177  0.18687215  1
  Zn  Zn167  1  0.93589848  0.93794325  0.68748587  1
  Zn  Zn168  1  0.06050685  0.06195737  0.31406277  1
  Zn  Zn169  1  0.06372805  0.06208686  0.81430859  1
  Zn  Zn170  1  0.06148973  0.56189712  0.31239536  1
  Zn  Zn171  1  0.06105121  0.56292810  0.81184664  1
  Zn  Zn172  1  0.56238638  0.06334120  0.31346191  1
  Zn  Zn173  1  0.56310479  0.06262421  0.81265972  1
  Zn  Zn174  1  0.56158974  0.56261411  0.31019941  1
  Zn  Zn175  1  0.56041533  0.56245979  0.81097911  1
  Zn  Zn176  1  0.43666340  0.18673772  0.43781238  1
  Zn  Zn177  1  0.43777860  0.18703274  0.93831683  1
  Zn  Zn178  1  0.43581360  0.68852165  0.43619270  1
  Zn  Zn179  1  0.44022194  0.68585687  0.93785611  1
  Zn  Zn180  1  0.93737988  0.18730277  0.43549876  1
  Zn  Zn181  1  0.93895131  0.18674024  0.93908848  1
  Zn  Zn182  1  0.93713182  0.68769711  0.43596515  1
  Zn  Zn183  1  0.93842733  0.68630349  0.93793094  1
  Zn  Zn184  1  0.06111307  0.31090645  0.06563820  1
  Zn  Zn185  1  0.06130751  0.30993531  0.56316885  1
  Zn  Zn186  1  0.06179213  0.81264008  0.06145308  1
  Zn  Zn187  1  0.06307321  0.81270816  0.56273924  1
  Zn  Zn188  1  0.56284142  0.31305794  0.06342695  1
  Zn  Zn189  1  0.56035408  0.31456658  0.56337360  1
  Zn  Zn190  1  0.56124337  0.81284660  0.06173691  1
  Zn  Zn191  1  0.56153560  0.81215286  0.56191814  1
  O  O192  1  0.12544405  0.11757346  0.11896892  1
  O  O193  1  0.11747668  0.12487550  0.61875918  1
  O  O194  1  0.12520294  0.61837602  0.11748188  1
  O  O195  1  0.11731274  0.62649540  0.61600721  1
  O  O196  1  0.62419948  0.11758963  0.11852991  1
  O  O197  1  0.61946840  0.12050866  0.62100955  1
  O  O198  1  0.62512090  0.61184588  0.12674926  1
  O  O199  1  0.61858731  0.62015380  0.61878714  1
  O  O200  1  0.38136064  0.38529236  0.37280097  1
  O  O201  1  0.38050973  0.37924454  0.87980744  1
  O  O202  1  0.38174256  0.87799507  0.38010957  1
  O  O203  1  0.38069651  0.88076921  0.87956876  1
  O  O204  1  0.88069958  0.37542482  0.38604766  1
  O  O205  1  0.88191485  0.38153506  0.88170015  1
  O  O206  1  0.88114149  0.87399562  0.38247260  1
  O  O207  1  0.87623041  0.88175765  0.88134010  1
  O  O208  1  0.25004062  0.00706904  0.36735252  1
  O  O209  1  0.25804226  0.00016346  0.86820956  1
  O  O210  1  0.26286697  0.50206511  0.37302388  1
  O  O211  1  0.25728340  0.50728156  0.87224487  1
  O  O212  1  0.75066135  0.00062033  0.36752052  1
  O  O213  1  0.75648521  0.00711952  0.87400986  1
  O  O214  1  0.75024334  0.50679991  0.36847231  1
  O  O215  1  0.76343051  0.49686730  0.87462905  1
  O  O216  1  0.24353181  0.49288901  0.12535106  1
  O  O217  1  0.24575458  0.49671881  0.62939597  1
  O  O218  1  0.24397124  0.99385521  0.13020281  1
  O  O219  1  0.25024356  0.99179845  0.63084050  1
  O  O220  1  0.74239845  0.49329334  0.13105681  1
  O  O221  1  0.74060824  0.49719790  0.62535835  1
  O  O222  1  0.74312880  0.99257745  0.13121502  1
  O  O223  1  0.74221502  0.99295498  0.62590755  1
  O  O224  1  0.00637834  0.37508816  0.25747556  1
  O  O225  1  0.00827706  0.36840746  0.75618430  1
  O  O226  1  0.00533846  0.87015024  0.25507119  1
  O  O227  1  0.00107269  0.86203613  0.74890740  1
  O  O228  1  0.50664190  0.36852864  0.25641632  1
  O  O229  1  0.50630350  0.36854577  0.75744597  1
  O  O230  1  0.50504757  0.87064787  0.25507961  1
  O  O231  1  0.50436573  0.87051021  0.75415183  1
  O  O232  1  0.49343552  0.13180969  0.24944290  1
  O  O233  1  0.49560617  0.13058147  0.74503923  1
  O  O234  1  0.49122764  0.63161023  0.24878006  1
  O  O235  1  0.49396650  0.63102628  0.74319879  1
  O  O236  1  0.98812057  0.12389337  0.24964258  1
  O  O237  1  0.99544357  0.12990213  0.74653915  1
  O  O238  1  0.99313033  0.63231231  0.24858439  1
  O  O239  1  0.99877509  0.63565445  0.74279710  1
  O  O240  1  0.37061262  0.25545134  0.00570584  1
  O  O241  1  0.37613598  0.25040970  0.51273173  1
  O  O242  1  0.36860272  0.75714165  -0.00122666  1
  O  O243  1  0.36780366  0.75776479  0.49968279  1
  O  O244  1  0.86849159  0.25624260  0.00044320  1
  O  O245  1  0.86646747  0.25780557  0.49988869  1
  O  O246  1  0.87527356  0.75653846  0.00573658  1
  O  O247  1  0.86866231  0.75514158  0.50514607  1
  O  O248  1  0.12477578  0.24259606  0.49269481  1
  O  O249  1  0.13088795  0.24570582  0.99616691  1
  O  O250  1  0.12893462  0.74603473  0.49298813  1
  O  O251  1  0.13035876  0.74435476  0.99407534  1
  O  O252  1  0.63143269  0.24646329  0.49707425  1
  O  O253  1  0.63076630  0.24468527  0.99525159  1
  O  O254  1  0.62971983  0.74443608  0.49409220  1
  O  O255  1  0.62522657  0.75303474  0.98656151  1
  O  O256  1  0.49410246  0.24940163  0.13276452  1
  O  O257  1  0.49356368  0.24437347  0.63144699  1
  O  O258  1  0.49746020  0.74929027  0.13334349  1
  O  O259  1  0.49870148  0.74392441  0.63042849  1
  O  O260  1  0.99545196  0.24543193  0.13018118  1
  O  O261  1  0.99708262  0.24228069  0.63312476  1
  O  O262  1  0.99350240  0.74921391  0.13183838  1
  O  O263  1  0.99469593  0.74570285  0.63085083  1
  O  O264  1  0.00711812  0.25737681  0.37312629  1
  O  O265  1  0.00675546  0.25551343  0.87122151  1
  O  O266  1  0.00532301  0.75637958  0.36877680  1
  O  O267  1  0.00483885  0.74932162  0.86474772  1
  O  O268  1  0.50484671  0.25558887  0.37051144  1
  O  O269  1  0.50605864  0.25489725  0.87036530  1
  O  O270  1  0.50586794  0.75609365  0.36926650  1
  O  O271  1  0.50722189  0.75697004  0.86828491  1
  O  O272  1  0.24253254  0.12650836  0.49356349  1
  O  O273  1  0.24408447  0.13206777  0.99884306  1
  O  O274  1  0.24309227  0.63369750  0.49709925  1
  O  O275  1  0.24562604  0.63097194  0.99300828  1
  O  O276  1  0.74442470  0.13492392  0.50121704  1
  O  O277  1  0.74471748  0.12931631  0.99521312  1
  O  O278  1  0.74367629  0.63046711  0.49448107  1
  O  O279  1  0.74350740  0.62922039  0.99282357  1
  O  O280  1  0.25637969  0.36906111  0.00550280  1
  O  O281  1  0.25491154  0.36953621  0.50422217  1
  O  O282  1  0.25495871  0.87020916  0.00423744  1
  O  O283  1  0.25389005  0.87255665  0.50627982  1
  O  O284  1  0.75632527  0.36803203  0.00652567  1
  O  O285  1  0.75811677  0.36719437  0.50005094  1
  O  O286  1  0.75741383  0.87347244  0.00726318  1
  O  O287  1  0.75359467  0.86823734  0.50514848  1
  O  O288  1  0.12657366  0.49435778  0.24329108  1
  O  O289  1  0.12391928  0.48782671  0.74987101  1
  O  O290  1  0.12988107  0.99409661  0.24467554  1
  O  O291  1  0.13374018  0.99778849  0.74843341  1
  O  O292  1  0.63054841  0.49331797  0.24357868  1
  O  O293  1  0.62376401  0.49316308  0.74356166  1
  O  O294  1  0.62870172  0.99401581  0.24483303  1
  O  O295  1  0.62554031  0.99369285  0.74329946  1
  O  O296  1  0.36766285  0.00711276  0.25056442  1
  O  O297  1  0.37096470  0.00535944  0.75499493  1
  O  O298  1  0.37683035  0.50835087  0.25840601  1
  O  O299  1  0.37505651  0.50738160  0.75705771  1
  O  O300  1  0.86750903  0.00631699  0.25173731  1
  O  O301  1  0.87367312  0.00680111  0.75761529  1
  O  O302  1  0.86808875  0.50646218  0.25119221  1
  O  O303  1  0.87768107  0.49834328  0.76158208  1
  O  O304  1  0.12041648  0.37029717  0.36997885  1
  O  O305  1  0.12035598  0.36975666  0.86833606  1
  O  O306  1  0.11869291  0.86995450  0.36883359  1
  O  O307  1  0.12205290  0.86541588  0.87193432  1
  O  O308  1  0.61948283  0.36980765  0.37035639  1
  O  O309  1  0.62033165  0.36875933  0.87093249  1
  O  O310  1  0.61908895  0.86875572  0.36945951  1
  O  O311  1  0.61911704  0.86943463  0.86850810  1
  O  O312  1  0.37607204  0.13274061  0.13196907  1
  O  O313  1  0.38154561  0.13244060  0.63093491  1
  O  O314  1  0.37701692  0.62488169  0.13605474  1
  O  O315  1  0.38179745  0.62691795  0.63028319  1
  O  O316  1  0.87509340  0.12507892  0.13762957  1
  O  O317  1  0.88128550  0.12677480  0.63346671  1
  O  O318  1  0.87550261  0.63144930  0.13115788  1
  O  O319  1  0.88231226  0.63184098  0.62403327  1
  O  O320  1  0.25605449  0.25666779  0.11972125  1
  O  O321  1  0.26341451  0.24995175  0.62612692  1
  O  O322  1  0.25178828  0.75711785  0.11666392  1
  O  O323  1  0.25115076  0.76052140  0.61760137  1
  O  O324  1  0.75074438  0.25666708  0.11912321  1
  O  O325  1  0.75154757  0.25370779  0.61280084  1
  O  O326  1  0.75635436  0.75711074  0.12433543  1
  O  O327  1  0.75376276  0.75434553  0.61900140  1
  O  O328  1  0.24275081  0.24294961  0.37579190  1
  O  O329  1  0.24440862  0.24881977  0.88289573  1
  O  O330  1  0.24184571  0.75125046  0.38070443  1
  O  O331  1  0.24466387  0.74448950  0.87969677  1
  O  O332  1  0.74253430  0.24935190  0.38785383  1
  O  O333  1  0.74431584  0.24448160  0.88224134  1
  O  O334  1  0.74323695  0.74478026  0.38028515  1
  O  O335  1  0.73754998  0.75184918  0.87373108  1
  O  O336  1  0.00744804  0.11757225  0.00212633  1
  O  O337  1  0.00335714  0.11982184  0.50539014  1
  O  O338  1  0.00850018  0.61790279  0.00142817  1
  O  O339  1  0.00477247  0.62101419  0.50332970  1
  O  O340  1  0.50730787  0.11832045  0.00150312  1
  O  O341  1  0.50582717  0.11998484  0.50631847  1
  O  O342  1  0.50639334  0.62091078  0.00385511  1
  O  O343  1  0.50550980  0.62094670  0.50356030  1
  O  O344  1  0.49722338  0.38273653  0.49270618  1
  O  O345  1  0.49346024  0.37519202  0.99360435  1
  O  O346  1  0.49509723  0.88009154  0.49471684  1
  O  O347  1  0.49389036  0.88132915  0.99340086  1
  O  O348  1  0.99343484  0.37916433  0.49510971  1
  O  O349  1  0.99608266  0.38004902  0.99480982  1
  O  O350  1  0.99433727  0.87913693  0.49600264  1
  O  O351  1  0.99285290  0.88186007  0.99850087  1
  O  O352  1  0.49301584  0.49564606  0.37883555  1
  O  O353  1  0.49372317  0.49231995  0.87615258  1
  O  O354  1  0.49976420  0.99332278  0.38204512  1
  O  O355  1  0.49519611  0.99445874  0.88011359  1
  O  O356  1  0.99766733  0.49282395  0.38203839  1
  O  O357  1  0.99345763  0.49380612  0.88104058  1
  O  O358  1  0.99778705  0.99158091  0.38303250  1
  O  O359  1  0.99335595  0.99825072  0.88213242  1
  O  O360  1  0.00791178  0.00051368  0.11816766  1
  O  O361  1  0.00104600  0.00622619  0.61922447  1
  O  O362  1  0.00767748  0.50128757  0.11750316  1
  O  O363  1  0.00328875  0.50758077  0.61711939  1
  O  O364  1  0.50682187  0.00064417  0.11794977  1
  O  O365  1  0.50512052  0.00546082  0.61962981  1
  O  O366  1  0.51290321  0.49866433  0.12539275  1
  O  O367  1  0.50482039  0.50661463  0.61853254  1
  O  O368  1  0.24313441  0.37776849  0.24270927  1
  O  O369  1  0.23799599  0.37527813  0.74943126  1
  O  O370  1  0.24411156  0.88011024  0.24435137  1
  O  O371  1  0.25145241  0.88033591  0.73958899  1
  O  O372  1  0.74532679  0.37933277  0.24703903  1
  O  O373  1  0.74190137  0.37679745  0.74800530  1
  O  O374  1  0.74339106  0.87888845  0.24464501  1
  O  O375  1  0.74280721  0.87678884  0.74142282  1
  O  O376  1  0.25443079  0.11999319  0.25534754  1
  O  O377  1  0.25763339  0.11801736  0.75182948  1
  O  O378  1  0.26188728  0.62403057  0.25276599  1
  O  O379  1  0.25612044  0.62637486  0.75591213  1
  O  O380  1  0.75672498  0.11744138  0.25268266  1
  O  O381  1  0.75675271  0.12482747  0.75755301  1
  O  O382  1  0.75509400  0.61984255  0.25572121  1
  O  O383  1  0.75496022  0.61943311  0.75576205  1
  O  O384  1  0.36787104  0.12444802  0.36827394  1
  O  O385  1  0.37487548  0.11848806  0.86855201  1
  O  O386  1  0.37591545  0.61644561  0.36539892  1
  O  O387  1  0.37052955  0.62001554  0.86910894  1
  O  O388  1  0.87132359  0.12154428  0.36557410  1
  O  O389  1  0.87003536  0.11953735  0.87138036  1
  O  O390  1  0.86713340  0.62496357  0.36789644  1
  O  O391  1  0.87680799  0.61133335  0.87441135  1
  O  O392  1  0.13073158  0.38054214  0.12969519  1
  O  O393  1  0.12402405  0.37367600  0.63739093  1
  O  O394  1  0.13101150  0.88023707  0.12988576  1
  O  O395  1  0.13806194  0.87749316  0.62558726  1
  O  O396  1  0.63145462  0.38102568  0.13190538  1
  O  O397  1  0.62335253  0.38186086  0.63220899  1
  O  O398  1  0.62975084  0.88008043  0.13051631  1
  O  O399  1  0.62889775  0.87993718  0.62884302  1
  O  O400  1  0.12367066  0.25758620  0.25691371  1
  O  O401  1  0.12012808  0.25648765  0.75686955  1
  O  O402  1  0.11995007  0.75591597  0.25362458  1
  O  O403  1  0.11517307  0.75074581  0.75469685  1
  O  O404  1  0.62079859  0.25455363  0.25620842  1
  O  O405  1  0.61987224  0.25468166  0.75636977  1
  O  O406  1  0.62025626  0.75549146  0.25533795  1
  O  O407  1  0.61849624  0.75648134  0.75609164  1
  O  O408  1  0.38028285  0.24578645  0.24508814  1
  O  O409  1  0.38158390  0.24496588  0.74418094  1
  O  O410  1  0.38072542  0.74113517  0.24981412  1
  O  O411  1  0.38223665  0.74347454  0.74848832  1
  O  O412  1  0.87409989  0.23816540  0.25007142  1
  O  O413  1  0.88244790  0.24412362  0.75164482  1
  O  O414  1  0.87999080  0.74540106  0.24401606  1
  O  O415  1  0.88413447  0.74921333  0.74368926  1
  O  O416  1  0.38147360  0.50230169  0.48878758  1
  O  O417  1  0.37624201  0.49242345  0.99291482  1
  O  O418  1  0.38242864  0.99469423  0.49825799  1
  O  O419  1  0.37994246  0.99510019  0.99457888  1
  O  O420  1  0.88073220  0.49068685  0.49754586  1
  O  O421  1  0.88090942  0.49360865  0.99319410  1
  O  O422  1  0.88046514  0.99228133  0.49992837  1
  O  O423  1  0.88040552  0.99496546  0.99573074  1
  O  O424  1  0.12092694  0.00487976  0.00455953  1
  O  O425  1  0.11676090  0.00760804  0.50218124  1
  O  O426  1  0.12082737  0.50447280  0.00396228  1
  O  O427  1  0.11830962  0.50751831  0.49922019  1
  O  O428  1  0.61980223  0.00420550  0.00459875  1
  O  O429  1  0.61920805  0.00528224  0.50645628  1
  O  O430  1  0.62522413  0.49699741  0.01263918  1
  O  O431  1  0.61886582  0.50605474  0.50415269  1
  O  O432  1  0.37024075  0.37007043  0.12054026  1
  O  O433  1  0.37738080  0.36323783  0.62632907  1
  O  O434  1  0.36773305  0.87424902  0.11736958  1
  O  O435  1  0.36454939  0.87396742  0.61769266  1
  O  O436  1  0.86832517  0.37517101  0.11917797  1
  O  O437  1  0.87587471  0.37304247  0.61194951  1
  O  O438  1  0.86922196  0.86972256  0.12007047  1
  O  O439  1  0.86826430  0.86858549  0.61912652  1
  O  O440  1  0.12903074  0.13044652  0.37979249  1
  O  O441  1  0.12745941  0.13242327  0.88281313  1
  O  O442  1  0.12558398  0.63275156  0.38007211  1
  O  O443  1  0.13074279  0.62986382  0.88006027  1
  O  O444  1  0.62566442  0.13227470  0.38363123  1
  O  O445  1  0.63039907  0.13046486  0.88080070  1
  O  O446  1  0.62943643  0.63036253  0.37957376  1
  O  O447  1  0.62281126  0.63846021  0.87259384  1
