# generated using pymatgen
data_V3Zn3O8
_symmetry_space_group_name_H-M   'P 1'
_cell_length_a   17.09021685
_cell_length_b   17.09061454
_cell_length_c   17.08888704
_cell_angle_alpha   90.01240054
_cell_angle_beta   89.97414805
_cell_angle_gamma   90.00324438
_symmetry_Int_Tables_number   1
_chemical_formula_structural   V3Zn3O8
_chemical_formula_sum   'V96 Zn96 O256'
_cell_volume   4991.36094576
_cell_formula_units_Z   32
loop_
 _symmetry_equiv_pos_site_id
 _symmetry_equiv_pos_as_xyz
  1  'x, y, z'
loop_
 _atom_site_type_symbol
 _atom_site_label
 _atom_site_symmetry_multiplicity
 _atom_site_fract_x
 _atom_site_fract_y
 _atom_site_fract_z
 _atom_site_occupancy
  V  V0  1  0.75083406  0.25026142  0.00054687  1
  V  V1  1  0.62512906  0.37596011  0.74895495  1
  V  V2  1  0.75008176  0.62417630  0.87486361  1
  V  V3  1  0.74961091  0.12404013  0.37366017  1
  V  V4  1  0.12362572  0.12532429  0.50083330  1
  V  V5  1  0.25008165  0.62544215  0.37527726  1
  V  V6  1  0.62374566  0.12391577  0.49982880  1
  V  V7  1  0.12412740  0.00074806  0.12500372  1
  V  V8  1  0.25043809  0.87560605  0.12430114  1
  V  V9  1  0.37514061  0.50017357  0.87473816  1
  V  V10  1  0.12444676  0.50110274  0.12537820  1
  V  V11  1  0.12441802  0.75094992  0.37565706  1
  V  V12  1  0.62548999  -0.00064153  0.12457993  1
  V  V13  1  -0.00207698  0.74812903  0.24801669  1
  V  V14  1  0.74875753  0.37508719  0.62427232  1
  V  V15  1  0.24962886  0.25011302  -0.00066774  1
  V  V16  1  0.49933447  0.12496552  0.12395262  1
  V  V17  1  0.62497983  0.74991726  0.87373538  1
  V  V18  1  0.37496572  0.87562757  0.49862241  1
  V  V19  1  0.75046765  0.62480545  0.37453461  1
  V  V20  1  0.75061052  0.75035717  0.00030737  1
  V  V21  1  0.62573274  -0.00088280  0.62474997  1
  V  V22  1  0.12486736  0.62482760  0.50054404  1
  V  V23  1  0.87488573  0.25031974  0.12505688  1
  V  V24  1  0.24942898  0.00106257  0.24982263  1
  V  V25  1  0.74894323  0.24957334  0.49860084  1
  V  V26  1  -0.00001543  0.62442077  0.62561681  1
  V  V27  1  0.37480516  0.00080528  0.87378673  1
  V  V28  1  0.12533728  0.49914039  0.62716278  1
  V  V29  1  0.12532036  0.74974727  0.87595220  1
  V  V30  1  0.62425544  0.75165381  0.37359749  1
  V  V31  1  0.12550517  0.37479109  0.25150810  1
  V  V32  1  0.87472134  0.87380851  0.00058587  1
  V  V33  1  0.87412645  0.75115144  0.62303530  1
  V  V34  1  0.12482398  0.87601126  0.25036473  1
  V  V35  1  0.25000989  0.49958308  0.25126934  1
  V  V36  1  0.49953320  -0.00049732  0.49866972  1
  V  V37  1  0.49899668  0.62596399  0.12508277  1
  V  V38  1  0.25083649  0.37456722  0.12512765  1
  V  V39  1  0.24974535  0.75054753  0.50017568  1
  V  V40  1  0.12430343  -0.00049605  0.62539845  1
  V  V41  1  0.37517313  -0.00064168  0.37544087  1
  V  V42  1  0.50053757  0.24948093  0.74994022  1
  V  V43  1  0.62447660  0.25008162  0.37446430  1
  V  V44  1  0.37473026  0.37518342  -0.00030227  1
  V  V45  1  0.24986141  0.12525959  0.87496188  1
  V  V46  1  0.00004993  0.25022610  0.25022599  1
  V  V47  1  0.37548893  0.50039804  0.37647463  1
  V  V48  1  -0.00122843  0.87659539  0.37578112  1
  V  V49  1  0.50031365  0.37595487  0.87525689  1
  V  V50  1  0.62510283  0.50057022  0.62356413  1
  V  V51  1  0.50007100  0.00105819  -0.00079923  1
  V  V52  1  0.24974048  0.12564657  0.37524476  1
  V  V53  1  0.00064976  0.25087698  0.75162622  1
  V  V54  1  0.75000774  0.37511394  0.12461446  1
  V  V55  1  0.50065736  0.87506847  0.87476084  1
  V  V56  1  0.25101834  0.62518626  0.87595557  1
  V  V57  1  0.50013445  0.25095192  0.25006619  1
  V  V58  1  0.87665002  0.49788413  0.87718506  1
  V  V59  1  0.87434991  0.50058189  0.37458739  1
  V  V60  1  0.37589854  0.62636572  0.74932243  1
  V  V61  1  0.37538524  0.25034264  0.62520664  1
  V  V62  1  0.00090660  0.87382224  0.87613794  1
  V  V63  1  0.87402081  0.24817580  0.62494660  1
  V  V64  1  -0.00064427  0.12587698  0.12543636  1
  V  V65  1  0.62554918  0.12597704  -0.00117259  1
  V  V66  1  0.87390781  0.12411050  0.74978203  1
  V  V67  1  0.74917165  0.87483479  0.12418928  1
  V  V68  1  0.12534913  0.12610200  -0.00128901  1
  V  V69  1  0.75017170  0.49982122  0.24983160  1
  V  V70  1  0.25029293  0.87552378  0.62503018  1
  V  V71  1  0.75030482  0.12514685  0.87526372  1
  V  V72  1  0.12499069  0.62339927  0.00251791  1
  V  V73  1  0.37547943  0.74941331  0.62526138  1
  V  V74  1  0.62571829  0.62490218  0.50000663  1
  V  V75  1  0.25107252  0.75075389  0.00060006  1
  V  V76  1  0.00056916  0.37405795  0.37556592  1
  V  V77  1  0.25078930  0.25028077  0.50117322  1
  V  V78  1  0.00149669  0.74947043  0.75161290  1
  V  V79  1  0.74846291  -0.00071431  0.24946362  1
  V  V80  1  0.37497697  0.37578037  0.49946909  1
  V  V81  1  0.62619093  0.50027542  0.12493102  1
  V  V82  1  0.37515002  0.62580516  0.24946214  1
  V  V83  1  0.62459729  0.62462550  -0.00060144  1
  V  V84  1  0.37469063  0.87534334  -0.00015761  1
  V  V85  1  0.87488451  0.62379113  0.75092615  1
  V  V86  1  0.87482218  -0.00023599  0.87441254  1
  V  V87  1  0.87486605  -0.00065208  0.37621966  1
  V  V88  1  0.62644975  0.87475316  0.74892745  1
  V  V89  1  0.50000712  0.50069607  0.49972841  1
  V  V90  1  -0.00006661  -0.00014400  0.00039562  1
  V  V91  1  -0.00006253  0.49901700  0.50092176  1
  V  V92  1  0.24902740  0.49931249  0.74959485  1
  V  V93  1  0.25139999  0.00042401  0.75000651  1
  V  V94  1  0.37409196  0.12497262  0.24909647  1
  V  V95  1  0.87469089  0.37398512  0.50001579  1
  Zn  Zn96  1  0.87800973  0.37512586  -0.00008457  1
  Zn  Zn97  1  0.75112740  -0.00000736  0.74930749  1
  Zn  Zn98  1  -0.00291203  0.12318919  0.62466827  1
  Zn  Zn99  1  0.62390930  0.37603014  0.25038082  1
  Zn  Zn100  1  0.50006551  0.87458349  0.37148067  1
  Zn  Zn101  1  0.12506365  0.25060856  0.37649134  1
  Zn  Zn102  1  0.75004819  0.49898614  0.74973121  1
  Zn  Zn103  1  0.87489225  0.12533667  0.24982490  1
  Zn  Zn104  1  0.37475627  0.25060404  0.12449914  1
  Zn  Zn105  1  0.50149386  0.62672950  0.62589070  1
  Zn  Zn106  1  0.00284237  0.37538684  0.87808585  1
  Zn  Zn107  1  0.50040092  0.49888312  -0.00034447  1
  Zn  Zn108  1  0.12626295  0.87425347  0.75121865  1
  Zn  Zn109  1  0.87520320  0.62466577  0.24792564  1
  Zn  Zn110  1  0.12459883  0.25298232  0.87395912  1
  Zn  Zn111  1  0.37551286  0.75125788  0.12644399  1
  Zn  Zn112  1  0.12563183  0.37421746  0.75123416  1
  Zn  Zn113  1  0.87390592  0.74764942  0.12538831  1
  Zn  Zn114  1  0.37587857  0.12486388  0.74971136  1
  Zn  Zn115  1  0.62660859  0.25166960  0.87513150  1
  Zn  Zn116  1  0.75038857  0.75199159  0.49929168  1
  Zn  Zn117  1  -0.00279545  0.62296031  0.12436635  1
  Zn  Zn118  1  0.49776232  0.75314107  0.25013465  1
  Zn  Zn119  1  0.50012036  0.74857092  0.74806422  1
  Zn  Zn120  1  0.00056228  0.49817185  0.00240528  1
  Zn  Zn121  1  0.50114379  0.37652058  0.37363744  1
  Zn  Zn122  1  0.87463628  0.87535343  0.50193701  1
  Zn  Zn123  1  -0.00191001  -0.00078103  0.50150624  1
  Zn  Zn124  1  0.75171851  0.87418594  0.62353608  1
  Zn  Zn125  1  0.24777925  0.37502357  0.62689712  1
  Zn  Zn126  1  0.62206626  0.87400790  0.24917730  1
  Zn  Zn127  1  0.49988266  0.12440505  0.62528108  1
  Zn  Zn128  1  0.18609304  0.18971947  0.18627978  1
  Zn  Zn129  1  0.18808025  0.18608492  0.68830684  1
  Zn  Zn130  1  0.18714403  0.68820812  0.18732113  1
  Zn  Zn131  1  0.18835449  0.68655590  0.68860335  1
  Zn  Zn132  1  0.68730402  0.18658757  0.18702909  1
  Zn  Zn133  1  0.68763232  0.18661156  0.68741696  1
  Zn  Zn134  1  0.68739059  0.68702819  0.18879451  1
  Zn  Zn135  1  0.68917600  0.68596171  0.68805118  1
  Zn  Zn136  1  0.31309664  0.31243009  0.31446976  1
  Zn  Zn137  1  0.31176844  0.31381077  0.81292663  1
  Zn  Zn138  1  0.31282617  0.81234842  0.31142532  1
  Zn  Zn139  1  0.31246660  0.81300589  0.81180530  1
  Zn  Zn140  1  0.81243232  0.31346379  0.31034834  1
  Zn  Zn141  1  0.81257770  0.31243211  0.81241942  1
  Zn  Zn142  1  0.81053774  0.81387714  0.31196618  1
  Zn  Zn143  1  0.81263766  0.81171888  0.81189443  1
  Zn  Zn144  1  0.18809583  0.43664084  0.43939378  1
  Zn  Zn145  1  0.18573558  0.43591273  0.93615314  1
  Zn  Zn146  1  0.18768503  0.93825327  0.43761217  1
  Zn  Zn147  1  0.18727595  0.93804321  0.93726902  1
  Zn  Zn148  1  0.68592160  0.43660354  0.43561210  1
  Zn  Zn149  1  0.68871003  0.43733955  0.93797321  1
  Zn  Zn150  1  0.69057072  0.93308712  0.43996669  1
  Zn  Zn151  1  0.68837497  0.93830287  0.93713295  1
  Zn  Zn152  1  0.31301734  0.06315834  0.06190387  1
  Zn  Zn153  1  0.31231844  0.06396931  0.56306946  1
  Zn  Zn154  1  0.31280513  0.56094710  0.06239927  1
  Zn  Zn155  1  0.31232348  0.56306829  0.56423180  1
  Zn  Zn156  1  0.81315325  0.06302100  0.06240149  1
  Zn  Zn157  1  0.80978613  0.06272806  0.56170168  1
  Zn  Zn158  1  0.81397558  0.56422427  0.06341047  1
  Zn  Zn159  1  0.81112521  0.56322229  0.56164846  1
  Zn  Zn160  1  0.43728160  0.43849826  0.18689618  1
  Zn  Zn161  1  0.43767144  0.43835854  0.68668154  1
  Zn  Zn162  1  0.43832522  0.93727036  0.18788627  1
  Zn  Zn163  1  0.43901303  0.93602045  0.68692355  1
  Zn  Zn164  1  0.93718207  0.43696647  0.18738096  1
  Zn  Zn165  1  0.93640201  0.43567401  0.68937767  1
  Zn  Zn166  1  0.93522211  0.93628388  0.18862828  1
  Zn  Zn167  1  0.94011595  0.93601047  0.69045463  1
  Zn  Zn168  1  0.06127394  0.06388868  0.31295682  1
  Zn  Zn169  1  0.06195275  0.06437806  0.81169777  1
  Zn  Zn170  1  0.06263843  0.56235920  0.31300921  1
  Zn  Zn171  1  0.06247703  0.56268527  0.81401459  1
  Zn  Zn172  1  0.56209578  0.06193992  0.31184279  1
  Zn  Zn173  1  0.56326142  0.06366332  0.81249404  1
  Zn  Zn174  1  0.56289563  0.56397501  0.31156716  1
  Zn  Zn175  1  0.56153099  0.56190869  0.81057954  1
  Zn  Zn176  1  0.43822349  0.18620435  0.43704322  1
  Zn  Zn177  1  0.43581681  0.18895214  0.93638581  1
  Zn  Zn178  1  0.43962305  0.68719041  0.43842529  1
  Zn  Zn179  1  0.43837460  0.68852417  0.93761820  1
  Zn  Zn180  1  0.93743852  0.18650322  0.43662339  1
  Zn  Zn181  1  0.93647821  0.18758729  0.93721264  1
  Zn  Zn182  1  0.93803949  0.68650916  0.43646914  1
  Zn  Zn183  1  0.93821964  0.68495390  0.93955835  1
  Zn  Zn184  1  0.06210485  0.31444875  0.06154844  1
  Zn  Zn185  1  0.06177887  0.31228645  0.56677617  1
  Zn  Zn186  1  0.06367846  0.81178222  0.06304846  1
  Zn  Zn187  1  0.06002641  0.81393221  0.56180705  1
  Zn  Zn188  1  0.56367404  0.31303589  0.06244496  1
  Zn  Zn189  1  0.56108459  0.31429802  0.56117085  1
  Zn  Zn190  1  0.56314386  0.81176341  0.06145422  1
  Zn  Zn191  1  0.56050806  0.81180726  0.55997474  1
  O  O192  1  0.11954263  0.11917699  0.11915599  1
  O  O193  1  0.12663258  0.11515123  0.61605686  1
  O  O194  1  0.12630150  0.61814001  0.11955873  1
  O  O195  1  0.11915223  0.62055722  0.61930521  1
  O  O196  1  0.61926880  0.11869864  0.11822160  1
  O  O197  1  0.62398309  0.11520791  0.61906969  1
  O  O198  1  0.61756877  0.62047213  0.11950211  1
  O  O199  1  0.62557746  0.61872366  0.61837497  1
  O  O200  1  0.37599045  0.38287331  0.38183949  1
  O  O201  1  0.38048679  0.38094861  0.88001143  1
  O  O202  1  0.37318860  0.88243716  0.38153602  1
  O  O203  1  0.38047636  0.88109140  0.88009917  1
  O  O204  1  0.88022688  0.38013464  0.38144219  1
  O  O205  1  0.87474272  0.38732365  0.87506612  1
  O  O206  1  0.87984804  0.88526942  0.37471341  1
  O  O207  1  0.88092241  0.87955639  0.88031062  1
  O  O208  1  0.25488513  0.00577780  0.36900460  1
  O  O209  1  0.25532639  0.00440965  0.86992963  1
  O  O210  1  0.25483339  0.50641911  0.37107040  1
  O  O211  1  0.25586007  0.50673014  0.86959677  1
  O  O212  1  0.75646035  0.00399042  0.37035908  1
  O  O213  1  0.75743314  0.00673498  0.87429499  1
  O  O214  1  0.75495236  0.50429157  0.37016825  1
  O  O215  1  0.75867897  0.50661333  0.87328748  1
  O  O216  1  0.24502805  0.49437147  0.13244730  1
  O  O217  1  0.24290257  0.50082697  0.63167889  1
  O  O218  1  0.24371050  0.99571924  0.13027775  1
  O  O219  1  0.24349742  0.99549150  0.62940761  1
  O  O220  1  0.74537397  0.49540447  0.13004621  1
  O  O221  1  0.74393418  0.49237558  0.62501073  1
  O  O222  1  0.74490503  0.99527202  0.12870200  1
  O  O223  1  0.73665564  0.99795828  0.62666850  1
  O  O224  1  0.00621072  0.36987980  0.25647003  1
  O  O225  1  -0.00096603  0.36143887  0.75117382  1
  O  O226  1  0.00608221  0.86827901  0.25545660  1
  O  O227  1  0.00423542  0.86740395  0.75895704  1
  O  O228  1  0.50037688  0.36282513  0.25046493  1
  O  O229  1  0.50459459  0.36720231  0.75441942  1
  O  O230  1  0.50351074  0.87153310  0.25280891  1
  O  O231  1  0.51106171  0.87407004  0.75621434  1
  O  O232  1  0.49425257  0.13203570  0.24432617  1
  O  O233  1  0.49871427  0.13735713  0.74839581  1
  O  O234  1  0.49367033  0.62548233  0.23968954  1
  O  O235  1  0.49148875  0.62804033  0.74727981  1
  O  O236  1  0.99980874  0.13194620  0.24307494  1
  O  O237  1  0.99211469  0.13275869  0.74769470  1
  O  O238  1  1.00108557  0.63771922  0.25114622  1
  O  O239  1  0.99478106  0.63064937  0.74463790  1
  O  O240  1  0.36817177  0.25707615  0.00183783  1
  O  O241  1  0.37185193  0.25423173  0.50711867  1
  O  O242  1  0.36842925  0.75775345  0.00106171  1
  O  O243  1  0.36801774  0.75497327  0.50405827  1
  O  O244  1  0.86798926  0.24972507  0.00755021  1
  O  O245  1  0.86875756  0.25420285  0.50426623  1
  O  O246  1  0.86828852  0.75666728  -0.00024786  1
  O  O247  1  0.87734976  0.74874899  0.51300351  1
  O  O248  1  0.13075381  0.23978994  0.50257197  1
  O  O249  1  0.13172572  0.24252289  0.99945300  1
  O  O250  1  0.12961224  0.74485619  0.49536342  1
  O  O251  1  0.13177326  0.74450796  0.99531412  1
  O  O252  1  0.62933285  0.24440167  0.49494386  1
  O  O253  1  0.63191580  0.24284876  0.99897873  1
  O  O254  1  0.62618680  0.74325008  0.49118079  1
  O  O255  1  0.63083899  0.74469966  0.99266016  1
  O  O256  1  0.49898954  0.24356569  0.13436155  1
  O  O257  1  0.49224978  0.25059431  0.63307367  1
  O  O258  1  0.49941400  0.73695546  0.12487590  1
  O  O259  1  0.49049592  0.74837531  0.62641051  1
  O  O260  1  0.99509557  0.24503095  0.13055358  1
  O  O261  1  0.99159250  0.24666650  0.63314287  1
  O  O262  1  1.00077452  0.75075448  0.13803251  1
  O  O263  1  0.99423175  0.74396152  0.63097264  1
  O  O264  1  0.00142292  0.25656967  0.36949971  1
  O  O265  1  -0.00044775  0.24914527  0.86300655  1
  O  O266  1  0.00574375  0.75577364  0.36807721  1
  O  O267  1  0.00560133  0.75399595  0.87118809  1
  O  O268  1  0.50501103  0.24880489  0.36467876  1
  O  O269  1  0.50008479  0.25647158  0.86435869  1
  O  O270  1  0.51134185  0.75012746  0.37366084  1
  O  O271  1  0.50747854  0.75788472  0.87379245  1
  O  O272  1  0.24243518  0.12986412  0.49522815  1
  O  O273  1  0.24486947  0.12953487  0.99518855  1
  O  O274  1  0.24427842  0.63118637  0.49453189  1
  O  O275  1  0.24585338  0.63098008  0.99511661  1
  O  O276  1  0.74294573  0.13072169  0.49328490  1
  O  O277  1  0.74472219  0.13004871  0.99536105  1
  O  O278  1  0.74332646  0.62660812  0.49196185  1
  O  O279  1  0.74346709  0.63136154  0.99450806  1
  O  O280  1  0.25510117  0.36962405  0.00538840  1
  O  O281  1  0.25680359  0.36809237  0.50292067  1
  O  O282  1  0.25513995  0.87120395  0.00477968  1
  O  O283  1  0.25487800  0.86976314  0.50496946  1
  O  O284  1  0.75205242  0.36767680  0.00693983  1
  O  O285  1  0.75529641  0.36851253  0.50408425  1
  O  O286  1  0.75531497  0.87001358  0.00388185  1
  O  O287  1  0.75704270  0.86918640  0.50622664  1
  O  O288  1  0.13172005  0.49455942  0.24686479  1
  O  O289  1  0.13148278  0.50272814  0.74365682  1
  O  O290  1  0.12987745  0.99573546  0.24505113  1
  O  O291  1  0.13101559  1.00006109  0.73962544  1
  O  O292  1  0.63169540  0.49931127  0.24308785  1
  O  O293  1  0.62667580  0.49322909  0.74207877  1
  O  O294  1  0.63092653  0.99981556  0.24209251  1
  O  O295  1  0.62453444  0.99204693  0.74183738  1
  O  O296  1  0.36835004  0.00596589  0.25491918  1
  O  O297  1  0.37019683  0.00096510  0.75558646  1
  O  O298  1  0.36885786  0.50557208  0.25633607  1
  O  O299  1  0.36941636  0.50598966  0.75489863  1
  O  O300  1  0.86843912  0.00137971  0.26022543  1
  O  O301  1  0.87419415  0.00535406  0.75632439  1
  O  O302  1  0.86875108  0.50010223  0.25813453  1
  O  O303  1  0.87326486  0.50640914  0.75780765  1
  O  O304  1  0.11857938  0.37409039  0.37018115  1
  O  O305  1  0.12113035  0.37118309  0.86913060  1
  O  O306  1  0.12046386  0.87090421  0.36969254  1
  O  O307  1  0.11881944  0.86795600  0.87558312  1
  O  O308  1  0.62209927  0.36542525  0.37183184  1
  O  O309  1  0.61904492  0.37369231  0.86772593  1
  O  O310  1  0.62460705  0.86334444  0.37455010  1
  O  O311  1  0.62098354  0.87125190  0.86751475  1
  O  O312  1  0.38142876  0.12563227  0.13129426  1
  O  O313  1  0.37809431  0.13778938  0.62617080  1
  O  O314  1  0.38349730  0.62453741  0.12976390  1
  O  O315  1  0.37456470  0.63248184  0.63151845  1
  O  O316  1  0.88222378  0.13088959  0.12680432  1
  O  O317  1  0.87372180  0.13036948  0.63060341  1
  O  O318  1  0.87930082  0.63006946  0.12982250  1
  O  O319  1  0.88112668  0.63092645  0.63022902  1
  O  O320  1  0.25183152  0.25693331  0.11852151  1
  O  O321  1  0.26042632  0.25029306  0.62069926  1
  O  O322  1  0.25039155  0.75825759  0.11866217  1
  O  O323  1  0.25396973  0.75569132  0.61892699  1
  O  O324  1  0.75482519  0.25427548  0.12059699  1
  O  O325  1  0.75389890  0.25475590  0.61759430  1
  O  O326  1  0.74890723  0.75663422  0.11772741  1
  O  O327  1  0.76415619  0.74887590  0.62537837  1
  O  O328  1  0.24841932  0.24293159  0.38263901  1
  O  O329  1  0.24958822  0.24268092  0.88102789  1
  O  O330  1  0.24357928  0.74534210  0.38036680  1
  O  O331  1  0.24532898  0.74517977  0.88102705  1
  O  O332  1  0.74517780  0.24435027  0.37948502  1
  O  O333  1  0.74955975  0.24300386  0.88196856  1
  O  O334  1  0.74170654  0.74327910  0.37517113  1
  O  O335  1  0.74453538  0.74462563  0.88034146  1
  O  O336  1  0.00520533  0.11891612  0.00540008  1
  O  O337  1  0.01203117  0.12286685  0.50211151  1
  O  O338  1  0.01141089  0.62283305  0.00304942  1
  O  O339  1  0.00616508  0.61849584  0.50503145  1
  O  O340  1  0.50467948  0.12052578  0.00374238  1
  O  O341  1  0.50672426  0.11789532  0.50172105  1
  O  O342  1  0.50541432  0.62340539  0.00846830  1
  O  O343  1  0.50742366  0.61759540  0.50218348  1
  O  O344  1  0.49266472  0.38213997  0.49671955  1
  O  O345  1  0.49367207  0.37561169  0.99363193  1
  O  O346  1  0.49172085  0.88233871  0.49658746  1
  O  O347  1  0.49517395  0.88166242  0.99445771  1
  O  O348  1  0.99418088  0.37930758  0.49586279  1
  O  O349  1  0.99575190  0.37938074  0.99654792  1
  O  O350  1  0.99661012  0.87884215  0.49094678  1
  O  O351  1  0.99510701  0.88017922  0.99581822  1
  O  O352  1  0.49295745  0.50020281  0.38072997  1
  O  O353  1  0.49292390  0.49328931  0.87581621  1
  O  O354  1  0.49235025  0.99991038  0.38103773  1
  O  O355  1  0.49536158  0.99518495  0.88023012  1
  O  O356  1  0.99517429  0.49424417  0.38149475  1
  O  O357  1  0.98770562  0.50093369  0.87600565  1
  O  O358  1  0.99047282  0.99534517  0.37399699  1
  O  O359  1  0.99522888  0.99452082  0.88098997  1
  O  O360  1  0.00478025  0.00455511  0.12034635  1
  O  O361  1  0.01188710  0.00122608  0.62391209  1
  O  O362  1  0.01055685  0.50181199  0.12619642  1
  O  O363  1  0.00371366  0.50531691  0.62012648  1
  O  O364  1  0.50498451  0.00596142  0.11811900  1
  O  O365  1  0.51002589  0.00088008  0.61902553  1
  O  O366  1  0.50575636  0.51058045  0.12376675  1
  O  O367  1  0.50717650  0.50126669  0.61737910  1
  O  O368  1  0.24574207  0.38019625  0.24633611  1
  O  O369  1  0.24913711  0.38446815  0.74729417  1
  O  O370  1  0.24414626  0.88160292  0.24485881  1
  O  O371  1  0.24751015  0.88205517  0.74307056  1
  O  O372  1  0.74731791  0.38149211  0.24271099  1
  O  O373  1  0.74287427  0.37401817  0.74155732  1
  O  O374  1  0.74669179  0.88196129  0.24188638  1
  O  O375  1  0.73739702  0.87725428  0.74862996  1
  O  O376  1  0.25330955  0.12033634  0.25470085  1
  O  O377  1  0.25301360  0.11812627  0.75665866  1
  O  O378  1  0.25410707  0.61939119  0.25621563  1
  O  O379  1  0.25605495  0.62003436  0.75719966  1
  O  O380  1  0.75118895  0.11765606  0.25645485  1
  O  O381  1  0.75585660  0.12396436  0.75704886  1
  O  O382  1  0.75153132  0.61750648  0.25722021  1
  O  O383  1  0.75713193  0.62302527  0.75796951  1
  O  O384  1  0.36868854  0.11883928  0.36971660  1
  O  O385  1  0.36840797  0.11741558  0.87405293  1
  O  O386  1  0.36865174  0.62001151  0.37066464  1
  O  O387  1  0.36988629  0.62058042  0.87047049  1
  O  O388  1  0.86871136  0.11593964  0.37365403  1
  O  O389  1  0.86967856  0.11825827  0.86996706  1
  O  O390  1  0.86891712  0.61762248  0.37423801  1
  O  O391  1  0.86975972  0.61859884  0.87040768  1
  O  O392  1  0.13191362  0.38103079  0.13216922  1
  O  O393  1  0.12673302  0.38416640  0.62842026  1
  O  O394  1  0.13057340  0.88208226  0.13027753  1
  O  O395  1  0.13122653  0.88458903  0.62413495  1
  O  O396  1  0.63152450  0.38245443  0.12622178  1
  O  O397  1  0.63005654  0.38041310  0.62830008  1
  O  O398  1  0.63138483  0.88261218  0.12276864  1
  O  O399  1  0.62389130  0.88207052  0.63288293  1
  O  O400  1  0.11876754  0.25720091  0.25246526  1
  O  O401  1  0.11280702  0.24822756  0.74898763  1
  O  O402  1  0.11866110  0.75653126  0.25652181  1
  O  O403  1  0.11953968  0.74989053  0.75760147  1
  O  O404  1  0.61434017  0.24834005  0.25507321  1
  O  O405  1  0.61463985  0.25623676  0.74857744  1
  O  O406  1  0.62287741  0.74985768  0.26179310  1
  O  O407  1  0.62457356  0.75914211  0.75471565  1
  O  O408  1  0.38386667  0.24348630  0.24946022  1
  O  O409  1  0.38404877  0.25131323  0.74159000  1
  O  O410  1  0.37562776  0.74117555  0.24688758  1
  O  O411  1  0.37491048  0.74470457  0.74349786  1
  O  O412  1  0.88211300  0.24823639  0.24356000  1
  O  O413  1  0.88069049  0.24375544  0.74419350  1
  O  O414  1  0.88738765  0.75055726  0.25069052  1
  O  O415  1  0.88172997  0.74401834  0.74361218  1
  O  O416  1  0.37921121  0.49629237  0.49548829  1
  O  O417  1  0.37567027  0.49315515  0.99219752  1
  O  O418  1  0.37864261  0.99581630  0.49542084  1
  O  O419  1  0.38054568  0.99490326  0.99376638  1
  O  O420  1  0.88080752  0.49370904  0.49543217  1
  O  O421  1  0.87581768  0.50067308  0.98854102  1
  O  O422  1  0.87569555  1.00079960  0.48774775  1
  O  O423  1  0.88119604  0.99420286  0.99448733  1
  O  O424  1  0.11925811  0.00525477  0.00582969  1
  O  O425  1  0.12702248  0.00887871  0.50881503  1
  O  O426  1  0.12794633  0.50729368  0.00799878  1
  O  O427  1  0.11943617  0.50573189  0.50582272  1
  O  O428  1  0.61903815  0.00599588  0.00432030  1
  O  O429  1  0.62038965  0.00322183  0.50689214  1
  O  O430  1  0.62382328  0.50770167  0.00658833  1
  O  O431  1  0.61988324  0.50479620  0.50369852  1
  O  O432  1  0.36804618  0.37511655  0.11852933  1
  O  O433  1  0.37448941  0.36446878  0.61878520  1
  O  O434  1  0.36804436  0.87574547  0.11743622  1
  O  O435  1  0.36902110  0.87032921  0.61844606  1
  O  O436  1  0.86737462  0.36812473  0.12429827  1
  O  O437  1  0.86871817  0.36864073  0.61864645  1
  O  O438  1  0.86765004  0.87339757  0.11762255  1
  O  O439  1  0.87636175  0.86306340  0.62706295  1
  O  O440  1  0.13082474  0.12467994  0.38570500  1
  O  O441  1  0.13211924  0.12513604  0.88220587  1
  O  O442  1  0.13057498  0.63055583  0.38141345  1
  O  O443  1  0.13204549  0.63023707  0.88202447  1
  O  O444  1  0.63041608  0.12945231  0.38075008  1
  O  O445  1  0.63161250  0.12689942  0.88144998  1
  O  O446  1  0.63080478  0.63165758  0.38021328  1
  O  O447  1  0.62957255  0.62979339  0.87899325  1
