# generated using pymatgen
data_V3Zn3O8
_symmetry_space_group_name_H-M   'P 1'
_cell_length_a   17.08855332
_cell_length_b   17.08760187
_cell_length_c   17.08733665
_cell_angle_alpha   89.99912139
_cell_angle_beta   90.00069753
_cell_angle_gamma   89.99777289
_symmetry_Int_Tables_number   1
_chemical_formula_structural   V3Zn3O8
_chemical_formula_sum   'V96 Zn96 O256'
_cell_volume   4989.54323292
_cell_formula_units_Z   32
loop_
 _symmetry_equiv_pos_site_id
 _symmetry_equiv_pos_as_xyz
  1  'x, y, z'
loop_
 _atom_site_type_symbol
 _atom_site_label
 _atom_site_symmetry_multiplicity
 _atom_site_fract_x
 _atom_site_fract_y
 _atom_site_fract_z
 _atom_site_occupancy
  V  V0  1  0.00007728  -0.00093182  0.50086309  1
  V  V1  1  0.50108820  0.37537599  0.87482225  1
  V  V2  1  0.12346955  0.75201280  0.87390896  1
  V  V3  1  -0.00047806  0.37569384  0.87476255  1
  V  V4  1  0.37401441  0.62487892  0.75041044  1
  V  V5  1  0.50000287  0.25015499  0.25039917  1
  V  V6  1  0.37537239  0.49942258  0.37525102  1
  V  V7  1  -0.00011163  0.12602664  0.62544362  1
  V  V8  1  0.12437070  0.62478418  0.49948662  1
  V  V9  1  0.12487465  0.37603620  0.74939399  1
  V  V10  1  -0.00016959  0.24910803  0.74837209  1
  V  V11  1  0.87492986  0.25000666  0.12537491  1
  V  V12  1  0.87498330  0.12395190  0.25019741  1
  V  V13  1  0.25051538  0.12440971  0.37439027  1
  V  V14  1  0.62471209  0.24978567  0.37527084  1
  V  V15  1  -0.00033364  0.87389873  0.37510267  1
  V  V16  1  0.25092883  0.25056478  0.50123192  1
  V  V17  1  0.62339429  0.74929266  0.87569029  1
  V  V18  1  0.62408314  -0.00025451  0.62495253  1
  V  V19  1  -0.00020764  0.37433788  0.37421788  1
  V  V20  1  0.37551257  0.25083325  0.12445197  1
  V  V21  1  0.62612754  0.37488031  0.74918966  1
  V  V22  1  0.12553325  0.37534294  0.24903815  1
  V  V23  1  0.50069398  0.12463465  0.12488285  1
  V  V24  1  0.24968215  0.62477348  0.37546604  1
  V  V25  1  0.75066741  -0.00010137  0.24999143  1
  V  V26  1  0.37502515  0.37494973  -0.00012906  1
  V  V27  1  0.74832139  0.62682635  0.37712877  1
  V  V28  1  0.75021622  0.37435601  0.12471391  1
  V  V29  1  0.87599215  0.62516568  0.24903635  1
  V  V30  1  0.75087194  0.49952274  0.74957411  1
  V  V31  1  0.62478898  0.37481080  0.24970928  1
  V  V32  1  0.37503085  0.25089261  0.62492390  1
  V  V33  1  0.75048825  -0.00157852  0.75033169  1
  V  V34  1  0.12573426  0.25120575  0.87526686  1
  V  V35  1  0.12646204  -0.00048978  0.62575281  1
  V  V36  1  0.75033765  0.37394019  0.62353610  1
  V  V37  1  0.87342145  0.62415312  0.75112701  1
  V  V38  1  0.37453091  0.75044646  0.62496511  1
  V  V39  1  0.62399153  0.50091495  0.62417396  1
  V  V40  1  0.87299457  0.87456716  0.49997259  1
  V  V41  1  0.87286989  0.75046399  0.62474134  1
  V  V42  1  0.00076110  0.49963598  0.49898243  1
  V  V43  1  -0.00030991  0.75189895  0.75038766  1
  V  V44  1  0.75058300  0.24916207  -0.00065858  1
  V  V45  1  0.87437293  0.37401892  0.49966899  1
  V  V46  1  0.12588718  0.49919957  0.62567348  1
  V  V47  1  0.37389099  0.87482512  0.50043288  1
  V  V48  1  0.12543681  0.50050566  0.12517296  1
  V  V49  1  0.62495047  0.49974773  0.12494792  1
  V  V50  1  0.24991420  0.62449943  0.87355498  1
  V  V51  1  0.00136391  0.12513087  0.12492204  1
  V  V52  1  0.74990965  0.75021369  0.00138269  1
  V  V53  1  -0.00074616  -0.00094726  -0.00177572  1
  V  V54  1  0.49950309  0.50099229  0.49998951  1
  V  V55  1  0.24926715  0.74962045  0.50078414  1
  V  V56  1  0.62440946  0.62506271  0.00040030  1
  V  V57  1  0.12398071  0.62536165  -0.00087360  1
  V  V58  1  0.49992078  0.87456485  0.87543057  1
  V  V59  1  0.37354085  0.75125880  0.12455699  1
  V  V60  1  -0.00047992  0.62537201  0.12519714  1
  V  V61  1  0.62432687  0.00006089  0.12503410  1
  V  V62  1  0.50016772  0.24984236  0.74903196  1
  V  V63  1  0.87594344  0.37536910  -0.00054119  1
  V  V64  1  0.12465776  0.12432568  0.49930312  1
  V  V65  1  0.37364030  0.87472474  0.00189300  1
  V  V66  1  0.37481135  0.00065761  0.37529382  1
  V  V67  1  0.49998984  0.00047758  0.00038250  1
  V  V68  1  0.37450347  0.62509262  0.24959182  1
  V  V69  1  0.49943077  0.62512297  0.12580598  1
  V  V70  1  0.74938486  0.12509147  0.37455789  1
  V  V71  1  -0.00007512  0.74975111  0.24971614  1
  V  V72  1  0.37751636  0.12505774  0.75039199  1
  V  V73  1  0.00036650  0.24923016  0.25001485  1
  V  V74  1  0.49987910  0.87439073  0.37488805  1
  V  V75  1  0.12517112  0.24912753  0.37480102  1
  V  V76  1  0.50015676  0.50016173  -0.00046497  1
  V  V77  1  0.37469845  0.12487778  0.25081777  1
  V  V78  1  0.62674652  0.25004870  0.87415942  1
  V  V79  1  -0.00076942  0.49963321  -0.00108370  1
  V  V80  1  0.50050134  0.00029498  0.50087218  1
  V  V81  1  0.12624356  0.87598326  0.24934668  1
  V  V82  1  0.49892582  0.37585030  0.37542903  1
  V  V83  1  0.37584660  0.00040147  0.87487058  1
  V  V84  1  0.74934566  0.24982852  0.49904082  1
  V  V85  1  0.62456754  0.87400132  0.25134157  1
  V  V86  1  0.25057071  -0.00014307  0.74974002  1
  V  V87  1  0.75026780  0.49955766  0.25000276  1
  V  V88  1  0.49982377  0.62472591  0.62498120  1
  V  V89  1  0.49960541  0.75042309  0.75082814  1
  V  V90  1  0.12752039  0.12672046  -0.00004913  1
  V  V91  1  0.75243879  0.12358019  0.87471263  1
  V  V92  1  0.75062748  0.87465795  0.12514566  1
  V  V93  1  0.87505151  0.49914083  0.37468755  1
  V  V94  1  0.24956423  0.50000916  0.24915002  1
  V  V95  1  0.50001392  0.75032236  0.25146643  1
  Zn  Zn96  1  0.87642726  -0.00329355  0.87326586  1
  Zn  Zn97  1  0.12465675  0.74921713  0.37651692  1
  Zn  Zn98  1  0.87561649  0.75126197  0.12397769  1
  Zn  Zn99  1  0.37300722  0.37544641  0.50141301  1
  Zn  Zn100  1  0.25284119  0.12780759  0.87679649  1
  Zn  Zn101  1  0.50125314  0.12648577  0.62270230  1
  Zn  Zn102  1  0.25161608  0.49797957  0.74899598  1
  Zn  Zn103  1  0.12466544  0.87608065  0.74909745  1
  Zn  Zn104  1  0.12804341  0.00007355  0.12490021  1
  Zn  Zn105  1  0.24978548  0.87649500  0.12474575  1
  Zn  Zn106  1  -0.00028264  0.62483267  0.62289323  1
  Zn  Zn107  1  0.74699703  0.75067878  0.50113679  1
  Zn  Zn108  1  0.87418360  -0.00033740  0.37488756  1
  Zn  Zn109  1  0.87354029  0.49959703  0.87467813  1
  Zn  Zn110  1  0.25068342  0.25146881  -0.00024924  1
  Zn  Zn111  1  0.24819418  0.75258665  0.00181194  1
  Zn  Zn112  1  0.74881380  0.62315228  0.87651472  1
  Zn  Zn113  1  0.37484383  0.50011635  0.87314486  1
  Zn  Zn114  1  0.62445372  0.12527572  0.49963761  1
  Zn  Zn115  1  0.87395473  0.24804341  0.62523040  1
  Zn  Zn116  1  0.62527120  0.87364663  0.75060021  1
  Zn  Zn117  1  0.62583824  0.12456461  0.00053650  1
  Zn  Zn118  1  0.62492340  0.62827402  0.50099622  1
  Zn  Zn119  1  0.25064180  0.37451547  0.62555754  1
  Zn  Zn120  1  0.87695095  0.87437174  -0.00038859  1
  Zn  Zn121  1  0.24836821  0.87411907  0.62474017  1
  Zn  Zn122  1  0.24923374  -0.00031539  0.24874770  1
  Zn  Zn123  1  -0.00136973  0.87789598  0.87543632  1
  Zn  Zn124  1  0.74846990  0.87501592  0.62584614  1
  Zn  Zn125  1  0.87688992  0.12467840  0.74801519  1
  Zn  Zn126  1  0.62441519  0.75020528  0.37886334  1
  Zn  Zn127  1  0.24948151  0.37499016  0.12361744  1
  Zn  Zn128  1  0.19082680  0.18906289  0.18548227  1
  Zn  Zn129  1  0.18839554  0.18651558  0.68795030  1
  Zn  Zn130  1  0.18726422  0.69036275  0.18763483  1
  Zn  Zn131  1  0.18765348  0.68511644  0.68602984  1
  Zn  Zn132  1  0.68714200  0.18654024  0.18806632  1
  Zn  Zn133  1  0.68769642  0.18555488  0.68663314  1
  Zn  Zn134  1  0.68662018  0.68823194  0.18900208  1
  Zn  Zn135  1  0.68649622  0.68681083  0.68890749  1
  Zn  Zn136  1  0.31192855  0.31287730  0.31264713  1
  Zn  Zn137  1  0.31051465  0.31259274  0.81278210  1
  Zn  Zn138  1  0.31152104  0.81166948  0.31419676  1
  Zn  Zn139  1  0.31260395  0.81385469  0.81300182  1
  Zn  Zn140  1  0.81242715  0.31125169  0.31263845  1
  Zn  Zn141  1  0.81527147  0.31127328  0.81105883  1
  Zn  Zn142  1  0.81353392  0.81120208  0.31147779  1
  Zn  Zn143  1  0.81211000  0.81530684  0.81803325  1
  Zn  Zn144  1  0.18864878  0.43624446  0.43799427  1
  Zn  Zn145  1  0.18755757  0.43846251  0.93706930  1
  Zn  Zn146  1  0.18797646  0.93638226  0.43560254  1
  Zn  Zn147  1  0.18854282  0.93846933  0.93674930  1
  Zn  Zn148  1  0.68579659  0.43872816  0.43837983  1
  Zn  Zn149  1  0.68916406  0.43815106  0.93631879  1
  Zn  Zn150  1  0.68738277  0.93807123  0.43699189  1
  Zn  Zn151  1  0.68545360  0.93596952  0.93846777  1
  Zn  Zn152  1  0.31137734  0.06025649  0.06570349  1
  Zn  Zn153  1  0.31351060  0.06442305  0.56387942  1
  Zn  Zn154  1  0.31122731  0.56339204  0.06053742  1
  Zn  Zn155  1  0.31221626  0.56321279  0.56198338  1
  Zn  Zn156  1  0.81367109  0.06173330  0.06256252  1
  Zn  Zn157  1  0.81232704  0.06346470  0.56280308  1
  Zn  Zn158  1  0.81307809  0.56281268  0.06302314  1
  Zn  Zn159  1  0.81277797  0.56137372  0.56276817  1
  Zn  Zn160  1  0.43725858  0.43776172  0.18732413  1
  Zn  Zn161  1  0.43616285  0.43743495  0.68812128  1
  Zn  Zn162  1  0.43683198  0.93800619  0.18797008  1
  Zn  Zn163  1  0.43776870  0.93608038  0.68706398  1
  Zn  Zn164  1  0.93819980  0.43814366  0.18672506  1
  Zn  Zn165  1  0.93858402  0.43594872  0.68556574  1
  Zn  Zn166  1  0.93799258  0.93776219  0.18377823  1
  Zn  Zn167  1  0.93650245  0.93809196  0.68711218  1
  Zn  Zn168  1  0.06107188  0.05966098  0.31406347  1
  Zn  Zn169  1  0.06472637  0.06465223  0.81366251  1
  Zn  Zn170  1  0.06325064  0.56268200  0.31269175  1
  Zn  Zn171  1  0.06035378  0.56363083  0.81149609  1
  Zn  Zn172  1  0.56243179  0.06189904  0.31269080  1
  Zn  Zn173  1  0.56434657  0.06310481  0.81230983  1
  Zn  Zn174  1  0.56309777  0.56260264  0.31257822  1
  Zn  Zn175  1  0.56248010  0.56281446  0.81241554  1
  Zn  Zn176  1  0.43789563  0.18683042  0.43940845  1
  Zn  Zn177  1  0.43924087  0.18738790  0.93730217  1
  Zn  Zn178  1  0.43669249  0.68729863  0.43834526  1
  Zn  Zn179  1  0.43619620  0.68852287  0.93877711  1
  Zn  Zn180  1  0.93598230  0.18675579  0.43790657  1
  Zn  Zn181  1  0.93850820  0.18706481  0.93604520  1
  Zn  Zn182  1  0.93770330  0.68763055  0.43597076  1
  Zn  Zn183  1  0.93596176  0.68717238  0.93736650  1
  Zn  Zn184  1  0.06233937  0.31270845  0.06281476  1
  Zn  Zn185  1  0.06288997  0.31248788  0.56244693  1
  Zn  Zn186  1  0.06310198  0.81248467  0.06400922  1
  Zn  Zn187  1  0.06266111  0.81328487  0.56403909  1
  Zn  Zn188  1  0.56333837  0.31100609  0.06136337  1
  Zn  Zn189  1  0.56161541  0.31387547  0.56134290  1
  Zn  Zn190  1  0.56143180  0.81362162  0.06389027  1
  Zn  Zn191  1  0.56325829  0.81263803  0.56220775  1
  O  O192  1  0.11891403  0.12767021  0.11568252  1
  O  O193  1  0.11995854  0.11913865  0.61807976  1
  O  O194  1  0.11946613  0.62028257  0.11928271  1
  O  O195  1  0.12214182  0.61542202  0.61874400  1
  O  O196  1  0.61858648  0.11829201  0.12481194  1
  O  O197  1  0.62321206  0.11233171  0.62301364  1
  O  O198  1  0.61890054  0.61869101  0.12127135  1
  O  O199  1  0.61767166  0.61802579  0.62549103  1
  O  O200  1  0.38188331  0.38204531  0.37472634  1
  O  O201  1  0.38198916  0.37591959  0.88386610  1
  O  O202  1  0.38040078  0.88076053  0.38048902  1
  O  O203  1  0.38095693  0.88056096  0.88141940  1
  O  O204  1  0.88008494  0.38000914  0.37879674  1
  O  O205  1  0.88173864  0.37561844  0.88201336  1
  O  O206  1  0.88021143  0.87451141  0.38498525  1
  O  O207  1  0.88039578  0.87871389  0.88247828  1
  O  O208  1  0.25727768  0.00752546  0.37406457  1
  O  O209  1  0.25692896  0.00263433  0.86564451  1
  O  O210  1  0.25534735  0.50500769  0.36921029  1
  O  O211  1  0.24858317  0.51445451  0.87279936  1
  O  O212  1  0.75155754  0.00658372  0.36728154  1
  O  O213  1  0.74685398  0.00808274  0.86776048  1
  O  O214  1  0.75516934  0.50630228  0.36926575  1
  O  O215  1  0.75319899  0.50244525  0.86633147  1
  O  O216  1  0.24319222  0.50004240  0.13128058  1
  O  O217  1  0.23647018  0.49952924  0.62492612  1
  O  O218  1  0.24584919  0.99525897  0.13119589  1
  O  O219  1  0.24520736  1.00035986  0.63400705  1
  O  O220  1  0.74458912  0.49381521  0.13031214  1
  O  O221  1  0.74428721  0.49386150  0.62956268  1
  O  O222  1  0.74419481  0.99533297  0.13000060  1
  O  O223  1  0.74217574  1.00017151  0.63389071  1
  O  O224  1  0.00489705  0.36926282  0.25500205  1
  O  O225  1  0.00532195  0.36972304  0.75531961  1
  O  O226  1  0.00588032  0.87021962  0.25445144  1
  O  O227  1  -0.00017836  0.86213241  0.75185619  1
  O  O228  1  0.50577873  0.37021388  0.25479687  1
  O  O229  1  0.50673285  0.37004416  0.75552182  1
  O  O230  1  0.50468901  0.86990643  0.25556411  1
  O  O231  1  0.49970531  0.86756128  0.75789896  1
  O  O232  1  0.49444935  0.13107595  0.24516539  1
  O  O233  1  0.49536520  0.13269662  0.74936807  1
  O  O234  1  0.49409907  0.62918380  0.24508085  1
  O  O235  1  0.49365014  0.63075872  0.74524936  1
  O  O236  1  0.99556925  0.13036526  0.24560717  1
  O  O237  1  1.00097854  0.13114539  0.74353770  1
  O  O238  1  0.99559081  0.62888892  0.24531058  1
  O  O239  1  0.99068469  0.63486128  0.74743480  1
  O  O240  1  0.37772346  0.26038987  0.00496306  1
  O  O241  1  0.36920684  0.25020071  0.50726981  1
  O  O242  1  0.37466025  0.75695677  0.00715596  1
  O  O243  1  0.36937287  0.75460040  0.50579575  1
  O  O244  1  0.87069891  0.25526121  0.00601393  1
  O  O245  1  0.86771073  0.25745382  0.49981329  1
  O  O246  1  0.86190956  0.74820771  0.00205068  1
  O  O247  1  0.87624221  0.75714814  0.50952569  1
  O  O248  1  0.12947587  0.24394850  0.49351284  1
  O  O249  1  0.12393608  0.24230204  0.99473589  1
  O  O250  1  0.13021152  0.74290833  0.50039128  1
  O  O251  1  0.12365553  0.74371567  0.98902398  1
  O  O252  1  0.63100773  0.24994257  0.49232667  1
  O  O253  1  0.63296076  0.24892684  0.99288022  1
  O  O254  1  0.62982908  0.74661048  0.49729773  1
  O  O255  1  0.63046911  0.74436495  0.99684684  1
  O  O256  1  0.49650474  0.24489609  0.13115357  1
  O  O257  1  0.49404638  0.24993017  0.63130678  1
  O  O258  1  0.49466753  0.74373543  0.13167506  1
  O  O259  1  0.49425974  0.74471380  0.63088233  1
  O  O260  1  0.99383170  0.24563858  0.13091601  1
  O  O261  1  1.00078798  0.24343081  0.63031229  1
  O  O262  1  0.99854443  0.74177683  0.13069070  1
  O  O263  1  0.98988094  0.74848088  0.63347949  1
  O  O264  1  0.00555877  0.25452366  0.36944327  1
  O  O265  1  0.00576356  0.25589835  0.86921220  1
  O  O266  1  0.00132111  0.75596138  0.36796473  1
  O  O267  1  0.00819046  0.74791897  0.86655496  1
  O  O268  1  0.50467446  0.25556996  0.36930365  1
  O  O269  1  0.50710727  0.25574477  0.86946759  1
  O  O270  1  0.49908786  0.75637405  0.36864909  1
  O  O271  1  0.50385353  0.75453473  0.87056547  1
  O  O272  1  0.24388928  0.13019197  0.49400474  1
  O  O273  1  0.23840377  0.12601252  0.99984430  1
  O  O274  1  0.24427639  0.62998649  0.49438480  1
  O  O275  1  0.24309020  0.62819528  0.99008100  1
  O  O276  1  0.74848449  0.13139087  0.49234165  1
  O  O277  1  0.74894801  0.13031043  0.99174418  1
  O  O278  1  0.75118897  0.62504122  0.48825653  1
  O  O279  1  0.74268951  0.63292604  1.00117630  1
  O  O280  1  0.26317359  0.37614611  0.00070199  1
  O  O281  1  0.25195667  0.36582806  0.50225464  1
  O  O282  1  0.25805601  0.87253189  0.00077153  1
  O  O283  1  0.25655433  0.86792572  0.50039602  1
  O  O284  1  0.75553786  0.36940649  0.00573073  1
  O  O285  1  0.75481247  0.37051084  0.50362017  1
  O  O286  1  0.74771187  0.86463631  0.00668645  1
  O  O287  1  0.76258356  0.87372190  0.50099729  1
  O  O288  1  0.12967249  0.49497985  0.24472205  1
  O  O289  1  0.12224984  0.49609281  0.73986368  1
  O  O290  1  0.12426056  0.98859567  0.24966828  1
  O  O291  1  0.13494594  1.00055627  0.74586365  1
  O  O292  1  0.63016565  0.49405641  0.24389546  1
  O  O293  1  0.63026869  0.49427312  0.74420451  1
  O  O294  1  0.63029284  0.99393229  0.24437093  1
  O  O295  1  0.63284424  0.99868980  0.74243279  1
  O  O296  1  0.37558997  0.00750587  0.25804874  1
  O  O297  1  0.36961573  0.00489972  0.75453987  1
  O  O298  1  0.36996114  0.50593565  0.25453340  1
  O  O299  1  0.37236120  0.50840187  0.75316941  1
  O  O300  1  0.86877906  0.00650183  0.24987855  1
  O  O301  1  0.86342909  0.00258049  0.75095498  1
  O  O302  1  0.86979991  0.50390676  0.25518276  1
  O  O303  1  0.87120537  0.50951915  0.74744222  1
  O  O304  1  0.11905985  0.36928110  0.36897435  1
  O  O305  1  0.11843154  0.37117374  0.87045639  1
  O  O306  1  0.11748720  0.87248739  0.36718042  1
  O  O307  1  0.12381062  0.86207416  0.87159680  1
  O  O308  1  0.61952770  0.37057662  0.36820038  1
  O  O309  1  0.62114751  0.36951888  0.86887659  1
  O  O310  1  0.61793112  0.87439697  0.36843704  1
  O  O311  1  0.61652498  0.86717937  0.87483146  1
  O  O312  1  0.38175963  0.13076294  0.13047431  1
  O  O313  1  0.37838472  0.13324197  0.63243012  1
  O  O314  1  0.38055524  0.62948837  0.13001893  1
  O  O315  1  0.37997593  0.63076968  0.63063210  1
  O  O316  1  0.88043689  0.13165543  0.13060786  1
  O  O317  1  0.88457816  0.12754872  0.62561435  1
  O  O318  1  0.88199133  0.62440293  0.13241300  1
  O  O319  1  0.87628684  0.63321413  0.63338657  1
  O  O320  1  0.25984038  0.25488174  0.12076296  1
  O  O321  1  0.25711519  0.24944154  0.61903537  1
  O  O322  1  0.25849587  0.75254506  0.12257071  1
  O  O323  1  0.25668999  0.75048275  0.61918835  1
  O  O324  1  0.75514840  0.25496019  0.12021813  1
  O  O325  1  0.74949840  0.25640184  0.61766248  1
  O  O326  1  0.74831658  0.75519462  0.11674298  1
  O  O327  1  0.76234529  0.75223700  0.62620941  1
  O  O328  1  0.24427138  0.24415766  0.38007127  1
  O  O329  1  0.24186691  0.24768005  0.87905137  1
  O  O330  1  0.24945919  0.74152793  0.38297758  1
  O  O331  1  0.23983544  0.74088972  0.87311194  1
  O  O332  1  0.74373839  0.24577441  0.37881353  1
  O  O333  1  0.74648580  0.24279917  0.87882252  1
  O  O334  1  0.75035050  0.73712217  0.37502742  1
  O  O335  1  0.74218024  0.74783722  0.88548365  1
  O  O336  1  0.00827666  0.11988426  0.00438575  1
  O  O337  1  0.00564634  0.11921781  0.50386273  1
  O  O338  1  0.00440923  0.61943129  0.00441401  1
  O  O339  1  0.00505091  0.61714857  0.49992963  1
  O  O340  1  0.50251282  0.11869177  0.00675506  1
  O  O341  1  0.50384417  0.11597850  0.50153839  1
  O  O342  1  0.50457483  0.61998073  0.00648540  1
  O  O343  1  0.50020423  0.61864832  0.50726031  1
  O  O344  1  0.49773366  0.38265310  0.49221153  1
  O  O345  1  0.49378473  0.37992016  0.99536727  1
  O  O346  1  0.49310710  0.88029626  0.49432216  1
  O  O347  1  0.49400956  0.88115554  0.99527662  1
  O  O348  1  0.99515514  0.37957646  0.49255717  1
  O  O349  1  0.99496446  0.38017583  0.99496302  1
  O  O350  1  0.99208175  0.87878687  0.49595935  1
  O  O351  1  1.00253902  0.88761742  1.00014879  1
  O  O352  1  0.49490135  0.49572230  0.37901591  1
  O  O353  1  0.50013328  0.49302752  0.88208763  1
  O  O354  1  0.49467360  0.99404343  0.38038601  1
  O  O355  1  0.49586710  0.99494121  0.88009788  1
  O  O356  1  0.99448483  0.49345833  0.37854846  1
  O  O357  1  0.99795101  0.49415154  0.88121850  1
  O  O358  1  0.99582699  0.99290068  0.38361054  1
  O  O359  1  0.99986367  1.00079240  0.88457669  1
  O  O360  1  0.00378782  0.00817395  0.11550027  1
  O  O361  1  0.00658564  0.00535477  0.62045199  1
  O  O362  1  0.00603259  0.50553082  0.11941374  1
  O  O363  1  0.00982661  0.50010301  0.61759097  1
  O  O364  1  0.50470211  0.00545169  0.12040555  1
  O  O365  1  0.50855599  0.00050548  0.62045391  1
  O  O366  1  0.50589093  0.50547771  0.12022504  1
  O  O367  1  0.50457315  0.50502399  0.62038866  1
  O  O368  1  0.24309436  0.38208064  0.24872822  1
  O  O369  1  0.24033215  0.37889164  0.74810560  1
  O  O370  1  0.23765184  0.87511177  0.25264558  1
  O  O371  1  0.25051878  0.88848042  0.74838850  1
  O  O372  1  0.74513130  0.37970444  0.24446564  1
  O  O373  1  0.74570419  0.37932733  0.74383167  1
  O  O374  1  0.74494297  0.87994798  0.24554381  1
  O  O375  1  0.74775182  0.88661894  0.75022771  1
  O  O376  1  0.25700742  0.12572425  0.25731947  1
  O  O377  1  0.25711572  0.11441774  0.75148532  1
  O  O378  1  0.25499044  0.61967292  0.25529910  1
  O  O379  1  0.25496302  0.62397675  0.75848032  1
  O  O380  1  0.75569120  0.12006656  0.25416544  1
  O  O381  1  0.75066627  0.11643897  0.75847354  1
  O  O382  1  0.75511585  0.61844985  0.25668742  1
  O  O383  1  0.75904929  0.61917211  0.75047963  1
  O  O384  1  0.37016249  0.12062160  0.37006548  1
  O  O385  1  0.37507867  0.11825924  0.86895903  1
  O  O386  1  0.36983461  0.61882229  0.36864259  1
  O  O387  1  0.36508784  0.62617977  0.87047954  1
  O  O388  1  0.86805764  0.12395115  0.36754061  1
  O  O389  1  0.86193804  0.12359643  0.87308286  1
  O  O390  1  0.86790618  0.61819671  0.36901412  1
  O  O391  1  0.87291402  0.62389960  0.86163876  1
  O  O392  1  0.12525453  0.38218592  0.13124875  1
  O  O393  1  0.12484419  0.38423828  0.63026111  1
  O  O394  1  0.12599311  0.87526710  0.13764044  1
  O  O395  1  0.12792262  0.88330594  0.62897468  1
  O  O396  1  0.63048029  0.37964399  0.12997820  1
  O  O397  1  0.63047480  0.38099478  0.63050614  1
  O  O398  1  0.62948441  0.88094722  0.13209486  1
  O  O399  1  0.62730105  0.88674785  0.62785919  1
  O  O400  1  0.11964117  0.25487959  0.25502522  1
  O  O401  1  0.11976203  0.25543747  0.75529118  1
  O  O402  1  0.11801049  0.75809846  0.25299965  1
  O  O403  1  0.11552519  0.74775624  0.75592231  1
  O  O404  1  0.61965052  0.25613672  0.25467942  1
  O  O405  1  0.62105751  0.25591849  0.75444926  1
  O  O406  1  0.61725871  0.75647299  0.25230610  1
  O  O407  1  0.61773074  0.75083274  0.75679273  1
  O  O408  1  0.38142525  0.24531233  0.24529457  1
  O  O409  1  0.38053973  0.24537082  0.74536754  1
  O  O410  1  0.38033905  0.74396318  0.24537315  1
  O  O411  1  0.37978800  0.74494546  0.74514493  1
  O  O412  1  0.88068945  0.24492392  0.24453744  1
  O  O413  1  0.88431627  0.24724194  0.74602153  1
  O  O414  1  0.88187281  0.74256285  0.24708845  1
  O  O415  1  0.88022617  0.74396019  0.74420734  1
  O  O416  1  0.38087252  0.49934476  0.49305445  1
  O  O417  1  0.38185981  0.49160997  0.99860653  1
  O  O418  1  0.38000672  0.99518440  0.49532197  1
  O  O419  1  0.38097028  0.99551911  0.99462620  1
  O  O420  1  0.88082437  0.49378092  0.49398123  1
  O  O421  1  0.88112499  0.49336780  0.99917061  1
  O  O422  1  0.88073614  0.98883837  0.50146659  1
  O  O423  1  0.88822890  1.00206671  0.99844060  1
  O  O424  1  0.11732057  0.01052315  -0.00086456  1
  O  O425  1  0.12016075  0.00506036  0.50489611  1
  O  O426  1  0.11884263  0.50562282  0.00502863  1
  O  O427  1  0.12011131  0.50391734  0.50652670  1
  O  O428  1  0.61773086  0.00087042  0.00768480  1
  O  O429  1  0.61994861  -0.00022445  0.50915643  1
  O  O430  1  0.62043475  0.50420061  0.00611096  1
  O  O431  1  0.61788022  0.50261713  0.50700623  1
  O  O432  1  0.37682828  0.37024714  0.11495762  1
  O  O433  1  0.37214527  0.36574975  0.62429630  1
  O  O434  1  0.37590935  0.86855662  0.11948492  1
  O  O435  1  0.37368110  0.86804356  0.61769588  1
  O  O436  1  0.86980076  0.36958814  0.12028867  1
  O  O437  1  0.86811944  0.37384484  0.61684292  1
  O  O438  1  0.86629366  0.87218710  0.12053302  1
  O  O439  1  0.87497476  0.86637969  0.61667113  1
  O  O440  1  0.12942817  0.13013633  0.37985628  1
  O  O441  1  0.12627933  0.13298983  0.88560356  1
  O  O442  1  0.13212471  0.62466929  0.38169857  1
  O  O443  1  0.13035227  0.63311127  0.87807444  1
  O  O444  1  0.63160313  0.13244710  0.37400730  1
  O  O445  1  0.63635599  0.13143325  0.87612573  1
  O  O446  1  0.63691586  0.62493903  0.37533919  1
  O  O447  1  0.62477554  0.63146391  0.88284146  1
