# generated using pymatgen
data_V3Zn3O8
_symmetry_space_group_name_H-M   'P 1'
_cell_length_a   17.08802948
_cell_length_b   17.08697785
_cell_length_c   17.08757392
_cell_angle_alpha   89.99052663
_cell_angle_beta   89.99692373
_cell_angle_gamma   89.98574415
_symmetry_Int_Tables_number   1
_chemical_formula_structural   V3Zn3O8
_chemical_formula_sum   'V96 Zn96 O256'
_cell_volume   4989.27712968
_cell_formula_units_Z   32
loop_
 _symmetry_equiv_pos_site_id
 _symmetry_equiv_pos_as_xyz
  1  'x, y, z'
loop_
 _atom_site_type_symbol
 _atom_site_label
 _atom_site_symmetry_multiplicity
 _atom_site_fract_x
 _atom_site_fract_y
 _atom_site_fract_z
 _atom_site_occupancy
  V  V0  1  0.37483446  0.50055689  0.37583779  1
  V  V1  1  0.24816674  0.12656570  0.37585615  1
  V  V2  1  0.49897873  0.12438537  0.62540776  1
  V  V3  1  0.50067855  0.74897544  0.74990643  1
  V  V4  1  0.37492581  0.12578145  0.24993003  1
  V  V5  1  0.87383109  0.12449067  0.74975193  1
  V  V6  1  0.62424370  0.50069999  0.12490334  1
  V  V7  1  0.25033822  0.12427628  0.87507589  1
  V  V8  1  0.50013642  0.87526937  0.37502735  1
  V  V9  1  0.87500766  0.24979292  0.12586136  1
  V  V10  1  0.62543387  0.87333574  0.75021991  1
  V  V11  1  -0.00055203  0.37517972  0.87561221  1
  V  V12  1  0.87561640  0.37633701  0.49878020  1
  V  V13  1  0.87413231  0.50028095  0.87513295  1
  V  V14  1  0.24942336  -0.00053069  0.25010622  1
  V  V15  1  0.87469225  0.00037060  0.87387162  1
  V  V16  1  -0.00091487  0.25058506  0.75034523  1
  V  V17  1  0.12535393  0.37590689  0.74996537  1
  V  V18  1  0.62345784  0.37531420  0.25040787  1
  V  V19  1  0.74969004  0.24968007  0.49963784  1
  V  V20  1  0.00074918  0.00080959  0.00000516  1
  V  V21  1  0.62530401  0.12479086  0.49998473  1
  V  V22  1  0.50070994  0.00090919  0.00026201  1
  V  V23  1  0.74951988  0.50081537  0.24985268  1
  V  V24  1  0.37504114  -0.00005793  0.87543853  1
  V  V25  1  0.12419293  0.12416987  0.00003338  1
  V  V26  1  0.12491463  0.00039384  0.62582491  1
  V  V27  1  0.87522676  -0.00018290  0.37489418  1
  V  V28  1  0.12563126  0.25016554  0.37550183  1
  V  V29  1  0.87510492  0.87517152  0.50007428  1
  V  V30  1  0.00177315  0.75002643  0.75026180  1
  V  V31  1  -0.00006146  0.37655423  0.37507723  1
  V  V32  1  0.12453371  0.49996558  0.12520070  1
  V  V33  1  0.25055873  0.62577074  0.37563519  1
  V  V34  1  0.62583617  0.49885650  0.62447455  1
  V  V35  1  0.12564469  0.74963141  0.87419823  1
  V  V36  1  0.12400497  0.24962216  0.87529280  1
  V  V37  1  0.37559547  0.62584539  0.24941361  1
  V  V38  1  0.49940388  0.00010926  0.50056294  1
  V  V39  1  0.37558715  0.74902102  0.62598663  1
  V  V40  1  0.75080581  0.62640281  0.37445617  1
  V  V41  1  0.49889307  0.24943811  0.24908064  1
  V  V42  1  0.50088554  0.24986656  0.75117363  1
  V  V43  1  -0.00085710  0.75080725  0.24844923  1
  V  V44  1  0.87508988  0.25006918  0.62496832  1
  V  V45  1  0.62388967  0.75111802  0.37495863  1
  V  V46  1  0.00131876  0.87547797  0.37470631  1
  V  V47  1  0.62509007  0.62542938  -0.00103412  1
  V  V48  1  0.37484284  0.87486365  0.50067589  1
  V  V49  1  0.75092495  -0.00006453  0.74986714  1
  V  V50  1  0.50043949  0.49931264  0.50071273  1
  V  V51  1  0.37485669  0.87475062  -0.00028601  1
  V  V52  1  0.74989840  0.37532824  0.62453800  1
  V  V53  1  0.00081954  0.62487033  0.62325383  1
  V  V54  1  0.49918262  0.62579395  0.12464813  1
  V  V55  1  0.12485003  0.37591412  0.24927246  1
  V  V56  1  0.50008553  0.49929006  -0.00079393  1
  V  V57  1  -0.00114563  0.25038963  0.24992571  1
  V  V58  1  0.37573177  0.62442209  0.74967493  1
  V  V59  1  0.37360127  0.37384558  0.50073413  1
  V  V60  1  0.12553468  0.62482486  0.00049864  1
  V  V61  1  0.74996061  0.12518705  0.37584387  1
  V  V62  1  0.00074952  0.12472054  0.62453906  1
  V  V63  1  0.37562158  0.49922728  0.87454277  1
  V  V64  1  0.74819570  0.24814699  -0.00037686  1
  V  V65  1  0.37370076  0.25023818  0.62402787  1
  V  V66  1  0.87522152  0.12593230  0.25036110  1
  V  V67  1  0.75115325  0.87342137  0.62467565  1
  V  V68  1  0.75037836  0.49884233  0.74959245  1
  V  V69  1  0.87465875  0.37422989  0.00148909  1
  V  V70  1  0.25105117  0.62448389  0.87565190  1
  V  V71  1  0.62613095  0.74895454  0.87429576  1
  V  V72  1  0.87575868  0.74991837  0.62494346  1
  V  V73  1  0.24916245  0.37533615  0.12446737  1
  V  V74  1  0.24961489  0.25015318  0.00041813  1
  V  V75  1  0.62438652  0.62440272  0.49981137  1
  V  V76  1  0.74987444  0.62368916  0.87511419  1
  V  V77  1  0.37422094  0.37432300  0.00045042  1
  V  V78  1  0.62503417  0.00073108  0.12443441  1
  V  V79  1  0.25005811  0.74946629  0.50005514  1
  V  V80  1  0.49940713  0.37510024  0.37473753  1
  V  V81  1  0.62458145  0.87598892  0.25109558  1
  V  V82  1  0.12547222  0.62524172  0.49918866  1
  V  V83  1  -0.00055304  0.62698438  0.12535174  1
  V  V84  1  0.74949082  -0.00006010  0.24964446  1
  V  V85  1  0.00029695  0.50109196  0.49929711  1
  V  V86  1  0.24944508  0.87553547  0.62596821  1
  V  V87  1  0.37384357  0.00039132  0.37572268  1
  V  V88  1  0.25107463  0.74980040  0.00067877  1
  V  V89  1  0.62494535  -0.00137949  0.62557395  1
  V  V90  1  0.24910136  0.87549416  0.12623824  1
  V  V91  1  0.24932574  0.49818469  0.74987176  1
  V  V92  1  0.87378454  0.87371740  0.00042694  1
  V  V93  1  -0.00059456  0.50044635  0.00025462  1
  V  V94  1  0.50101028  0.37289893  0.87440148  1
  V  V95  1  0.37459980  0.12372935  0.75039955  1
  Zn  Zn96  1  0.62564379  0.37260528  0.75117960  1
  Zn  Zn97  1  0.24800640  0.37438643  0.62367918  1
  Zn  Zn98  1  0.50049452  0.75185102  0.24770976  1
  Zn  Zn99  1  0.87183260  0.74956570  0.12342525  1
  Zn  Zn100  1  0.25012421  -0.00182469  0.75144555  1
  Zn  Zn101  1  0.62505903  0.12543589  -0.00181384  1
  Zn  Zn102  1  0.12628472  0.75146440  0.37445171  1
  Zn  Zn103  1  0.12751562  0.87539324  0.75198594  1
  Zn  Zn104  1  0.50070941  0.87436510  0.87498264  1
  Zn  Zn105  1  0.00035937  0.00234719  0.49966781  1
  Zn  Zn106  1  0.24778455  0.25082608  0.50161776  1
  Zn  Zn107  1  0.62536523  0.24802197  0.87446276  1
  Zn  Zn108  1  0.62523336  0.24983645  0.37493231  1
  Zn  Zn109  1  0.75020623  0.75020363  0.00104652  1
  Zn  Zn110  1  0.87441532  0.62620805  0.24724133  1
  Zn  Zn111  1  0.12439387  0.00173691  0.12659908  1
  Zn  Zn112  1  0.12625783  0.49866545  0.62465763  1
  Zn  Zn113  1  0.74935083  0.37482969  0.12607017  1
  Zn  Zn114  1  0.49846356  0.12649564  0.12462779  1
  Zn  Zn115  1  0.87521610  0.62414988  0.74945706  1
  Zn  Zn116  1  0.50080511  0.62348841  0.62505050  1
  Zn  Zn117  1  0.37397764  0.24887064  0.12435079  1
  Zn  Zn118  1  0.87629480  0.50213451  0.37336445  1
  Zn  Zn119  1  0.75012678  0.87250511  0.12500906  1
  Zn  Zn120  1  0.24893034  0.50071204  0.24997408  1
  Zn  Zn121  1  0.74995964  0.74950630  0.50069782  1
  Zn  Zn122  1  0.00230993  0.87430374  0.87440376  1
  Zn  Zn123  1  0.00154379  0.12467214  0.12639307  1
  Zn  Zn124  1  0.37631272  0.74975271  0.12453379  1
  Zn  Zn125  1  0.74734880  0.12526557  0.87439153  1
  Zn  Zn126  1  0.12466327  0.12762860  0.50065036  1
  Zn  Zn127  1  0.12539194  0.87665324  0.25070654  1
  Zn  Zn128  1  0.18652895  0.18722414  0.18680593  1
  Zn  Zn129  1  0.18843080  0.18756154  0.68847526  1
  Zn  Zn130  1  0.18641073  0.68952988  0.18874683  1
  Zn  Zn131  1  0.18755256  0.68575044  0.68644071  1
  Zn  Zn132  1  0.68711568  0.18713915  0.18630370  1
  Zn  Zn133  1  0.68658434  0.18735764  0.68724687  1
  Zn  Zn134  1  0.68655362  0.69058433  0.18567848  1
  Zn  Zn135  1  0.68886965  0.68520837  0.68756170  1
  Zn  Zn136  1  0.31147998  0.31302701  0.31223709  1
  Zn  Zn137  1  0.31293265  0.31139174  0.81202360  1
  Zn  Zn138  1  0.31383583  0.81154521  0.31284788  1
  Zn  Zn139  1  0.31296265  0.81332018  0.81248224  1
  Zn  Zn140  1  0.81225397  0.31327960  0.31378898  1
  Zn  Zn141  1  0.81187501  0.31308992  0.81350129  1
  Zn  Zn142  1  0.81269299  0.81266761  0.31136479  1
  Zn  Zn143  1  0.81419294  0.81195271  0.81384721  1
  Zn  Zn144  1  0.18822131  0.43853930  0.43758231  1
  Zn  Zn145  1  0.18705140  0.43730051  0.93693029  1
  Zn  Zn146  1  0.18627638  0.93922197  0.44005909  1
  Zn  Zn147  1  0.18743362  0.93636563  0.93722035  1
  Zn  Zn148  1  0.68653318  0.43722759  0.43660356  1
  Zn  Zn149  1  0.68701595  0.43465395  0.93707995  1
  Zn  Zn150  1  0.68856663  0.93730513  0.43841490  1
  Zn  Zn151  1  0.68873834  0.93652066  0.93566140  1
  Zn  Zn152  1  0.31300335  0.06291919  0.06381791  1
  Zn  Zn153  1  0.30948262  0.06389346  0.56214567  1
  Zn  Zn154  1  0.31240299  0.56092891  0.06326299  1
  Zn  Zn155  1  0.31197892  0.56105829  0.56430078  1
  Zn  Zn156  1  0.81330696  0.06322195  0.06387554  1
  Zn  Zn157  1  0.81357973  0.06140324  0.56258660  1
  Zn  Zn158  1  0.81249501  0.56421161  0.06292183  1
  Zn  Zn159  1  0.81376013  0.56285000  0.56161033  1
  Zn  Zn160  1  0.43622409  0.43820218  0.18675865  1
  Zn  Zn161  1  0.43789309  0.43559544  0.68676198  1
  Zn  Zn162  1  0.43678395  0.93814988  0.18737128  1
  Zn  Zn163  1  0.43767350  0.93622361  0.68907736  1
  Zn  Zn164  1  0.93589031  0.43812612  0.18741879  1
  Zn  Zn165  1  0.93764226  0.43857014  0.68654400  1
  Zn  Zn166  1  0.93653621  0.93778550  0.18579262  1
  Zn  Zn167  1  0.93923857  0.93631391  0.68749790  1
  Zn  Zn168  1  0.06394306  0.06278476  0.31148179  1
  Zn  Zn169  1  0.06195515  0.06254346  0.81182932  1
  Zn  Zn170  1  0.06367483  0.56398866  0.31285208  1
  Zn  Zn171  1  0.06277335  0.56321814  0.81219008  1
  Zn  Zn172  1  0.56218235  0.06318025  0.31320882  1
  Zn  Zn173  1  0.56413071  0.06413137  0.81467792  1
  Zn  Zn174  1  0.56179603  0.56349573  0.31288388  1
  Zn  Zn175  1  0.56360749  0.56081087  0.81078322  1
  Zn  Zn176  1  0.43620591  0.18812725  0.43675754  1
  Zn  Zn177  1  0.43708222  0.18707010  0.93741900  1
  Zn  Zn178  1  0.43872944  0.68779343  0.43766352  1
  Zn  Zn179  1  0.43854782  0.68827905  0.93655666  1
  Zn  Zn180  1  0.93901521  0.18793131  0.43830825  1
  Zn  Zn181  1  0.93494839  0.18600883  0.93710962  1
  Zn  Zn182  1  0.93674289  0.68949004  0.43725709  1
  Zn  Zn183  1  0.93745272  0.68710179  0.93640795  1
  Zn  Zn184  1  0.06183679  0.31160557  0.06351445  1
  Zn  Zn185  1  0.06335981  0.31354390  0.56246500  1
  Zn  Zn186  1  0.06298782  0.81362011  0.06189298  1
  Zn  Zn187  1  0.06368580  0.81301147  0.56192729  1
  Zn  Zn188  1  0.56350399  0.31409521  0.06393517  1
  Zn  Zn189  1  0.56213318  0.31189361  0.56328208  1
  Zn  Zn190  1  0.56257919  0.81221782  0.06266870  1
  Zn  Zn191  1  0.56268406  0.81041310  0.56249364  1
  O  O192  1  0.12244618  0.12257074  0.11557176  1
  O  O193  1  0.11924931  0.11729087  0.62622350  1
  O  O194  1  0.12019270  0.61996284  0.11923689  1
  O  O195  1  0.11849677  0.62312908  0.61693036  1
  O  O196  1  0.62182852  0.11122175  0.12391481  1
  O  O197  1  0.61888191  0.11772914  0.61944656  1
  O  O198  1  0.61859320  0.61946684  0.11915929  1
  O  O199  1  0.62498925  0.61724381  0.61738679  1
  O  O200  1  0.38038041  0.38122882  0.37954800  1
  O  O201  1  0.38010617  0.38047951  0.88117894  1
  O  O202  1  0.37990803  0.88084734  0.38139920  1
  O  O203  1  0.37655585  0.88168515  0.88225683  1
  O  O204  1  0.88195195  0.37685547  0.38149839  1
  O  O205  1  0.88116562  0.38050534  0.88148516  1
  O  O206  1  0.88250048  0.88003700  0.37924555  1
  O  O207  1  0.87857614  0.88193024  0.88313720  1
  O  O208  1  0.25518153  0.00479689  0.37039718  1
  O  O209  1  0.25662381  0.00670250  0.87523148  1
  O  O210  1  0.25767665  0.50793742  0.37315495  1
  O  O211  1  0.25621072  0.50543578  0.87106348  1
  O  O212  1  0.75542047  0.00558754  0.36970896  1
  O  O213  1  0.75701434  0.00111011  0.86652867  1
  O  O214  1  0.74800688  0.50969537  0.36570085  1
  O  O215  1  0.75488852  0.50323071  0.87001158  1
  O  O216  1  0.24163131  0.49341771  0.12508274  1
  O  O217  1  0.24766671  0.49685485  0.63493543  1
  O  O218  1  0.25070812  0.99024035  0.13065505  1
  O  O219  1  0.24150580  0.99492990  0.62658479  1
  O  O220  1  0.74327141  0.50078869  0.13529224  1
  O  O221  1  0.74634903  0.49441129  0.62907589  1
  O  O222  1  0.74046323  0.99879527  0.13086046  1
  O  O223  1  0.74458481  0.99347947  0.63005201  1
  O  O224  1  0.00479358  0.37059094  0.25510759  1
  O  O225  1  0.00403132  0.36985762  0.75660514  1
  O  O226  1  -0.00027939  0.86909361  0.25791163  1
  O  O227  1  0.00272273  0.86078052  0.75082905  1
  O  O228  1  0.50283799  0.36857091  0.25474692  1
  O  O229  1  0.49978734  0.36765500  0.75701968  1
  O  O230  1  0.50549261  0.87584920  0.25788252  1
  O  O231  1  0.50760767  0.86750614  0.75106864  1
  O  O232  1  0.49427507  0.13421003  0.25145898  1
  O  O233  1  0.49411597  0.12899830  0.74416069  1
  O  O234  1  0.49092588  0.62498277  0.24438088  1
  O  O235  1  0.49317699  0.63021255  0.74860929  1
  O  O236  1  0.99271219  0.13219892  0.25023171  1
  O  O237  1  0.99356238  0.13182261  0.74483144  1
  O  O238  1  0.99956578  0.63457031  0.24511301  1
  O  O239  1  0.99967771  0.63454074  0.74367229  1
  O  O240  1  0.36774182  0.25651573  0.00109528  1
  O  O241  1  0.37542441  0.25653534  0.50623722  1
  O  O242  1  0.36839560  0.75586904  0.00039389  1
  O  O243  1  0.37056354  0.75547328  0.50581556  1
  O  O244  1  0.86877307  0.25475119  0.00554736  1
  O  O245  1  0.86956881  0.25582287  0.50589671  1
  O  O246  1  0.87636591  0.76226266  -0.00133225  1
  O  O247  1  0.87295454  0.75733047  0.50689798  1
  O  O248  1  0.12632150  0.24949701  0.49070006  1
  O  O249  1  0.12892190  0.24492080  0.99366925  1
  O  O250  1  0.13267090  0.74356216  0.49856254  1
  O  O251  1  0.13085807  0.74366071  0.99467773  1
  O  O252  1  0.63129355  0.24239774  0.49927093  1
  O  O253  1  0.63620144  0.24877552  1.00274444  1
  O  O254  1  0.62734938  0.74335272  0.49327092  1
  O  O255  1  0.62485463  0.74315944  0.99214858  1
  O  O256  1  0.49804280  0.24963832  0.13744690  1
  O  O257  1  0.49404382  0.24291650  0.63034457  1
  O  O258  1  0.49670893  0.74183591  0.12697099  1
  O  O259  1  0.49330164  0.74753167  0.63139069  1
  O  O260  1  0.99310072  0.24881759  0.13221568  1
  O  O261  1  0.99400877  0.24577738  0.63135164  1
  O  O262  1  1.00079438  0.74572659  0.13320897  1
  O  O263  1  0.99632381  0.74524527  0.63198052  1
  O  O264  1  0.00469347  0.25687338  0.36893948  1
  O  O265  1  0.00377926  0.25540423  0.87015772  1
  O  O266  1  -0.00063361  0.75990240  0.36663060  1
  O  O267  1  0.00687427  0.74778968  0.86528958  1
  O  O268  1  0.50088068  0.25575547  0.36451749  1
  O  O269  1  0.49909644  0.25587162  0.86896915  1
  O  O270  1  0.50611090  0.75806201  0.37404870  1
  O  O271  1  0.50764708  0.75119031  0.86783747  1
  O  O272  1  0.24755117  0.12848798  0.49022733  1
  O  O273  1  0.24495777  0.13022698  0.99442870  1
  O  O274  1  0.24642807  0.63009742  0.49514225  1
  O  O275  1  0.24530080  0.62940114  0.99530325  1
  O  O276  1  0.74536570  0.12968653  0.49601734  1
  O  O277  1  0.75113127  0.13672523  0.99945153  1
  O  O278  1  0.74383717  0.62468287  0.48912195  1
  O  O279  1  0.74203304  0.62426125  0.99280681  1
  O  O280  1  0.25415485  0.36963123  0.00387563  1
  O  O281  1  0.25885403  0.37314022  0.50137830  1
  O  O282  1  0.25524475  0.87029704  0.00795497  1
  O  O283  1  0.25636524  0.86979598  0.50536804  1
  O  O284  1  0.75650522  0.36638963  0.00276732  1
  O  O285  1  0.75541140  0.36986628  0.50401702  1
  O  O286  1  0.76235538  0.87522330  0.00018401  1
  O  O287  1  0.75661046  0.87334420  0.50674247  1
  O  O288  1  0.12532361  0.49396852  0.24262707  1
  O  O289  1  0.13117695  0.49357545  0.75142512  1
  O  O290  1  0.13341723  0.99685244  0.24681071  1
  O  O291  1  0.12623971  0.99803819  0.73900856  1
  O  O292  1  0.63125393  0.49615046  0.24533893  1
  O  O293  1  0.63232898  0.49686401  0.74244940  1
  O  O294  1  0.62892295  0.99612319  0.24337221  1
  O  O295  1  0.62990938  0.99389103  0.74395065  1
  O  O296  1  0.36982145  0.00530758  0.25721287  1
  O  O297  1  0.37534912  0.00635282  0.75718187  1
  O  O298  1  0.37428004  0.51070140  0.25619857  1
  O  O299  1  0.37034546  0.50438402  0.75614600  1
  O  O300  1  0.86938178  0.00552909  0.25515246  1
  O  O301  1  0.87087310  0.00413836  0.75366547  1
  O  O302  1  0.86216713  0.50285440  0.25158532  1
  O  O303  1  0.86924261  0.50067017  0.75735660  1
  O  O304  1  0.11941116  0.37093713  0.36849714  1
  O  O305  1  0.11813067  0.36890348  0.87107931  1
  O  O306  1  0.11287820  0.87476432  0.37521024  1
  O  O307  1  0.12338819  0.86543945  0.87267836  1
  O  O308  1  0.61698198  0.37346954  0.36839806  1
  O  O309  1  0.61571672  0.37105023  0.87301651  1
  O  O310  1  0.61956217  0.87179295  0.37108828  1
  O  O311  1  0.62458133  0.86773712  0.86711328  1
  O  O312  1  0.37723689  0.12784083  0.13444154  1
  O  O313  1  0.38059503  0.12887089  0.63000307  1
  O  O314  1  0.37977504  0.62381793  0.13386562  1
  O  O315  1  0.37628765  0.63147680  0.63206053  1
  O  O316  1  0.87730236  0.13143464  0.13363199  1
  O  O317  1  0.88018861  0.13053068  0.63025335  1
  O  O318  1  0.88437799  0.62805714  0.12595704  1
  O  O319  1  0.88239469  0.63202243  0.62562131  1
  O  O320  1  0.24994130  0.25764472  0.11769840  1
  O  O321  1  0.25878858  0.25193925  0.62373990  1
  O  O322  1  0.25175724  0.75862402  0.11932410  1
  O  O323  1  0.25627025  0.75475146  0.61951196  1
  O  O324  1  0.75631640  0.25215639  0.11781828  1
  O  O325  1  0.75603492  0.25492005  0.61906939  1
  O  O326  1  0.75304327  0.75441097  0.11985631  1
  O  O327  1  0.75721480  0.75598783  0.62480424  1
  O  O328  1  0.24286272  0.24368272  0.37389665  1
  O  O329  1  0.24371272  0.24446535  0.88101578  1
  O  O330  1  0.25001667  0.74432890  0.38260025  1
  O  O331  1  0.24593673  0.74320323  0.88067377  1
  O  O332  1  0.74855610  0.24310509  0.38184103  1
  O  O333  1  0.75030267  0.24961200  0.88720167  1
  O  O334  1  0.74361337  0.74103414  0.37469216  1
  O  O335  1  0.74374248  0.74176225  0.87544231  1
  O  O336  1  0.00434158  0.11574046  -0.00037331  1
  O  O337  1  0.00203429  0.12298091  0.50888468  1
  O  O338  1  0.00650219  0.61983197  0.00463082  1
  O  O339  1  0.00530982  0.62132484  0.50291425  1
  O  O340  1  0.50002829  0.11244314  0.00294566  1
  O  O341  1  0.50457952  0.11902949  0.50507339  1
  O  O342  1  0.50467970  0.61799047  0.00403789  1
  O  O343  1  0.50652758  0.61712916  0.50045178  1
  O  O344  1  0.49451818  0.37968011  0.49387237  1
  O  O345  1  0.49406944  0.38035456  0.99548689  1
  O  O346  1  0.49464289  0.88106797  0.49557029  1
  O  O347  1  0.49415141  0.88561806  0.99979240  1
  O  O348  1  0.99484398  0.38086061  0.49449057  1
  O  O349  1  0.99515297  0.38058275  0.99469295  1
  O  O350  1  0.99393829  0.87536200  0.48966426  1
  O  O351  1  0.99331154  0.88434613  0.99792856  1
  O  O352  1  0.49463102  0.49465452  0.38067776  1
  O  O353  1  0.49453891  0.49421324  0.88009299  1
  O  O354  1  0.49383178  0.99537980  0.38148436  1
  O  O355  1  0.49500574  0.99822091  0.88525543  1
  O  O356  1  0.99837462  0.49460684  0.38051891  1
  O  O357  1  0.99481338  0.49527431  0.88111718  1
  O  O358  1  0.99388897  0.99069364  0.37429022  1
  O  O359  1  0.99429908  0.99884920  0.88387360  1
  O  O360  1  0.00159406  0.00183747  0.11211236  1
  O  O361  1  0.00829884  0.00545579  0.62508177  1
  O  O362  1  0.00510726  0.50565302  0.11929720  1
  O  O363  1  0.00120175  0.50713187  0.61763636  1
  O  O364  1  0.50744265  0.00044305  0.11720575  1
  O  O365  1  0.50509200  0.00446648  0.61974510  1
  O  O366  1  0.50483543  0.50531927  0.11853264  1
  O  O367  1  0.50698518  0.50024045  0.61814426  1
  O  O368  1  0.24286788  0.37745355  0.24310612  1
  O  O369  1  0.24298894  0.38096786  0.75211822  1
  O  O370  1  0.25112819  0.87929821  0.24206355  1
  O  O371  1  0.24863711  0.87698300  0.74135837  1
  O  O372  1  0.74324268  0.38545092  0.25111717  1
  O  O373  1  0.74991139  0.38056860  0.74214914  1
  O  O374  1  0.74292753  0.88323296  0.25019297  1
  O  O375  1  0.74562630  0.88009369  0.74390799  1
  O  O376  1  0.25533146  0.11980763  0.25568322  1
  O  O377  1  0.25724102  0.12359352  0.75823809  1
  O  O378  1  0.25919417  0.62466057  0.25528363  1
  O  O379  1  0.25583210  0.61943873  0.75677081  1
  O  O380  1  0.75510135  0.12000869  0.25627682  1
  O  O381  1  0.75724127  0.11754496  0.74764954  1
  O  O382  1  0.74748681  0.61708507  0.25812991  1
  O  O383  1  0.75244863  0.61647950  0.75698029  1
  O  O384  1  0.36904030  0.11902849  0.36972194  1
  O  O385  1  0.36947068  0.11923409  0.87035514  1
  O  O386  1  0.37143442  0.62030678  0.36807193  1
  O  O387  1  0.36994781  0.61872436  0.87001361  1
  O  O388  1  0.86957872  0.11991129  0.37027937  1
  O  O389  1  0.87273762  0.11831131  0.86637845  1
  O  O390  1  0.86173748  0.62527638  0.37273690  1
  O  O391  1  0.86844463  0.61691008  0.87487639  1
  O  O392  1  0.12901788  0.38057779  0.12938769  1
  O  O393  1  0.12606178  0.37719506  0.63497108  1
  O  O394  1  0.13905756  0.87745284  0.12455913  1
  O  O395  1  0.13079400  0.88377825  0.62569220  1
  O  O396  1  0.62620327  0.38396217  0.13289643  1
  O  O397  1  0.63290889  0.38128222  0.62458867  1
  O  O398  1  0.62460991  0.88633044  0.13130656  1
  O  O399  1  0.63073970  0.87942313  0.62984857  1
  O  O400  1  0.11828845  0.25646461  0.25482228  1
  O  O401  1  0.11830600  0.25481443  0.75692558  1
  O  O402  1  0.11274878  0.75434226  0.25297943  1
  O  O403  1  0.11699722  0.74858208  0.75511105  1
  O  O404  1  0.61580443  0.25534653  0.25096613  1
  O  O405  1  0.61605481  0.25178384  0.75030515  1
  O  O406  1  0.62240599  0.75789704  0.25698125  1
  O  O407  1  0.62050539  0.75373780  0.75413768  1
  O  O408  1  0.38418341  0.24558325  0.24968639  1
  O  O409  1  0.38102374  0.24302258  0.74492073  1
  O  O410  1  0.37789347  0.73688946  0.24938478  1
  O  O411  1  0.38040463  0.74405807  0.74575806  1
  O  O412  1  0.87910252  0.24576920  0.24589489  1
  O  O413  1  0.87983931  0.24563556  0.74424410  1
  O  O414  1  0.88727952  0.74965167  0.24719501  1
  O  O415  1  0.88574201  0.74805823  0.74480680  1
  O  O416  1  0.38112656  0.49484341  0.49519959  1
  O  O417  1  0.38044161  0.49486323  0.99371754  1
  O  O418  1  0.38001044  0.99453640  0.49557809  1
  O  O419  1  0.38275010  0.99536383  0.99595183  1
  O  O420  1  0.88156223  0.49363621  0.49696401  1
  O  O421  1  0.88041387  0.49414313  0.99553186  1
  O  O422  1  0.87688251  0.99332792  0.49276800  1
  O  O423  1  0.88243999  0.99477937  0.99474822  1
  O  O424  1  0.11531085  0.00533670  -0.00152508  1
  O  O425  1  0.12233507  0.00308946  0.51353295  1
  O  O426  1  0.11867917  0.50521008  0.00454196  1
  O  O427  1  0.11802688  0.50702730  0.50077771  1
  O  O428  1  0.61744067  -0.00215790  0.00783636  1
  O  O429  1  0.61934607  0.00452459  0.50623355  1
  O  O430  1  0.61917846  0.50486138  0.00482949  1
  O  O431  1  0.61983264  0.50447303  0.50446533  1
  O  O432  1  0.36762764  0.37527880  0.11759991  1
  O  O433  1  0.37464279  0.36745419  0.61818202  1
  O  O434  1  0.36491344  0.87375301  0.11971812  1
  O  O435  1  0.37014856  0.86962861  0.61940450  1
  O  O436  1  0.87323191  0.36856807  0.11881597  1
  O  O437  1  0.87015581  0.36920351  0.61863405  1
  O  O438  1  0.87361845  0.87508039  0.11239468  1
  O  O439  1  0.87065023  0.86989981  0.61993389  1
  O  O440  1  0.13074580  0.13207621  0.37529012  1
  O  O441  1  0.12992836  0.13093932  0.87968064  1
  O  O442  1  0.13269238  0.62783233  0.38139385  1
  O  O443  1  0.13176696  0.62925556  0.88160114  1
  O  O444  1  0.63209653  0.12481290  0.38257683  1
  O  O445  1  0.62985609  0.12918200  0.88011361  1
  O  O446  1  0.63219185  0.63017536  0.37931703  1
  O  O447  1  0.63010230  0.62852359  0.87993412  1
