# generated using pymatgen
data_V3Zn3O8
_symmetry_space_group_name_H-M   'P 1'
_cell_length_a   17.08568863
_cell_length_b   17.08620537
_cell_length_c   17.08573400
_cell_angle_alpha   89.99101071
_cell_angle_beta   90.00488850
_cell_angle_gamma   89.99989895
_symmetry_Int_Tables_number   1
_chemical_formula_structural   V3Zn3O8
_chemical_formula_sum   'V96 Zn96 O256'
_cell_volume   4987.83115412
_cell_formula_units_Z   32
loop_
 _symmetry_equiv_pos_site_id
 _symmetry_equiv_pos_as_xyz
  1  'x, y, z'
loop_
 _atom_site_type_symbol
 _atom_site_label
 _atom_site_symmetry_multiplicity
 _atom_site_fract_x
 _atom_site_fract_y
 _atom_site_fract_z
 _atom_site_occupancy
  V  V0  1  0.49890034  0.37502455  0.37467396  1
  V  V1  1  0.62462416  0.87550449  0.75013510  1
  V  V2  1  0.62552687  0.87436828  0.24979478  1
  V  V3  1  0.50149056  0.00187831  0.00004968  1
  V  V4  1  0.12643039  0.12581821  0.00050908  1
  V  V5  1  0.25123476  0.37280250  0.62384050  1
  V  V6  1  0.00088513  0.12435052  0.12611478  1
  V  V7  1  -0.00033011  0.49938417  0.00057795  1
  V  V8  1  0.37500573  0.62427249  0.24878591  1
  V  V9  1  0.75020496  0.75051710  -0.00016895  1
  V  V10  1  0.37601965  0.87384960  0.49810882  1
  V  V11  1  0.37498693  0.49883739  0.37555740  1
  V  V12  1  0.74928039  0.74998513  0.50041815  1
  V  V13  1  0.12586276  0.87380994  0.24968482  1
  V  V14  1  0.74989825  0.62562933  0.87542483  1
  V  V15  1  0.25084510  0.37450503  0.12420747  1
  V  V16  1  0.25041289  0.49923998  0.25007632  1
  V  V17  1  0.50029134  0.87637154  0.87571048  1
  V  V18  1  0.62516495  0.75090274  0.87500651  1
  V  V19  1  -0.00061072  0.87730230  0.87508195  1
  V  V20  1  0.87500780  0.24999923  0.12673435  1
  V  V21  1  0.37464898  0.12427026  0.74983642  1
  V  V22  1  0.37464688  0.75019743  0.12281660  1
  V  V23  1  0.87566561  0.62470348  0.25054108  1
  V  V24  1  0.74906318  0.87620516  0.62559841  1
  V  V25  1  0.50054051  0.74902296  0.24811253  1
  V  V26  1  0.12733136  0.12462982  0.49861997  1
  V  V27  1  0.87353411  0.75105254  0.62631393  1
  V  V28  1  0.75019417  0.37474257  0.62367425  1
  V  V29  1  0.49987797  0.50056668  -0.00152418  1
  V  V30  1  0.62435912  0.24775929  0.37448730  1
  V  V31  1  0.74935274  0.12714528  0.87576726  1
  V  V32  1  0.25033789  0.87392272  0.62453917  1
  V  V33  1  0.12537662  0.50002715  0.12489391  1
  V  V34  1  0.24901681  0.62448664  0.37524068  1
  V  V35  1  0.12443120  0.74995981  0.37438619  1
  V  V36  1  -0.00129851  0.25003312  0.74957044  1
  V  V37  1  0.74917789  0.50037996  0.74952620  1
  V  V38  1  0.75045841  0.24979387  0.50042608  1
  V  V39  1  0.00068714  0.00000174  0.50049455  1
  V  V40  1  0.62377868  0.00019711  0.62393795  1
  V  V41  1  0.87477149  0.49993353  0.87653568  1
  V  V42  1  0.87471615  0.37476609  0.00183845  1
  V  V43  1  0.74973846  0.00128896  0.75022565  1
  V  V44  1  0.75005911  0.49917301  0.25058065  1
  V  V45  1  0.87493848  0.87616447  0.00064249  1
  V  V46  1  0.49945524  0.12361802  0.62199121  1
  V  V47  1  0.24937789  0.74960654  0.50035064  1
  V  V48  1  0.87410752  0.62578495  0.75081586  1
  V  V49  1  0.87489923  0.87568309  0.50075337  1
  V  V50  1  0.62365159  0.50064035  0.62417266  1
  V  V51  1  0.49951592  0.24948721  0.74857821  1
  V  V52  1  0.12652740  -0.00119068  0.12530172  1
  V  V53  1  0.75091349  0.87529816  0.12517231  1
  V  V54  1  -0.00117803  0.75158967  0.75087834  1
  V  V55  1  0.37416227  0.50138220  0.87328984  1
  V  V56  1  0.37460240  0.37524922  -0.00060649  1
  V  V57  1  0.24862410  0.50196734  0.74995146  1
  V  V58  1  0.87578786  0.74922631  0.12572341  1
  V  V59  1  0.24939669  0.75023091  -0.00058876  1
  V  V60  1  0.12562309  0.37378343  0.25138271  1
  V  V61  1  0.62609287  0.37598380  0.24822464  1
  V  V62  1  0.25063223  0.25004077  -0.00021284  1
  V  V63  1  0.12275400  0.62477589  0.50164981  1
  V  V64  1  0.00149488  0.37440440  0.37741418  1
  V  V65  1  0.12443760  0.75070765  0.87588765  1
  V  V66  1  -0.00064791  0.62542111  0.62527055  1
  V  V67  1  0.49756788  0.74801160  0.74834350  1
  V  V68  1  0.24993169  0.87397185  0.12460403  1
  V  V69  1  0.62527930  0.74877448  0.37429653  1
  V  V70  1  0.25075407  0.12362329  0.37418914  1
  V  V71  1  0.49941633  0.49947709  0.49969887  1
  V  V72  1  0.37687512  0.12553113  0.24763112  1
  V  V73  1  0.87601275  0.49910924  0.37718382  1
  V  V74  1  0.00124251  0.87402675  0.37513141  1
  V  V75  1  0.87411455  0.00257468  0.87490578  1
  V  V76  1  0.62515884  0.25140270  0.87550487  1
  V  V77  1  -0.00000394  0.00137947  0.00013478  1
  V  V78  1  0.50065686  0.62435536  0.12306515  1
  V  V79  1  0.49965408  0.87408742  0.37432879  1
  V  V80  1  0.75126646  -0.00034916  0.25087484  1
  V  V81  1  -0.00044428  0.62482739  0.12617950  1
  V  V82  1  0.25096079  0.00042673  0.75090675  1
  V  V83  1  0.62429139  0.62372674  0.49991792  1
  V  V84  1  -0.00017781  0.12563894  0.62512029  1
  V  V85  1  0.12487895  0.62519415  -0.00057978  1
  V  V86  1  0.87612137  0.12372795  0.25086387  1
  V  V87  1  0.75084910  0.62433482  0.37513557  1
  V  V88  1  0.62412535  0.37521210  0.74891030  1
  V  V89  1  0.62551961  0.00165779  0.12513536  1
  V  V90  1  0.25029056  0.12514454  0.87504022  1
  V  V91  1  0.62489738  0.62448135  0.00014615  1
  V  V92  1  0.12502004  0.87577441  0.75016449  1
  V  V93  1  0.12338384  0.37502201  0.75160814  1
  V  V94  1  0.12544194  0.00003514  0.62487012  1
  V  V95  1  0.87507308  0.00014621  0.37528167  1
  Zn  Zn96  1  0.12537620  0.24881604  0.37522605  1
  Zn  Zn97  1  -0.00086293  0.49872683  0.50436017  1
  Zn  Zn98  1  0.37757281  -0.00066424  0.37189610  1
  Zn  Zn99  1  0.74935115  0.25188147  0.00094147  1
  Zn  Zn100  1  0.00208007  0.24825740  0.25296224  1
  Zn  Zn101  1  0.62718570  0.49924671  0.12302624  1
  Zn  Zn102  1  0.25157129  0.24890658  0.49992528  1
  Zn  Zn103  1  0.49935556  0.37500288  0.87359992  1
  Zn  Zn104  1  0.75038961  0.37556556  0.12610420  1
  Zn  Zn105  1  0.49609431  0.62384332  0.62410631  1
  Zn  Zn106  1  0.75020948  0.12362635  0.37664848  1
  Zn  Zn107  1  0.37505592  0.87588607  -0.00035921  1
  Zn  Zn108  1  0.50055571  0.24976892  0.24564627  1
  Zn  Zn109  1  0.37421219  0.74719305  0.62528879  1
  Zn  Zn110  1  0.87765938  0.37519086  0.50196494  1
  Zn  Zn111  1  0.62400481  0.12153442  0.49750322  1
  Zn  Zn112  1  0.37272409  0.62638535  0.74671183  1
  Zn  Zn113  1  0.62469697  0.13057181  0.00500648  1
  Zn  Zn114  1  0.24904995  0.62774972  0.87322518  1
  Zn  Zn115  1  0.12362861  0.25052247  0.87723850  1
  Zn  Zn116  1  0.50136061  0.12762745  0.12481284  1
  Zn  Zn117  1  -0.00085882  0.37385980  0.87521543  1
  Zn  Zn118  1  0.00028445  0.74901371  0.25043052  1
  Zn  Zn119  1  0.87437189  0.12752854  0.74826992  1
  Zn  Zn120  1  0.37552238  -0.00059630  0.87661542  1
  Zn  Zn121  1  0.12202319  0.50108958  0.62539687  1
  Zn  Zn122  1  0.37366899  0.37299078  0.49951444  1
  Zn  Zn123  1  0.37450447  0.24924906  0.62214426  1
  Zn  Zn124  1  0.87435754  0.25031557  0.62416487  1
  Zn  Zn125  1  0.37891520  0.25037317  0.12372134  1
  Zn  Zn126  1  0.25279451  -0.00185213  0.24888138  1
  Zn  Zn127  1  0.50089335  -0.00127501  0.49746162  1
  Zn  Zn128  1  0.18974761  0.18929485  0.18830104  1
  Zn  Zn129  1  0.18647606  0.18825753  0.68779314  1
  Zn  Zn130  1  0.18717098  0.68789439  0.18707200  1
  Zn  Zn131  1  0.18598130  0.68896599  0.68662221  1
  Zn  Zn132  1  0.69014570  0.18628190  0.18881356  1
  Zn  Zn133  1  0.68484485  0.18721524  0.68688066  1
  Zn  Zn134  1  0.68837251  0.68598156  0.18637443  1
  Zn  Zn135  1  0.68489998  0.68682603  0.68699097  1
  Zn  Zn136  1  0.31291126  0.30882393  0.31214695  1
  Zn  Zn137  1  0.31281363  0.31074186  0.81255726  1
  Zn  Zn138  1  0.31212457  0.81050567  0.31142695  1
  Zn  Zn139  1  0.31409688  0.81541957  0.81498311  1
  Zn  Zn140  1  0.81354291  0.31234066  0.31417240  1
  Zn  Zn141  1  0.81314664  0.31413941  0.81153185  1
  Zn  Zn142  1  0.81375477  0.81207829  0.31278045  1
  Zn  Zn143  1  0.81214104  0.81466629  0.81347047  1
  Zn  Zn144  1  0.18499650  0.44002796  0.44006697  1
  Zn  Zn145  1  0.18785236  0.43681446  0.93639938  1
  Zn  Zn146  1  0.18939836  0.93907707  0.43555571  1
  Zn  Zn147  1  0.18833596  0.93816596  0.93809845  1
  Zn  Zn148  1  0.68689452  0.43593894  0.43689741  1
  Zn  Zn149  1  0.68848374  0.43695708  0.93730717  1
  Zn  Zn150  1  0.68661644  0.93714582  0.43743402  1
  Zn  Zn151  1  0.68591369  0.93946450  0.93815824  1
  Zn  Zn152  1  0.31409564  0.06193787  0.06307319  1
  Zn  Zn153  1  0.31397583  0.05958369  0.56162582  1
  Zn  Zn154  1  0.31147566  0.56318090  0.06071740  1
  Zn  Zn155  1  0.31349475  0.56225633  0.56354612  1
  Zn  Zn156  1  0.81153477  0.06429314  0.06217447  1
  Zn  Zn157  1  0.81258746  0.06564573  0.56291865  1
  Zn  Zn158  1  0.81138351  0.56168518  0.06488529  1
  Zn  Zn159  1  0.81306979  0.56160168  0.56208625  1
  Zn  Zn160  1  0.43893027  0.43772399  0.18612225  1
  Zn  Zn161  1  0.43676960  0.43657194  0.68678802  1
  Zn  Zn162  1  0.43689725  0.93893807  0.18635468  1
  Zn  Zn163  1  0.43610343  0.93696999  0.68668618  1
  Zn  Zn164  1  0.93928383  0.43727129  0.19073223  1
  Zn  Zn165  1  0.93519851  0.43741552  0.68603917  1
  Zn  Zn166  1  0.93945910  0.93701362  0.18896310  1
  Zn  Zn167  1  0.93625740  0.94033418  0.68822992  1
  Zn  Zn168  1  0.06387365  0.06021680  0.31143481  1
  Zn  Zn169  1  0.06422195  0.06484196  0.81286075  1
  Zn  Zn170  1  0.06174568  0.56056611  0.31371321  1
  Zn  Zn171  1  0.06063508  0.56284903  0.81392083  1
  Zn  Zn172  1  0.56053642  0.06123752  0.31184122  1
  Zn  Zn173  1  0.56258327  0.06411000  0.81193258  1
  Zn  Zn174  1  0.56216009  0.56115220  0.31252972  1
  Zn  Zn175  1  0.56182296  0.56359212  0.81299219  1
  Zn  Zn176  1  0.43422084  0.19022462  0.43734098  1
  Zn  Zn177  1  0.43726956  0.18628925  0.93661677  1
  Zn  Zn178  1  0.43763523  0.68683519  0.43631514  1
  Zn  Zn179  1  0.43631096  0.68720107  0.93582293  1
  Zn  Zn180  1  0.93774124  0.18789858  0.43777485  1
  Zn  Zn181  1  0.93846805  0.18867448  0.93706007  1
  Zn  Zn182  1  0.93763328  0.68787089  0.43834419  1
  Zn  Zn183  1  0.93801335  0.68748467  0.93872127  1
  Zn  Zn184  1  0.06255593  0.31165061  0.06461677  1
  Zn  Zn185  1  0.06644322  0.30994091  0.56236682  1
  Zn  Zn186  1  0.06217845  0.81207463  0.06295259  1
  Zn  Zn187  1  0.06287588  0.81184183  0.56242100  1
  Zn  Zn188  1  0.55969622  0.31351351  0.06183515  1
  Zn  Zn189  1  0.56244962  0.31226893  0.56104428  1
  Zn  Zn190  1  0.56271216  0.81410830  0.06232312  1
  Zn  Zn191  1  0.56209735  0.81130510  0.56299164  1
  O  O192  1  0.12053794  0.11925614  0.12026920  1
  O  O193  1  0.12057263  0.11789421  0.61958032  1
  O  O194  1  0.11975768  0.61927795  0.11968737  1
  O  O195  1  0.11651167  0.62649928  0.61987186  1
  O  O196  1  0.62502073  0.11713706  0.12440801  1
  O  O197  1  0.61424228  0.11882119  0.62492393  1
  O  O198  1  0.61885646  0.62442762  0.11758139  1
  O  O199  1  0.62349323  0.61821830  0.61749764  1
  O  O200  1  0.38056456  0.38201442  0.37330943  1
  O  O201  1  0.37489313  0.38624192  0.87945189  1
  O  O202  1  0.38029471  0.87267439  0.38190076  1
  O  O203  1  0.38457196  0.87935251  0.87900063  1
  O  O204  1  0.88519265  0.38045217  0.37532481  1
  O  O205  1  0.87542476  0.38134696  0.88502372  1
  O  O206  1  0.88035423  0.87964355  0.38161537  1
  O  O207  1  0.87946524  0.88195706  0.88103274  1
  O  O208  1  0.25306424  0.01077575  0.37137430  1
  O  O209  1  0.25078556  0.00637255  0.86858491  1
  O  O210  1  0.25478266  0.50560655  0.36941723  1
  O  O211  1  0.25701578  0.50039598  0.86594883  1
  O  O212  1  0.75693240  -0.00061642  0.36903528  1
  O  O213  1  0.75312200  0.00837821  0.87058768  1
  O  O214  1  0.75538037  0.50547199  0.37046276  1
  O  O215  1  0.75505754  0.50660567  0.86929167  1
  O  O216  1  0.24445342  0.49531131  0.13017625  1
  O  O217  1  0.24775521  0.49208433  0.63649519  1
  O  O218  1  0.24305585  0.99177599  0.12408976  1
  O  O219  1  0.24425325  0.99364128  0.63074320  1
  O  O220  1  0.74731435  0.49734428  0.13457439  1
  O  O221  1  0.74365846  0.49570499  0.63063876  1
  O  O222  1  0.74659276  0.99386513  0.13013177  1
  O  O223  1  0.74496484  0.99540381  0.63037462  1
  O  O224  1  0.00724910  0.37506889  0.26064854  1
  O  O225  1  0.00773109  0.36828560  0.74906590  1
  O  O226  1  0.00701064  0.87243538  0.25712623  1
  O  O227  1  0.00456961  0.87144443  0.75552269  1
  O  O228  1  0.51067086  0.37557806  0.25588997  1
  O  O229  1  0.50677222  0.36833540  0.75076078  1
  O  O230  1  0.50605666  0.86774739  0.25352774  1
  O  O231  1  0.50565189  0.86823079  0.75493747  1
  O  O232  1  0.48923645  0.12627074  0.24937646  1
  O  O233  1  0.49543034  0.12882561  0.74120642  1
  O  O234  1  0.49509126  0.62951613  0.24401114  1
  O  O235  1  0.49986737  0.63744361  0.74962494  1
  O  O236  1  0.99403828  0.12424038  0.24358123  1
  O  O237  1  1.00122356  0.13446636  0.74450297  1
  O  O238  1  0.99362522  0.62514298  0.24387845  1
  O  O239  1  0.99295471  0.63251549  0.74666879  1
  O  O240  1  0.36855696  0.25757894  -0.00164793  1
  O  O241  1  0.36951568  0.25562543  0.50443786  1
  O  O242  1  0.36837120  0.75025725  0.00556952  1
  O  O243  1  0.36858599  0.75877428  0.49893336  1
  O  O244  1  0.87573758  0.25816898  0.00830323  1
  O  O245  1  0.86223896  0.25216639  0.50037645  1
  O  O246  1  0.86943666  0.75596854  0.00508771  1
  O  O247  1  0.86862521  0.75596502  0.50645331  1
  O  O248  1  0.13018489  0.23877595  0.49761874  1
  O  O249  1  0.13083871  0.24367824  0.99970989  1
  O  O250  1  0.13050905  0.74550478  0.49418201  1
  O  O251  1  0.12884127  0.74510215  0.99494461  1
  O  O252  1  0.63274551  0.24995139  0.48967260  1
  O  O253  1  0.62816937  0.25230643  0.98814309  1
  O  O254  1  0.63043058  0.74478697  0.49400473  1
  O  O255  1  0.63095382  0.74531097  0.99440349  1
  O  O256  1  0.49708134  0.24584942  0.12731543  1
  O  O257  1  0.50111040  0.23967987  0.63020990  1
  O  O258  1  0.49535948  0.74447997  0.12887984  1
  O  O259  1  0.50028158  0.74927865  0.63782067  1
  O  O260  1  0.99000395  0.24338471  0.12723004  1
  O  O261  1  1.00041583  0.24467745  0.63405301  1
  O  O262  1  0.99306118  0.74290730  0.12540355  1
  O  O263  1  0.99263900  0.74732409  0.63194160  1
  O  O264  1  0.00189956  0.26104931  0.37373348  1
  O  O265  1  0.00236136  0.25212066  0.86402653  1
  O  O266  1  0.00645496  0.75661469  0.37482693  1
  O  O267  1  0.00345227  0.75753739  0.87066226  1
  O  O268  1  0.51090468  0.25577448  0.37368193  1
  O  O269  1  0.51077420  0.24975526  0.86855888  1
  O  O270  1  0.50655520  0.75283457  0.36708780  1
  O  O271  1  0.50612087  0.75534094  0.86825611  1
  O  O272  1  0.24570081  0.12147716  0.49109988  1
  O  O273  1  0.24567449  0.12982262  0.99546917  1
  O  O274  1  0.24401107  0.63018417  0.49452894  1
  O  O275  1  0.24170710  0.63177618  0.99827088  1
  O  O276  1  0.74570163  0.13589436  0.49862890  1
  O  O277  1  0.74754665  0.12739743  0.98729995  1
  O  O278  1  0.74476978  0.63090965  0.49454896  1
  O  O279  1  0.74589701  0.63069705  0.99480253  1
  O  O280  1  0.25427944  0.37069924  0.00467170  1
  O  O281  1  0.24758164  0.37617395  0.51343767  1
  O  O282  1  0.25028503  0.86775279  0.00638828  1
  O  O283  1  0.25676883  0.86945054  0.50358474  1
  O  O284  1  0.76322878  0.37509222  0.00269613  1
  O  O285  1  0.74877241  0.36521758  0.50506650  1
  O  O286  1  0.75557745  0.87042541  0.00486300  1
  O  O287  1  0.75500182  0.86914597  0.50615588  1
  O  O288  1  0.13155517  0.49503899  0.24439118  1
  O  O289  1  0.13218937  0.49238612  0.75147655  1
  O  O290  1  0.12713192  0.99167300  0.24185744  1
  O  O291  1  0.13022194  0.99450681  0.74455722  1
  O  O292  1  0.63087355  0.49047726  0.25077140  1
  O  O293  1  0.63019087  0.49582338  0.74567377  1
  O  O294  1  0.63117857  0.99281608  0.24526961  1
  O  O295  1  0.63040161  0.99420977  0.74467394  1
  O  O296  1  0.37292733  0.00958387  0.25136576  1
  O  O297  1  0.36788134  0.00544537  0.75143976  1
  O  O298  1  0.36987928  0.50577355  0.25470420  1
  O  O299  1  0.36561627  0.49906485  0.75798190  1
  O  O300  1  0.87082697  0.00344554  0.25540968  1
  O  O301  1  0.86786019  0.00198103  0.75773932  1
  O  O302  1  0.86996967  0.50567734  0.25695666  1
  O  O303  1  0.86855631  0.50618428  0.75636014  1
  O  O304  1  0.11762098  0.37577009  0.36967092  1
  O  O305  1  0.12238757  0.37393393  0.86328620  1
  O  O306  1  0.12087815  0.86977408  0.37048709  1
  O  O307  1  0.11809565  0.87119162  0.86989301  1
  O  O308  1  0.62006473  0.36772669  0.36676855  1
  O  O309  1  0.62605535  0.36586236  0.86802607  1
  O  O310  1  0.62079261  0.86738736  0.36909513  1
  O  O311  1  0.62135306  0.86958653  0.86910519  1
  O  O312  1  0.37506874  0.12697191  0.13582064  1
  O  O313  1  0.38445568  0.12330530  0.63060535  1
  O  O314  1  0.38032811  0.62988418  0.12950340  1
  O  O315  1  0.37839650  0.62970917  0.62860839  1
  O  O316  1  0.88067344  0.13129189  0.12935104  1
  O  O317  1  0.88366253  0.12809942  0.62852141  1
  O  O318  1  0.87998211  0.62964919  0.13046634  1
  O  O319  1  0.87750598  0.63229165  0.63193467  1
  O  O320  1  0.25241145  0.25810346  0.11719308  1
  O  O321  1  0.25078426  0.26113723  0.62646905  1
  O  O322  1  0.25478539  0.75404850  0.11899826  1
  O  O323  1  0.24939486  0.75738632  0.61846356  1
  O  O324  1  0.76365712  0.25078632  0.12282653  1
  O  O325  1  0.74702307  0.25545562  0.61622505  1
  O  O326  1  0.75593246  0.75526481  0.11906631  1
  O  O327  1  0.75382187  0.75610834  0.62062273  1
  O  O328  1  0.24755810  0.23570344  0.37609753  1
  O  O329  1  0.24704820  0.24336438  0.88123489  1
  O  O330  1  0.24387734  0.74317930  0.37990214  1
  O  O331  1  0.24201585  0.75038731  0.88027933  1
  O  O332  1  0.74125946  0.24990384  0.38298192  1
  O  O333  1  0.74237229  0.24339417  0.87333763  1
  O  O334  1  0.74505890  0.74470446  0.38059723  1
  O  O335  1  0.74537588  0.74570048  0.88031760  1
  O  O336  1  0.00521490  0.11967259  0.00545445  1
  O  O337  1  0.00636630  0.11868538  0.50452538  1
  O  O338  1  0.00475468  0.61921507  0.00634491  1
  O  O339  1  0.00495204  0.62642107  0.50796622  1
  O  O340  1  0.50416941  0.11417466  -0.00009024  1
  O  O341  1  0.49992149  0.12238366  0.51094167  1
  O  O342  1  0.50556488  0.62076280  0.00339255  1
  O  O343  1  0.50746493  0.61838359  0.49886817  1
  O  O344  1  0.49967424  0.38230341  0.49245181  1
  O  O345  1  0.49313086  0.38336683  0.99556518  1
  O  O346  1  0.49107806  0.87085937  0.49366984  1
  O  O347  1  0.50179349  0.88451686  0.99403436  1
  O  O348  1  1.00095966  0.37589892  0.49060419  1
  O  O349  1  0.99051529  0.38067600  1.00021146  1
  O  O350  1  0.99460147  0.88043452  0.49600032  1
  O  O351  1  0.99444382  0.88139260  0.99464078  1
  O  O352  1  0.49436112  0.49506232  0.37976943  1
  O  O353  1  0.49002757  0.49957726  0.87877615  1
  O  O354  1  0.49912687  0.98892967  0.37738664  1
  O  O355  1  0.50297233  0.99494187  0.88351575  1
  O  O356  1  0.99450435  0.49025686  0.37712911  1
  O  O357  1  0.99187927  0.49872588  0.88238902  1
  O  O358  1  0.99498085  0.99323481  0.38150796  1
  O  O359  1  0.99460443  0.99665902  0.88024390  1
  O  O360  1  0.00515104  0.00465426  0.11877406  1
  O  O361  1  0.00579541  0.00446753  0.62008170  1
  O  O362  1  0.00559965  0.50536781  0.12030893  1
  O  O363  1  0.00039693  0.50988295  0.62567088  1
  O  O364  1  0.50809671  -0.00051048  0.11582581  1
  O  O365  1  0.50547178  0.00784808  0.62471290  1
  O  O366  1  0.50211737  0.50761287  0.11683864  1
  O  O367  1  0.50680521  0.50021102  0.61862705  1
  O  O368  1  0.24564785  0.38093281  0.24509828  1
  O  O369  1  0.24188433  0.38164920  0.74519006  1
  O  O370  1  0.24369404  0.87417517  0.24282369  1
  O  O371  1  0.24395018  0.87980398  0.74515925  1
  O  O372  1  0.74106743  0.38063252  0.25218960  1
  O  O373  1  0.74431432  0.38143681  0.74427637  1
  O  O374  1  0.74565498  0.87928183  0.24462926  1
  O  O375  1  0.74446026  0.88073886  0.74517386  1
  O  O376  1  0.25794232  0.12312938  0.25740155  1
  O  O377  1  0.25412363  0.11965850  0.75428115  1
  O  O378  1  0.25518662  0.61911891  0.25472036  1
  O  O379  1  0.24812761  0.61349436  0.75145118  1
  O  O380  1  0.75866559  0.11629074  0.25238600  1
  O  O381  1  0.75037183  0.12036974  0.75959479  1
  O  O382  1  0.75533108  0.61991211  0.25615208  1
  O  O383  1  0.75441147  0.62078823  0.75576427  1
  O  O384  1  0.36786647  0.12290170  0.36721858  1
  O  O385  1  0.36841643  0.12188879  0.86746844  1
  O  O386  1  0.36885113  0.61990160  0.36820824  1
  O  O387  1  0.37116754  0.61267310  0.87197571  1
  O  O388  1  0.87512735  0.11720846  0.36913346  1
  O  O389  1  0.86541159  0.12107117  0.87350492  1
  O  O390  1  0.86969605  0.62077975  0.37042618  1
  O  O391  1  0.86919143  0.62084411  0.87068949  1
  O  O392  1  0.13020768  0.38172341  0.13019023  1
  O  O393  1  0.13237074  0.37748239  0.63685691  1
  O  O394  1  0.12957987  0.87865340  0.12951710  1
  O  O395  1  0.12976512  0.88026281  0.63042230  1
  O  O396  1  0.62769658  0.37557338  0.13706269  1
  O  O397  1  0.63003863  0.38123333  0.63012707  1
  O  O398  1  0.63226129  0.87928856  0.13097762  1
  O  O399  1  0.63055076  0.87959113  0.63044605  1
  O  O400  1  0.12268844  0.25875679  0.25175972  1
  O  O401  1  0.11599352  0.25861488  0.75135847  1
  O  O402  1  0.12338123  0.75501852  0.25683803  1
  O  O403  1  0.11807739  0.75690333  0.75575272  1
  O  O404  1  0.62817693  0.25898283  0.25927784  1
  O  O405  1  0.62019450  0.25583603  0.75712023  1
  O  O406  1  0.62080777  0.75420869  0.25438112  1
  O  O407  1  0.61848242  0.75571723  0.75576752  1
  O  O408  1  0.37773197  0.23911692  0.24758114  1
  O  O409  1  0.38182693  0.24262365  0.74786638  1
  O  O410  1  0.38093044  0.74297380  0.24348444  1
  O  O411  1  0.38597206  0.75001803  0.75099828  1
  O  O412  1  0.87674700  0.24397219  0.24175262  1
  O  O413  1  0.88677868  0.25053340  0.74806302  1
  O  O414  1  0.87599963  0.74302473  0.24362715  1
  O  O415  1  0.87872149  0.74628019  0.74622022  1
  O  O416  1  0.38066243  0.49812716  0.49225944  1
  O  O417  1  0.37823053  0.49625091  0.99097882  1
  O  O418  1  0.37698401  0.98393223  0.49700348  1
  O  O419  1  0.38856846  0.99811934  0.99940532  1
  O  O420  1  0.87679036  0.49731788  0.49206487  1
  O  O421  1  0.87946785  0.49337923  0.99718614  1
  O  O422  1  0.88025714  0.99438667  0.49584248  1
  O  O423  1  0.88009986  0.99550814  0.99515782  1
  O  O424  1  0.11882873  0.00559852  0.00564581  1
  O  O425  1  0.11968700  0.00360711  0.50594318  1
  O  O426  1  0.11994955  0.50432961  0.00513043  1
  O  O427  1  0.12134805  0.51069242  0.50472778  1
  O  O428  1  0.61744600  0.00172611  0.00634181  1
  O  O429  1  0.62242690  0.00079367  0.50802931  1
  O  O430  1  0.61909673  0.50652529  -0.00112369  1
  O  O431  1  0.62035611  0.50479099  0.50405792  1
  O  O432  1  0.36777204  0.37697545  0.11732631  1
  O  O433  1  0.36237105  0.37409430  0.62539155  1
  O  O434  1  0.36874189  0.86677650  0.12394427  1
  O  O435  1  0.36879425  0.87141043  0.61515746  1
  O  O436  1  0.87635007  0.36697776  0.11965180  1
  O  O437  1  0.86549600  0.37223769  0.62228852  1
  O  O438  1  0.87054329  0.87025429  0.11974992  1
  O  O439  1  0.86898656  0.87079118  0.62070282  1
  O  O440  1  0.13361376  0.12275562  0.37973664  1
  O  O441  1  0.13214854  0.12590027  0.88313943  1
  O  O442  1  0.12991230  0.62989691  0.38010576  1
  O  O443  1  0.12392254  0.63292672  0.88171184  1
  O  O444  1  0.62637187  0.13617362  0.37436687  1
  O  O445  1  0.63352513  0.13572151  0.87368227  1
  O  O446  1  0.63131913  0.62981688  0.37935701  1
  O  O447  1  0.63135896  0.63105901  0.88041704  1
