# generated using pymatgen
data_V3Zn3O8
_symmetry_space_group_name_H-M   'P 1'
_cell_length_a   17.08382560
_cell_length_b   17.08362362
_cell_length_c   17.08280945
_cell_angle_alpha   90.01475691
_cell_angle_beta   89.98601382
_cell_angle_gamma   90.01118226
_symmetry_Int_Tables_number   1
_chemical_formula_structural   V3Zn3O8
_chemical_formula_sum   'V96 Zn96 O256'
_cell_volume   4985.67982211
_cell_formula_units_Z   32
loop_
 _symmetry_equiv_pos_site_id
 _symmetry_equiv_pos_as_xyz
  1  'x, y, z'
loop_
 _atom_site_type_symbol
 _atom_site_label
 _atom_site_symmetry_multiplicity
 _atom_site_fract_x
 _atom_site_fract_y
 _atom_site_fract_z
 _atom_site_occupancy
  V  V0  1  0.87480830  0.74939017  0.62392153  1
  V  V1  1  0.62459510  0.62644965  -0.00066130  1
  V  V2  1  0.24904878  0.24843336  0.50133364  1
  V  V3  1  0.87230722  0.50313573  0.87339694  1
  V  V4  1  0.50305695  0.75016209  0.74932908  1
  V  V5  1  0.24911342  0.62449370  0.37524333  1
  V  V6  1  0.37603478  0.74931580  0.62320552  1
  V  V7  1  0.49890445  0.62478022  0.12403553  1
  V  V8  1  0.87512950  -0.00044234  0.37502665  1
  V  V9  1  0.75013533  0.87609035  0.12517673  1
  V  V10  1  0.49912228  -0.00000257  0.49880482  1
  V  V11  1  0.62518721  0.00048644  0.12568192  1
  V  V12  1  0.87575381  0.25085861  0.12580723  1
  V  V13  1  0.75014337  0.25056460  0.00036812  1
  V  V14  1  0.74989394  0.37586956  0.62587088  1
  V  V15  1  0.62587783  0.37540573  0.74970602  1
  V  V16  1  0.87491406  0.00079029  0.87448499  1
  V  V17  1  0.37436745  0.49858488  0.37550645  1
  V  V18  1  0.12506944  0.75099312  0.87509896  1
  V  V19  1  0.00000017  0.87519973  0.87520847  1
  V  V20  1  0.62467892  0.25059677  0.37429831  1
  V  V21  1  0.37419582  0.62434492  0.24957891  1
  V  V22  1  0.12360435  0.50118988  0.12451317  1
  V  V23  1  0.62589516  0.12521462  0.50010550  1
  V  V24  1  0.37492489  0.87506547  -0.00084156  1
  V  V25  1  0.87560553  0.62474719  0.24720359  1
  V  V26  1  0.62477054  0.49906141  0.62436163  1
  V  V27  1  0.49952580  0.49868992  0.50008223  1
  V  V28  1  0.00070616  -0.00088565  0.50088015  1
  V  V29  1  0.49882195  0.50000699  -0.00083394  1
  V  V30  1  -0.00007732  0.50015937  0.50059556  1
  V  V31  1  0.24923548  0.75059111  -0.00124951  1
  V  V32  1  0.50018774  0.75014382  0.25027176  1
  V  V33  1  0.50140136  0.62393869  0.62398483  1
  V  V34  1  0.87484684  0.87547194  0.00061995  1
  V  V35  1  0.37522606  0.37520551  -0.00036576  1
  V  V36  1  0.74890828  0.74864282  0.49835874  1
  V  V37  1  0.12458823  0.50075457  0.62513584  1
  V  V38  1  0.12494519  0.25127524  0.87445709  1
  V  V39  1  0.74912634  0.87551681  0.62473738  1
  V  V40  1  0.24960743  0.50055185  0.74995754  1
  V  V41  1  0.12341135  0.25045080  0.37600191  1
  V  V42  1  0.00062991  0.87453276  0.37315192  1
  V  V43  1  0.37537813  0.25014222  0.62507825  1
  V  V44  1  0.87439782  0.37574757  -0.00007911  1
  V  V45  1  0.24890887  0.49868325  0.24969525  1
  V  V46  1  0.37508557  0.37409593  0.49997205  1
  V  V47  1  0.00055138  0.00140691  -0.00004629  1
  V  V48  1  -0.00021071  0.12664346  0.12466691  1
  V  V49  1  0.62421369  0.49956447  0.12550015  1
  V  V50  1  0.50102206  0.24984034  0.75038577  1
  V  V51  1  0.12512174  0.87471639  0.74936596  1
  V  V52  1  0.49929605  0.25004353  0.25025794  1
  V  V53  1  0.75066144  0.12472748  0.87524957  1
  V  V54  1  0.74969853  0.74966046  -0.00012973  1
  V  V55  1  0.50144929  0.87478775  0.87468043  1
  V  V56  1  0.87474007  0.87370599  0.49842112  1
  V  V57  1  0.62473011  0.12472938  0.00072664  1
  V  V58  1  0.37333924  0.12434266  0.25060750  1
  V  V59  1  0.25008654  0.24985396  0.00054931  1
  V  V60  1  0.24943057  0.87566620  0.12531244  1
  V  V61  1  0.12526862  0.87653411  0.24979419  1
  V  V62  1  0.75093549  0.24974743  0.50039065  1
  V  V63  1  0.12470390  0.12541963  -0.00012057  1
  V  V64  1  0.37419735  0.24933453  0.12559282  1
  V  V65  1  0.37546039  -0.00004111  0.37582253  1
  V  V66  1  0.62451026  0.74906774  0.37439092  1
  V  V67  1  0.62630406  -0.00047185  0.62519409  1
  V  V68  1  0.87548068  0.37543490  0.50034112  1
  V  V69  1  0.25222253  0.87386353  0.62404353  1
  V  V70  1  0.74906675  0.37568767  0.12545845  1
  V  V71  1  0.62562186  0.24995046  0.87536371  1
  V  V72  1  0.74933917  -0.00007443  0.24967032  1
  V  V73  1  0.49993051  0.12396906  0.12475035  1
  V  V74  1  0.87667443  0.12545349  0.74926711  1
  V  V75  1  0.62393038  0.37495382  0.24947107  1
  V  V76  1  0.50125124  0.12518672  0.62508495  1
  V  V77  1  0.37435136  0.74968516  0.12481375  1
  V  V78  1  0.12539410  0.74868831  0.37456379  1
  V  V79  1  0.25095544  0.12482307  0.87506102  1
  V  V80  1  0.87587419  0.12645016  0.24990262  1
  V  V81  1  0.24961044  0.37512475  0.12542952  1
  V  V82  1  0.12461324  0.00002964  0.62415663  1
  V  V83  1  0.87379464  0.49972916  0.37400477  1
  V  V84  1  0.37608730  0.12478904  0.75130963  1
  V  V85  1  0.37491395  -0.00011357  0.87486491  1
  V  V86  1  0.25039128  -0.00015088  0.25072650  1
  V  V87  1  -0.00051137  0.62565876  0.62427360  1
  V  V88  1  0.49985156  0.37520677  0.87572626  1
  V  V89  1  0.25040207  0.62482063  0.87388545  1
  V  V90  1  0.00005318  0.50148787  0.00089545  1
  V  V91  1  0.87667889  0.24998207  0.62569912  1
  V  V92  1  0.75082233  0.12479455  0.37523428  1
  V  V93  1  -0.00126471  0.74970551  0.74866283  1
  V  V94  1  0.12534414  0.37620406  0.75104196  1
  V  V95  1  0.00039609  0.37567066  0.87443346  1
  Zn  Zn96  1  0.00062207  0.25091756  0.25212013  1
  Zn  Zn97  1  0.62640691  0.74990690  0.87446824  1
  Zn  Zn98  1  0.74931047  -0.00184700  0.75001022  1
  Zn  Zn99  1  0.87174243  0.62627437  0.74982667  1
  Zn  Zn100  1  0.62347736  0.87527792  0.25004015  1
  Zn  Zn101  1  0.74948407  0.62449496  0.37411146  1
  Zn  Zn102  1  -0.00113431  0.75074410  0.24651373  1
  Zn  Zn103  1  0.12209599  0.37347886  0.25059607  1
  Zn  Zn104  1  0.12626398  0.62426454  0.49958632  1
  Zn  Zn105  1  0.62794200  0.87721412  0.75076001  1
  Zn  Zn106  1  0.37698876  0.87527979  0.49858658  1
  Zn  Zn107  1  0.12501261  0.00158358  0.12559912  1
  Zn  Zn108  1  0.00187221  0.25112411  0.74841204  1
  Zn  Zn109  1  0.37683779  0.62106841  0.74949436  1
  Zn  Zn110  1  0.24748386  0.12275790  0.37636621  1
  Zn  Zn111  1  0.49939416  0.37474773  0.37434333  1
  Zn  Zn112  1  0.74796565  0.50072405  0.25077689  1
  Zn  Zn113  1  0.00035506  0.62881990  0.12367838  1
  Zn  Zn114  1  0.24998901  0.37568632  0.62711270  1
  Zn  Zn115  1  0.62656842  0.62259385  0.49871441  1
  Zn  Zn116  1  0.74875059  0.50407363  0.74957062  1
  Zn  Zn117  1  0.12296032  0.62711904  0.00078861  1
  Zn  Zn118  1  0.87780184  0.74951955  0.12523132  1
  Zn  Zn119  1  0.00180781  0.12645613  0.62550995  1
  Zn  Zn120  1  0.74761945  0.62650122  0.87241227  1
  Zn  Zn121  1  0.37476005  0.49946370  0.87331237  1
  Zn  Zn122  1  0.49873561  0.87478960  0.37472010  1
  Zn  Zn123  1  0.25074708  0.00066934  0.74980976  1
  Zn  Zn124  1  0.50045435  -0.00058909  0.00091649  1
  Zn  Zn125  1  -0.00035875  0.37371283  0.37329645  1
  Zn  Zn126  1  0.12311973  0.12560328  0.50157714  1
  Zn  Zn127  1  0.25164172  0.74762416  0.49909719  1
  Zn  Zn128  1  0.18643911  0.18665794  0.18913889  1
  Zn  Zn129  1  0.18881417  0.18764178  0.68901149  1
  Zn  Zn130  1  0.18757367  0.68742330  0.18860661  1
  Zn  Zn131  1  0.18644984  0.68668883  0.68793237  1
  Zn  Zn132  1  0.68788550  0.18776729  0.18777797  1
  Zn  Zn133  1  0.68979044  0.18737982  0.68772825  1
  Zn  Zn134  1  0.68924155  0.68653028  0.18754802  1
  Zn  Zn135  1  0.68813078  0.68592572  0.68671382  1
  Zn  Zn136  1  0.30979677  0.31248189  0.31371795  1
  Zn  Zn137  1  0.31220506  0.31293908  0.81277975  1
  Zn  Zn138  1  0.31283314  0.81388895  0.31288560  1
  Zn  Zn139  1  0.31422627  0.81166752  0.80951906  1
  Zn  Zn140  1  0.81154898  0.31359494  0.31168996  1
  Zn  Zn141  1  0.81259144  0.31340258  0.81144959  1
  Zn  Zn142  1  0.81132781  0.81116608  0.31064213  1
  Zn  Zn143  1  0.81269441  0.81328538  0.81179821  1
  Zn  Zn144  1  0.18692511  0.43527315  0.43893037  1
  Zn  Zn145  1  0.18718475  0.43849013  0.93860526  1
  Zn  Zn146  1  0.18922765  0.93555112  0.43801364  1
  Zn  Zn147  1  0.18768222  0.93886515  0.93765383  1
  Zn  Zn148  1  0.68774663  0.43636373  0.43770207  1
  Zn  Zn149  1  0.68702840  0.43866006  0.93823396  1
  Zn  Zn150  1  0.68586172  0.93529953  0.43708213  1
  Zn  Zn151  1  0.68772972  0.93833333  0.93819640  1
  Zn  Zn152  1  0.31256141  0.06083317  0.06249403  1
  Zn  Zn153  1  0.31303101  0.06343535  0.56281654  1
  Zn  Zn154  1  0.31118116  0.56251323  0.06041061  1
  Zn  Zn155  1  0.31169889  0.56267100  0.56234879  1
  Zn  Zn156  1  0.81288878  0.06318392  0.06266250  1
  Zn  Zn157  1  0.81339477  0.06143738  0.56308824  1
  Zn  Zn158  1  0.81114637  0.56278221  0.06280087  1
  Zn  Zn159  1  0.81127425  0.56375313  0.56147839  1
  Zn  Zn160  1  0.43716116  0.43695323  0.18747283  1
  Zn  Zn161  1  0.43659904  0.43705304  0.68783326  1
  Zn  Zn162  1  0.43797456  0.93661440  0.18895042  1
  Zn  Zn163  1  0.43871577  0.93812509  0.68785875  1
  Zn  Zn164  1  0.93991712  0.43585052  0.19005885  1
  Zn  Zn165  1  0.93825723  0.43853249  0.68878199  1
  Zn  Zn166  1  0.93789427  0.93918366  0.18662428  1
  Zn  Zn167  1  0.93655390  0.93613292  0.68737119  1
  Zn  Zn168  1  0.06356233  0.06474871  0.31352032  1
  Zn  Zn169  1  0.06280167  0.06234471  0.81198023  1
  Zn  Zn170  1  0.05985418  0.56210529  0.31128430  1
  Zn  Zn171  1  0.06143708  0.56400634  0.81158647  1
  Zn  Zn172  1  0.56181721  0.06317229  0.31219590  1
  Zn  Zn173  1  0.56311060  0.06103034  0.81204373  1
  Zn  Zn174  1  0.56091529  0.56284347  0.31322890  1
  Zn  Zn175  1  0.56357855  0.56306281  0.81273909  1
  Zn  Zn176  1  0.43683724  0.18619218  0.43635758  1
  Zn  Zn177  1  0.43843773  0.18743572  0.93843615  1
  Zn  Zn178  1  0.43905694  0.68472718  0.43764193  1
  Zn  Zn179  1  0.43614100  0.68779255  0.93642385  1
  Zn  Zn180  1  0.93987065  0.18526936  0.44057354  1
  Zn  Zn181  1  0.93854676  0.18899430  0.93708863  1
  Zn  Zn182  1  0.93861699  0.68589808  0.43570391  1
  Zn  Zn183  1  0.93763204  0.68720005  0.93896561  1
  Zn  Zn184  1  0.06164572  0.31396809  0.06173638  1
  Zn  Zn185  1  0.06141540  0.31483111  0.56414956  1
  Zn  Zn186  1  0.06255323  0.81297131  0.06377710  1
  Zn  Zn187  1  0.06268953  0.81172561  0.56003263  1
  Zn  Zn188  1  0.56179087  0.31207016  0.06307567  1
  Zn  Zn189  1  0.56224175  0.31328221  0.56169699  1
  Zn  Zn190  1  0.56352049  0.81311630  0.06330421  1
  Zn  Zn191  1  0.56363442  0.81460420  0.55998678  1
  O  O192  1  0.11855408  0.12517029  0.11725225  1
  O  O193  1  0.12477028  0.11153044  0.62599092  1
  O  O194  1  0.12583678  0.61240032  0.12358753  1
  O  O195  1  0.11787584  0.61957852  0.62317007  1
  O  O196  1  0.62004495  0.12069769  0.12005807  1
  O  O197  1  0.62093484  0.12119238  0.61916077  1
  O  O198  1  0.61802033  0.61970668  0.11942617  1
  O  O199  1  0.61805272  0.61744254  0.62280905  1
  O  O200  1  0.37543961  0.38112980  0.38134777  1
  O  O201  1  0.38226013  0.37440364  0.88236156  1
  O  O202  1  0.37709792  0.88367264  0.37825163  1
  O  O203  1  0.38261371  0.87873071  0.87851335  1
  O  O204  1  0.87404052  0.38362705  0.38145811  1
  O  O205  1  0.87936078  0.38250421  0.88041397  1
  O  O206  1  0.88000786  0.88035180  0.37896768  1
  O  O207  1  0.88116126  0.88124222  0.88062381  1
  O  O208  1  0.25681170  0.00080435  0.36973004  1
  O  O209  1  0.25659620  0.00642024  0.87280266  1
  O  O210  1  0.25442112  0.50409699  0.36959801  1
  O  O211  1  0.24943610  0.50998817  0.87039079  1
  O  O212  1  0.75525633  0.00520782  0.37070661  1
  O  O213  1  0.75695569  0.00703223  0.87434869  1
  O  O214  1  0.76201110  0.50096647  0.37469479  1
  O  O215  1  0.76095182  0.50070781  0.87539326  1
  O  O216  1  0.24281991  0.49521820  0.12877233  1
  O  O217  1  0.24321358  0.49950012  0.63206588  1
  O  O218  1  0.24930008  0.99295001  0.13157540  1
  O  O219  1  0.24304815  0.99110422  0.62625168  1
  O  O220  1  0.74136929  0.49243399  0.12459352  1
  O  O221  1  0.74348113  0.49266173  0.62491292  1
  O  O222  1  0.74492407  0.99665898  0.13006922  1
  O  O223  1  0.74424390  0.99317689  0.62447503  1
  O  O224  1  0.00414649  0.36843741  0.25481937  1
  O  O225  1  0.00752299  0.37464970  0.75757471  1
  O  O226  1  0.00668764  0.87638581  0.25662122  1
  O  O227  1  0.00491204  0.86934201  0.75592172  1
  O  O228  1  0.50555905  0.36729455  0.25010450  1
  O  O229  1  0.50588565  0.36843112  0.75556502  1
  O  O230  1  0.50218430  0.86498836  0.25176568  1
  O  O231  1  0.50009240  0.86690397  0.75843750  1
  O  O232  1  0.49367957  0.13090541  0.24380101  1
  O  O233  1  0.49587089  0.13120909  0.74522215  1
  O  O234  1  0.49273018  0.62957338  0.24287469  1
  O  O235  1  0.49902240  0.63454440  0.74448652  1
  O  O236  1  0.99285557  0.12661908  0.24342291  1
  O  O237  1  0.98798969  0.12701187  0.74975957  1
  O  O238  1  0.98770786  0.62555185  0.24758008  1
  O  O239  1  0.99778584  0.63303229  0.74285160  1
  O  O240  1  0.36970293  0.25467137  0.00628080  1
  O  O241  1  0.36819054  0.25319137  0.50464312  1
  O  O242  1  0.36890909  0.75562196  0.00539855  1
  O  O243  1  0.37642620  0.75171896  0.51318312  1
  O  O244  1  0.86919261  0.25595411  0.00474182  1
  O  O245  1  0.86951159  0.25460832  0.50551469  1
  O  O246  1  0.86582286  0.75672371  0.00061961  1
  O  O247  1  0.87009796  0.75542780  0.50328966  1
  O  O248  1  0.13379747  0.25045981  0.49615628  1
  O  O249  1  0.13113903  0.24542644  0.99442021  1
  O  O250  1  0.12674442  0.74906156  0.48569652  1
  O  O251  1  0.13208498  0.75077008  0.99247572  1
  O  O252  1  0.63088192  0.24459513  0.49508634  1
  O  O253  1  0.63049961  0.24486837  0.99505941  1
  O  O254  1  0.62962856  0.74843391  0.49037073  1
  O  O255  1  0.63380496  0.74516855  1.00005624  1
  O  O256  1  0.49372891  0.24398170  0.13027172  1
  O  O257  1  0.49596219  0.24402745  0.63052097  1
  O  O258  1  0.49369701  0.74407586  0.12898464  1
  O  O259  1  0.49468773  0.74660703  0.63120889  1
  O  O260  1  0.99282084  0.24412935  0.12410817  1
  O  O261  1  0.99248769  0.24714398  0.62789629  1
  O  O262  1  0.99669053  0.74717764  0.12844294  1
  O  O263  1  0.99481787  0.74639477  0.62846777  1
  O  O264  1  0.01087071  0.25067019  0.37780985  1
  O  O265  1  0.00725270  0.25800288  0.87477844  1
  O  O266  1  0.00940802  0.75607658  0.37231242  1
  O  O267  1  0.00489852  0.75606328  0.87009660  1
  O  O268  1  0.50663887  0.24999011  0.36806631  1
  O  O269  1  0.50655279  0.25488316  0.87020151  1
  O  O270  1  0.50783674  0.74863383  0.36907700  1
  O  O271  1  0.49808259  0.75844052  0.86615047  1
  O  O272  1  0.24865401  0.13798837  0.50052066  1
  O  O273  1  0.24547847  0.13064021  0.99483965  1
  O  O274  1  0.24723565  0.62748454  0.49089037  1
  O  O275  1  0.24858185  0.63206688  0.99003387  1
  O  O276  1  0.74591173  0.13034309  0.49471814  1
  O  O277  1  0.74518069  0.13152873  0.99482016  1
  O  O278  1  0.74736409  0.63422148  0.49645937  1
  O  O279  1  0.74386597  0.63531784  1.00039454  1
  O  O280  1  0.25552100  0.36911907  0.00516611  1
  O  O281  1  0.25655181  0.36384136  0.50314680  1
  O  O282  1  0.25534204  0.86991215  0.00417887  1
  O  O283  1  0.25260903  0.87079806  0.51385363  1
  O  O284  1  0.75433496  0.36911114  0.00559361  1
  O  O285  1  0.75565552  0.36830050  0.50618993  1
  O  O286  1  0.75488174  0.86868599  0.00480842  1
  O  O287  1  0.75613373  0.86883039  0.50420728  1
  O  O288  1  0.13069025  0.49864034  0.24085864  1
  O  O289  1  0.12999689  0.49558195  0.74539096  1
  O  O290  1  0.13222330  0.99446896  0.24967326  1
  O  O291  1  0.12637489  0.99285432  0.74090457  1
  O  O292  1  0.62413401  0.49389382  0.24335652  1
  O  O293  1  0.62468045  0.49204614  0.74317125  1
  O  O294  1  0.63209833  1.00055081  0.24401988  1
  O  O295  1  0.62805047  0.99895993  0.74105363  1
  O  O296  1  0.37008967  0.00491215  0.25568268  1
  O  O297  1  0.37481978  0.00743692  0.75638053  1
  O  O298  1  0.36931894  0.50505497  0.25441254  1
  O  O299  1  0.36673036  0.50146915  0.75300022  1
  O  O300  1  0.86920255  0.00664460  0.25598591  1
  O  O301  1  0.87450725  0.00884100  0.75573079  1
  O  O302  1  0.87369521  0.50526716  0.25881470  1
  O  O303  1  0.87350050  0.50077396  0.76227716  1
  O  O304  1  0.12382351  0.36309313  0.37460915  1
  O  O305  1  0.12033280  0.37068509  0.87112779  1
  O  O306  1  0.12131119  0.86743890  0.36979496  1
  O  O307  1  0.12009035  0.87079483  0.86927702  1
  O  O308  1  0.62378963  0.36769248  0.36816058  1
  O  O309  1  0.61980732  0.36902080  0.87071153  1
  O  O310  1  0.62207587  0.86238752  0.37215314  1
  O  O311  1  0.61279748  0.87381323  0.87443667  1
  O  O312  1  0.37971379  0.13032520  0.12990352  1
  O  O313  1  0.38169923  0.13060020  0.63135596  1
  O  O314  1  0.37876088  0.63026270  0.12932841  1
  O  O315  1  0.38123252  0.63433064  0.62699094  1
  O  O316  1  0.87955286  0.13144249  0.12956099  1
  O  O317  1  0.87495550  0.12980240  0.63450113  1
  O  O318  1  0.87666683  0.62352149  0.13505273  1
  O  O319  1  0.88164769  0.63227457  0.62520953  1
  O  O320  1  0.25487300  0.25464378  0.11982213  1
  O  O321  1  0.25621661  0.25108132  0.61733288  1
  O  O322  1  0.25528800  0.75513302  0.11961552  1
  O  O323  1  0.25917224  0.75643181  0.62618456  1
  O  O324  1  0.75545452  0.25530287  0.11908039  1
  O  O325  1  0.75571904  0.25550609  0.61902225  1
  O  O326  1  0.75092387  0.75658059  0.11436882  1
  O  O327  1  0.75464903  0.75582643  0.61798115  1
  O  O328  1  0.24253096  0.24851518  0.38562998  1
  O  O329  1  0.24516134  0.24467498  0.88166610  1
  O  O330  1  0.24192552  0.74436774  0.37487099  1
  O  O331  1  0.24560521  0.74439026  0.87773046  1
  O  O332  1  0.74499234  0.24412697  0.38086898  1
  O  O333  1  0.74485692  0.24545876  0.88110282  1
  O  O334  1  0.74056439  0.74993767  0.38013224  1
  O  O335  1  0.74847462  0.75176522  0.88817678  1
  O  O336  1  0.00495837  0.12075984  0.00398484  1
  O  O337  1  0.00198013  0.11372580  0.50579395  1
  O  O338  1  0.00319233  0.61661232  0.00225425  1
  O  O339  1  0.00169769  0.61793403  0.50641607  1
  O  O340  1  0.50678591  0.12408786  0.00685691  1
  O  O341  1  0.50653087  0.12110770  0.50593969  1
  O  O342  1  0.50334528  0.62073336  0.00518641  1
  O  O343  1  0.50148984  0.61611296  0.50712610  1
  O  O344  1  0.49284344  0.38029699  0.49785772  1
  O  O345  1  0.49504801  0.37946121  0.99541703  1
  O  O346  1  0.49768468  0.88563614  0.49795943  1
  O  O347  1  0.49348084  0.87383187  0.99026195  1
  O  O348  1  0.99142946  0.38293349  0.49945923  1
  O  O349  1  0.99341687  0.38160261  0.99391323  1
  O  O350  1  0.99403075  0.87942567  0.49286515  1
  O  O351  1  0.99506425  0.88134429  0.99389069  1
  O  O352  1  0.49177145  0.49858904  0.38117149  1
  O  O353  1  0.49867125  0.49312106  0.88149286  1
  O  O354  1  0.49350038  1.00094537  0.38094326  1
  O  O355  1  0.49441479  0.99010394  0.87622594  1
  O  O356  1  0.98912019  0.49864027  0.38134448  1
  O  O357  1  0.99256622  0.49545525  0.88064328  1
  O  O358  1  0.99484353  0.99447674  0.38073777  1
  O  O359  1  0.99507708  0.99467882  0.88026256  1
  O  O360  1  0.00089894  0.00851253  0.11707587  1
  O  O361  1  0.01075912  -0.00411257  0.61967373  1
  O  O362  1  0.00988838  0.49878810  0.11925500  1
  O  O363  1  0.00447257  0.50616383  0.62052460  1
  O  O364  1  0.50592260  0.00633595  0.12410781  1
  O  O365  1  0.50528639  0.00702700  0.61981595  1
  O  O366  1  0.50405841  0.50551957  0.11891465  1
  O  O367  1  0.50465788  0.50406428  0.62015737  1
  O  O368  1  0.24882683  0.38148611  0.24243624  1
  O  O369  1  0.24320834  0.38219984  0.75054605  1
  O  O370  1  0.24535957  0.88055712  0.24409935  1
  O  O371  1  0.24511639  0.87541696  0.73912205  1
  O  O372  1  0.74192074  0.37600925  0.24239623  1
  O  O373  1  0.74272389  0.37580121  0.74322764  1
  O  O374  1  0.74912651  0.88289100  0.24311339  1
  O  O375  1  0.74828327  0.87712703  0.74141675  1
  O  O376  1  0.25664534  0.11773084  0.25080273  1
  O  O377  1  0.25831463  0.12444427  0.75772741  1
  O  O378  1  0.25612728  0.61833295  0.25508227  1
  O  O379  1  0.25054727  0.62044449  0.75951601  1
  O  O380  1  0.75578124  0.12015627  0.25583642  1
  O  O381  1  0.76095892  0.12452450  0.75656398  1
  O  O382  1  0.76079750  0.62101654  0.25178799  1
  O  O383  1  0.75377481  0.62264721  0.75471891  1
  O  O384  1  0.37220550  0.11840903  0.36757878  1
  O  O385  1  0.37104870  0.12064700  0.87106918  1
  O  O386  1  0.36925470  0.61877983  0.36891566  1
  O  O387  1  0.36240533  0.62468786  0.87247270  1
  O  O388  1  0.86964804  0.11911430  0.37094996  1
  O  O389  1  0.87046720  0.12135695  0.86866200  1
  O  O390  1  0.87424540  0.61538972  0.36706522  1
  O  O391  1  0.87392061  0.61330910  0.87509880  1
  O  O392  1  0.13159206  0.38462658  0.12436667  1
  O  O393  1  0.12629615  0.38300092  0.63329236  1
  O  O394  1  0.13245891  0.87755906  0.13148398  1
  O  O395  1  0.13286358  0.87992375  0.62918859  1
  O  O396  1  0.62906321  0.37961484  0.12944545  1
  O  O397  1  0.62992093  0.37883819  0.63028566  1
  O  O398  1  0.63188284  0.88246934  0.12624519  1
  O  O399  1  0.63164017  0.88216091  0.62486152  1
  O  O400  1  0.12529501  0.25022826  0.26272142  1
  O  O401  1  0.12504453  0.25669720  0.75728783  1
  O  O402  1  0.12546971  0.75636011  0.26026989  1
  O  O403  1  0.11878910  0.75651841  0.75474530  1
  O  O404  1  0.61925229  0.25429885  0.25459527  1
  O  O405  1  0.62039507  0.25450812  0.75558954  1
  O  O406  1  0.61949302  0.74923853  0.25778939  1
  O  O407  1  0.61252701  0.75304018  0.75053444  1
  O  O408  1  0.37844739  0.24485956  0.24464335  1
  O  O409  1  0.38168448  0.24502281  0.74568918  1
  O  O410  1  0.37886823  0.74342385  0.24415565  1
  O  O411  1  0.38584324  0.74931150  0.73914274  1
  O  O412  1  0.87456648  0.24322695  0.24367300  1
  O  O413  1  0.87597641  0.24136498  0.74526644  1
  O  O414  1  0.87573459  0.73886432  0.24860519  1
  O  O415  1  0.88230092  0.75111091  0.74220705  1
  O  O416  1  0.37907446  0.49377222  0.49537082  1
  O  O417  1  0.38116582  0.49288380  0.99880080  1
  O  O418  1  0.38164895  1.00178085  0.49384427  1
  O  O419  1  0.37706210  0.99268676  0.99331613  1
  O  O420  1  0.87920702  0.49550844  0.49254169  1
  O  O421  1  0.87921589  0.49446989  0.99289171  1
  O  O422  1  0.87987843  0.99330107  0.49420519  1
  O  O423  1  0.88053106  0.99623999  0.99356235  1
  O  O424  1  0.11841341  0.00758388  0.00018962  1
  O  O425  1  0.12077169  -0.00242993  0.51004033  1
  O  O426  1  0.11953616  0.50074975  0.00934934  1
  O  O427  1  0.11799081  0.50022715  0.50646427  1
  O  O428  1  0.62408414  0.00779254  0.00702374  1
  O  O429  1  0.62017471  0.00717363  0.50433381  1
  O  O430  1  0.61801274  0.50529238  0.00589420  1
  O  O431  1  0.61776192  0.49863318  0.50622152  1
  O  O432  1  0.36947542  0.36885674  0.11935332  1
  O  O433  1  0.37385118  0.36672919  0.61887747  1
  O  O434  1  0.36962471  0.86876457  0.11941540  1
  O  O435  1  0.36785939  0.86730375  0.62579252  1
  O  O436  1  0.86933493  0.37088522  0.11905182  1
  O  O437  1  0.86969533  0.37036616  0.62049921  1
  O  O438  1  0.86771131  0.87647105  0.11737063  1
  O  O439  1  0.87006514  0.86936114  0.61742310  1
  O  O440  1  0.12767772  0.13516166  0.38075252  1
  O  O441  1  0.13064292  0.13058012  0.87982840  1
  O  O442  1  0.13004602  0.63347694  0.37284317  1
  O  O443  1  0.13487481  0.63228923  0.87560955  1
  O  O444  1  0.63149639  0.13066685  0.38042946  1
  O  O445  1  0.63020965  0.13056141  0.88011183  1
  O  O446  1  0.62695769  0.63581640  0.37590028  1
  O  O447  1  0.62605756  0.62881224  0.88434484  1
