# generated using pymatgen
data_V3Zn3O8
_symmetry_space_group_name_H-M   'P 1'
_cell_length_a   17.08852143
_cell_length_b   17.08752437
_cell_length_c   17.08768768
_cell_angle_alpha   89.99861943
_cell_angle_beta   90.01443239
_cell_angle_gamma   89.98512188
_symmetry_Int_Tables_number   1
_chemical_formula_structural   V3Zn3O8
_chemical_formula_sum   'V96 Zn96 O256'
_cell_volume   4989.61346736
_cell_formula_units_Z   32
loop_
 _symmetry_equiv_pos_site_id
 _symmetry_equiv_pos_as_xyz
  1  'x, y, z'
loop_
 _atom_site_type_symbol
 _atom_site_label
 _atom_site_symmetry_multiplicity
 _atom_site_fract_x
 _atom_site_fract_y
 _atom_site_fract_z
 _atom_site_occupancy
  V  V0  1  0.87477038  0.37459948  0.00130492  1
  V  V1  1  0.74955390  0.12479145  0.37452290  1
  V  V2  1  0.87561731  0.50054645  0.37459549  1
  V  V3  1  0.87581755  0.74981880  0.62439460  1
  V  V4  1  0.75026509  0.87396459  0.62367973  1
  V  V5  1  0.37457977  0.00028921  0.37434002  1
  V  V6  1  0.25035168  0.00026723  0.75007884  1
  V  V7  1  0.00120996  0.12393499  0.12453582  1
  V  V8  1  0.50085364  0.25041213  0.25023433  1
  V  V9  1  0.74895384  -0.00188434  0.24845278  1
  V  V10  1  0.37422533  0.62686985  0.24953662  1
  V  V11  1  0.50085787  0.37376403  0.87555238  1
  V  V12  1  0.00078825  0.00077235  0.00112710  1
  V  V13  1  0.37378404  0.87453105  0.50003793  1
  V  V14  1  0.50047671  0.12537935  0.12443511  1
  V  V15  1  0.62549330  0.12582198  -0.00201969  1
  V  V16  1  0.12490131  0.74950588  0.87583696  1
  V  V17  1  0.12582393  0.37623244  0.25039028  1
  V  V18  1  0.12472362  0.00078352  0.62519063  1
  V  V19  1  0.12502338  0.49866940  0.62719716  1
  V  V20  1  0.00055279  0.37465786  0.37551853  1
  V  V21  1  0.37574140  0.12464938  0.25108497  1
  V  V22  1  0.00043050  0.37349068  0.87562048  1
  V  V23  1  0.37492633  0.75158611  0.12434744  1
  V  V24  1  0.50065351  0.87473285  0.87257033  1
  V  V25  1  0.37479775  0.50150011  0.37462507  1
  V  V26  1  0.37554336  0.12578938  0.74867263  1
  V  V27  1  0.62534519  0.62387645  0.50089324  1
  V  V28  1  0.74920632  0.74964767  -0.00161897  1
  V  V29  1  0.75056627  0.74939862  0.49972816  1
  V  V30  1  0.62417318  0.74999995  0.37302962  1
  V  V31  1  0.87485472  0.12384597  0.74994629  1
  V  V32  1  0.74963574  0.37519469  0.62475104  1
  V  V33  1  -0.00159557  0.87528593  0.37471640  1
  V  V34  1  0.24979503  0.50123362  0.25039001  1
  V  V35  1  0.25056610  0.37568823  0.12626374  1
  V  V36  1  0.00000657  0.62504352  0.62671460  1
  V  V37  1  0.00094259  0.49992788  0.50179193  1
  V  V38  1  0.25065005  0.87493943  0.62458295  1
  V  V39  1  0.87386039  0.49959264  0.87660082  1
  V  V40  1  0.62542747  0.24965118  0.37562793  1
  V  V41  1  0.87581300  0.37481057  0.50024476  1
  V  V42  1  0.12597085  0.87714368  0.24781089  1
  V  V43  1  -0.00007288  0.12474206  0.62500670  1
  V  V44  1  0.37541796  0.00019220  0.87429320  1
  V  V45  1  0.49967736  0.87391116  0.37434442  1
  V  V46  1  0.74891783  0.62436479  0.87557949  1
  V  V47  1  0.24985478  0.75023543  0.50095462  1
  V  V48  1  0.75071130  0.12509217  0.87421907  1
  V  V49  1  0.74961089  0.24960740  -0.00045203  1
  V  V50  1  0.37500410  0.87501218  -0.00033532  1
  V  V51  1  -0.00037366  0.87499732  0.87526297  1
  V  V52  1  0.25059395  0.25060700  0.50028530  1
  V  V53  1  0.00011790  0.49988181  0.00104568  1
  V  V54  1  0.00005754  0.24985522  0.25053606  1
  V  V55  1  0.87535031  0.25035839  0.12536124  1
  V  V56  1  0.62400082  0.62562626  -0.00005113  1
  V  V57  1  -0.00023802  0.74949273  0.74986708  1
  V  V58  1  -0.00111748  0.00044813  0.49923774  1
  V  V59  1  0.24949850  0.24961654  0.00028667  1
  V  V60  1  0.24906698  0.49857715  0.75150742  1
  V  V61  1  0.49975449  0.25044124  0.74982145  1
  V  V62  1  0.25100841  0.12574676  0.37500213  1
  V  V63  1  0.74914427  0.49955972  0.75010418  1
  V  V64  1  0.49993791  0.50032733  0.50162317  1
  V  V65  1  -0.00054058  0.62507436  0.12419941  1
  V  V66  1  0.24950235  0.75082277  0.00024942  1
  V  V67  1  0.37570525  0.62534815  0.74898745  1
  V  V68  1  0.62604762  0.37606787  0.24966004  1
  V  V69  1  0.00099596  0.25021750  0.75161778  1
  V  V70  1  0.50018737  0.00019945  0.49975166  1
  V  V71  1  0.12529119  0.87464085  0.75018813  1
  V  V72  1  0.12477087  0.75030363  0.37615568  1
  V  V73  1  0.12610387  0.62540640  0.50067524  1
  V  V74  1  0.12420280  0.62553989  0.00028570  1
  V  V75  1  0.87544722  0.00023274  0.87388308  1
  V  V76  1  0.12601718  0.24960615  0.37576459  1
  V  V77  1  0.87375836  0.74957498  0.12380820  1
  V  V78  1  0.24980943  0.37424545  0.62616594  1
  V  V79  1  0.50064816  0.37597985  0.37484276  1
  V  V80  1  0.24990603  0.12576977  0.87606769  1
  V  V81  1  0.49921377  0.62593025  0.12431072  1
  V  V82  1  0.37505406  0.25050049  0.62464701  1
  V  V83  1  0.74897108  0.37570262  0.12635765  1
  V  V84  1  0.87448593  0.12490267  0.25007522  1
  V  V85  1  0.62429093  0.87397077  0.74904075  1
  V  V86  1  0.49913301  0.50084080  0.00097168  1
  V  V87  1  0.87471646  0.62451096  0.25074068  1
  V  V88  1  0.62569299  -0.00012573  0.62287003  1
  V  V89  1  0.87563414  0.24968675  0.62451863  1
  V  V90  1  0.87367510  0.87432575  -0.00048855  1
  V  V91  1  0.62557539  -0.00060531  0.12383483  1
  V  V92  1  0.37427764  0.49988586  0.87575039  1
  V  V93  1  0.37516282  0.25064273  0.12625610  1
  V  V94  1  0.62543152  0.12439080  0.49941598  1
  V  V95  1  0.50041985  0.00067713  -0.00138871  1
  Zn  Zn96  1  0.75102246  0.62379219  0.37459808  1
  Zn  Zn97  1  0.62506309  0.50109537  0.12695426  1
  Zn  Zn98  1  0.75024710  0.24901537  0.49976813  1
  Zn  Zn99  1  0.87339308  -0.00077063  0.37438284  1
  Zn  Zn100  1  0.49933145  0.75124443  0.24817966  1
  Zn  Zn101  1  0.12545155  0.12579842  0.49945764  1
  Zn  Zn102  1  0.49989445  0.62605809  0.62654502  1
  Zn  Zn103  1  0.37481270  0.37694208  0.00205029  1
  Zn  Zn104  1  0.74824625  0.87373924  0.12337080  1
  Zn  Zn105  1  0.12570227  0.50120400  0.12545872  1
  Zn  Zn106  1  0.87447811  0.62563660  0.75097387  1
  Zn  Zn107  1  0.62397313  0.87255557  0.24637205  1
  Zn  Zn108  1  0.49935674  0.74787855  0.74795119  1
  Zn  Zn109  1  0.50134044  0.12647941  0.62449367  1
  Zn  Zn110  1  0.37512874  0.37575040  0.50004933  1
  Zn  Zn111  1  0.25103289  0.87846518  0.12564887  1
  Zn  Zn112  1  0.37693519  0.74923832  0.62524046  1
  Zn  Zn113  1  0.62364102  0.74927655  0.87331496  1
  Zn  Zn114  1  0.87357374  0.87407908  0.49855640  1
  Zn  Zn115  1  0.12800499  0.00152813  0.12429521  1
  Zn  Zn116  1  0.12507925  0.24914447  0.87502414  1
  Zn  Zn117  1  0.24993776  0.00127334  0.24817432  1
  Zn  Zn118  1  0.62616122  0.24979994  0.87240023  1
  Zn  Zn119  1  0.62434584  0.49979538  0.62582272  1
  Zn  Zn120  1  -0.00070890  0.75123575  0.24935509  1
  Zn  Zn121  1  0.75114448  0.00011354  0.74800088  1
  Zn  Zn122  1  0.74840638  0.49970766  0.25070253  1
  Zn  Zn123  1  0.24953902  0.62577178  0.37499080  1
  Zn  Zn124  1  0.62437744  0.37313319  0.74884063  1
  Zn  Zn125  1  0.12556652  0.12282305  0.00105676  1
  Zn  Zn126  1  0.12475232  0.37330321  0.75257574  1
  Zn  Zn127  1  0.24929958  0.62410417  0.87574500  1
  Zn  Zn128  1  0.18724131  0.18708338  0.18814497  1
  Zn  Zn129  1  0.18648340  0.18779735  0.68793850  1
  Zn  Zn130  1  0.18758832  0.69017200  0.18681783  1
  Zn  Zn131  1  0.18926814  0.68664406  0.68791863  1
  Zn  Zn132  1  0.68700480  0.18739594  0.18685054  1
  Zn  Zn133  1  0.68694972  0.18794660  0.68800217  1
  Zn  Zn134  1  0.68841051  0.68584967  0.18593785  1
  Zn  Zn135  1  0.68809013  0.68778452  0.68675857  1
  Zn  Zn136  1  0.31366014  0.31390490  0.31347605  1
  Zn  Zn137  1  0.31376543  0.31301771  0.81291494  1
  Zn  Zn138  1  0.31055036  0.81227323  0.31279765  1
  Zn  Zn139  1  0.31223436  0.81095769  0.81358587  1
  Zn  Zn140  1  0.81193775  0.31235946  0.31283484  1
  Zn  Zn141  1  0.81467310  0.31159263  0.81264827  1
  Zn  Zn142  1  0.81157291  0.81150063  0.31198820  1
  Zn  Zn143  1  0.81134885  0.81178722  0.81140821  1
  Zn  Zn144  1  0.18880931  0.43754787  0.43844583  1
  Zn  Zn145  1  0.18609085  0.43675639  0.93792381  1
  Zn  Zn146  1  0.18713854  0.93871422  0.43631765  1
  Zn  Zn147  1  0.18742858  0.93774039  0.93881402  1
  Zn  Zn148  1  0.68931999  0.43828962  0.43560150  1
  Zn  Zn149  1  0.68497053  0.43809480  0.93969658  1
  Zn  Zn150  1  0.68663847  0.93591072  0.43675892  1
  Zn  Zn151  1  0.68837835  0.93838961  0.93514708  1
  Zn  Zn152  1  0.31216135  0.06174889  0.06426580  1
  Zn  Zn153  1  0.31294366  0.06360403  0.56162309  1
  Zn  Zn154  1  0.31179541  0.56413993  0.06299041  1
  Zn  Zn155  1  0.31155049  0.56164542  0.56395396  1
  Zn  Zn156  1  0.81371383  0.06270044  0.06191458  1
  Zn  Zn157  1  0.81204313  0.06148419  0.56181566  1
  Zn  Zn158  1  0.81043023  0.56165937  0.06392168  1
  Zn  Zn159  1  0.81397779  0.56335795  0.56258046  1
  Zn  Zn160  1  0.43729774  0.43911826  0.18794546  1
  Zn  Zn161  1  0.43593700  0.43749074  0.68781450  1
  Zn  Zn162  1  0.43911715  0.93695867  0.18803993  1
  Zn  Zn163  1  0.43853270  0.93849136  0.68538075  1
  Zn  Zn164  1  0.93788002  0.43838686  0.18744054  1
  Zn  Zn165  1  0.93646419  0.43680729  0.68965112  1
  Zn  Zn166  1  0.93636057  0.93762030  0.18555428  1
  Zn  Zn167  1  0.93678327  0.93607528  0.68675127  1
  Zn  Zn168  1  0.06370032  0.06288212  0.31233173  1
  Zn  Zn169  1  0.06380739  0.06393643  0.81431956  1
  Zn  Zn170  1  0.06224811  0.56294122  0.31296784  1
  Zn  Zn171  1  0.06221977  0.56188906  0.81374488  1
  Zn  Zn172  1  0.56306001  0.06148638  0.31257530  1
  Zn  Zn173  1  0.56358472  0.06248586  0.81036221  1
  Zn  Zn174  1  0.56115260  0.56323206  0.31139149  1
  Zn  Zn175  1  0.56260069  0.56064015  0.81379241  1
  Zn  Zn176  1  0.43792415  0.18773833  0.43881431  1
  Zn  Zn177  1  0.43559318  0.18833950  0.93722996  1
  Zn  Zn178  1  0.43668130  0.68733732  0.43701058  1
  Zn  Zn179  1  0.43776586  0.68890879  0.93483147  1
  Zn  Zn180  1  0.93572827  0.18710902  0.43696948  1
  Zn  Zn181  1  0.93778373  0.18696450  0.93796972  1
  Zn  Zn182  1  0.93910367  0.68774470  0.43837392  1
  Zn  Zn183  1  0.93604812  0.68644582  0.93711182  1
  Zn  Zn184  1  0.06446227  0.31238439  0.06368349  1
  Zn  Zn185  1  0.06412073  0.31214652  0.56358580  1
  Zn  Zn186  1  0.06063379  0.81194832  0.06337677  1
  Zn  Zn187  1  0.06316323  0.81299791  0.56270565  1
  Zn  Zn188  1  0.56375228  0.31289850  0.06199872  1
  Zn  Zn189  1  0.56339616  0.31226852  0.56233822  1
  Zn  Zn190  1  0.56290248  0.81245650  0.06107382  1
  Zn  Zn191  1  0.55947557  0.81043346  0.56353617  1
  O  O192  1  0.11559359  0.12358536  0.12452071  1
  O  O193  1  0.11783056  0.11790417  0.62377730  1
  O  O194  1  0.11708338  0.62542523  0.11852951  1
  O  O195  1  0.11936315  0.61901233  0.62034242  1
  O  O196  1  0.61912547  0.12027487  0.11812829  1
  O  O197  1  0.62528436  0.11836761  0.61763215  1
  O  O198  1  0.61738020  0.62455920  0.11805279  1
  O  O199  1  0.62419714  0.62249496  0.61174210  1
  O  O200  1  0.38329972  0.38278238  0.37642548  1
  O  O201  1  0.38622018  0.38067180  0.87668237  1
  O  O202  1  0.37957708  0.88031082  0.38063758  1
  O  O203  1  0.38041514  0.88159133  0.87902723  1
  O  O204  1  0.88178361  0.37919926  0.38023378  1
  O  O205  1  0.87990499  0.38004659  0.88269325  1
  O  O206  1  0.88662669  0.87616622  0.37557848  1
  O  O207  1  0.88076427  0.87987755  0.87907859  1
  O  O208  1  0.25730732  0.00756163  0.37453206  1
  O  O209  1  0.25617655  0.00465548  0.86941692  1
  O  O210  1  0.25655263  0.50146620  0.36892631  1
  O  O211  1  0.25642015  0.49984806  0.86982313  1
  O  O212  1  0.74973102  0.00473820  0.36477524  1
  O  O213  1  0.75839953  0.00728480  0.87261176  1
  O  O214  1  0.76055039  0.50284964  0.37245331  1
  O  O215  1  0.75403671  0.50263770  0.86833282  1
  O  O216  1  0.24906106  0.49366030  0.13206273  1
  O  O217  1  0.24422699  0.49343041  0.63086726  1
  O  O218  1  0.24667679  0.99633565  0.12968310  1
  O  O219  1  0.24437964  0.99540421  0.63022462  1
  O  O220  1  0.74724286  0.49054816  0.12787364  1
  O  O221  1  0.75239696  0.49149769  0.63315164  1
  O  O222  1  0.74479933  1.00133350  0.13355449  1
  O  O223  1  0.74375568  0.99189412  0.62486074  1
  O  O224  1  0.00477111  0.36953835  0.25586371  1
  O  O225  1  -0.00147987  0.36794570  0.75773032  1
  O  O226  1  0.00601946  0.87537043  0.25980277  1
  O  O227  1  0.00621348  0.86971353  0.75518961  1
  O  O228  1  0.50559806  0.36942067  0.25525303  1
  O  O229  1  0.50041309  0.37054206  0.75935904  1
  O  O230  1  0.50397066  0.87204001  0.25859822  1
  O  O231  1  0.50942714  0.87652364  0.75392612  1
  O  O232  1  0.49613081  0.13095412  0.24457762  1
  O  O233  1  0.49312291  0.13164023  0.74847339  1
  O  O234  1  0.49227271  0.62734347  0.24286482  1
  O  O235  1  0.48962009  0.62259578  0.74892109  1
  O  O236  1  0.99399697  0.13072188  0.24600798  1
  O  O237  1  0.99410198  0.12924163  0.74452935  1
  O  O238  1  0.99007675  0.62653438  0.24458137  1
  O  O239  1  0.99845310  0.63141308  0.74435549  1
  O  O240  1  0.36494812  0.25073851  0.00743632  1
  O  O241  1  0.36942419  0.25251373  0.50619144  1
  O  O242  1  0.36959304  0.75558919  0.00371631  1
  O  O243  1  0.36773743  0.75671281  0.50019264  1
  O  O244  1  0.86951337  0.25531172  0.00635566  1
  O  O245  1  0.87395748  0.25685543  0.50664058  1
  O  O246  1  0.86890903  0.75468699  0.00400443  1
  O  O247  1  0.86891752  0.75049650  0.50609462  1
  O  O248  1  0.13130420  0.24861263  0.49330189  1
  O  O249  1  0.13909914  0.24786351  1.00059399  1
  O  O250  1  0.12981081  0.74527193  0.49616023  1
  O  O251  1  0.12876364  0.74608026  0.99474282  1
  O  O252  1  0.62675411  0.24313010  0.49310097  1
  O  O253  1  0.63186597  0.24281938  0.99817843  1
  O  O254  1  0.62897923  0.74166785  0.49252603  1
  O  O255  1  0.63151979  0.74365472  0.99688813  1
  O  O256  1  0.49545752  0.24461576  0.13035562  1
  O  O257  1  0.49365677  0.25002148  0.63153427  1
  O  O258  1  0.49280899  0.74381009  0.12454641  1
  O  O259  1  0.49440640  0.74455350  0.62889038  1
  O  O260  1  0.99423672  0.24540747  0.13133982  1
  O  O261  1  0.99456714  0.24448698  0.62992204  1
  O  O262  1  0.99077246  0.74264597  0.12570090  1
  O  O263  1  0.99637267  0.74529831  0.63030444  1
  O  O264  1  0.00505093  0.25537651  0.37000606  1
  O  O265  1  -0.00065513  0.25576999  0.86975196  1
  O  O266  1  0.00594718  0.76119349  0.37620752  1
  O  O267  1  0.00452308  0.75577525  0.87004064  1
  O  O268  1  0.50548057  0.25571277  0.36967931  1
  O  O269  1  0.49875029  0.25906333  0.86942548  1
  O  O270  1  0.50966395  0.75508756  0.37543958  1
  O  O271  1  0.50299908  0.75978575  0.87014999  1
  O  O272  1  0.24861404  0.13228805  0.49308214  1
  O  O273  1  0.25151847  0.13419789  0.99528066  1
  O  O274  1  0.24284671  0.63102914  0.50000505  1
  O  O275  1  0.24238066  0.63233164  0.99872681  1
  O  O276  1  0.74396037  0.12524112  0.49240732  1
  O  O277  1  0.74586496  0.13030946  0.99460081  1
  O  O278  1  0.74104019  0.62951241  0.49822187  1
  O  O279  1  0.74437230  0.62916552  0.99484904  1
  O  O280  1  0.25204086  0.36606457  0.00669095  1
  O  O281  1  0.25203484  0.36872522  0.50731715  1
  O  O282  1  0.25768408  0.86895400  0.00013417  1
  O  O283  1  0.25386227  0.87092328  0.50513025  1
  O  O284  1  0.75529199  0.36950076  0.00515045  1
  O  O285  1  0.75717553  0.37561174  0.50956861  1
  O  O286  1  0.75668906  0.86892227  -0.00108203  1
  O  O287  1  0.75091046  0.86744546  0.50540162  1
  O  O288  1  0.13091636  0.49379955  0.24963249  1
  O  O289  1  0.13074055  0.49877707  0.74423626  1
  O  O290  1  0.12560527  0.98868834  0.25008273  1
  O  O291  1  0.13029390  0.99421524  0.74513195  1
  O  O292  1  0.62671319  0.49225220  0.24883913  1
  O  O293  1  0.63776863  0.49694202  0.74800435  1
  O  O294  1  0.63439175  1.00064547  0.24343329  1
  O  O295  1  0.62675466  0.99012699  0.74238270  1
  O  O296  1  0.37630025  0.00731127  0.25726451  1
  O  O297  1  0.36935643  0.00509454  0.75459409  1
  O  O298  1  0.36949708  0.50673145  0.25534077  1
  O  O299  1  0.36916979  0.50646608  0.75588559  1
  O  O300  1  0.86451493  0.00603065  0.24979115  1
  O  O301  1  0.87513758  0.00600215  0.75566891  1
  O  O302  1  0.87649622  0.50912581  0.25612584  1
  O  O303  1  0.86408289  0.50068762  0.75706865  1
  O  O304  1  0.11951808  0.36967720  0.37027614  1
  O  O305  1  0.11525170  0.37152257  0.87382406  1
  O  O306  1  0.11629710  0.87102896  0.36870412  1
  O  O307  1  0.11900277  0.86983581  0.86922067  1
  O  O308  1  0.62038273  0.36931190  0.37012430  1
  O  O309  1  0.61181516  0.37366297  0.87421103  1
  O  O310  1  0.61878793  0.86350112  0.37548733  1
  O  O311  1  0.61984925  0.87669834  0.86396637  1
  O  O312  1  0.38208128  0.13073992  0.13108155  1
  O  O313  1  0.37625839  0.13174638  0.63159332  1
  O  O314  1  0.37988725  0.63220360  0.12968993  1
  O  O315  1  0.37547770  0.62369193  0.63773822  1
  O  O316  1  0.88045143  0.13180083  0.13051145  1
  O  O317  1  0.88015031  0.12959711  0.62958691  1
  O  O318  1  0.87952702  0.62904909  0.13188012  1
  O  O319  1  0.88260106  0.63144472  0.62676004  1
  O  O320  1  0.25587209  0.25470316  0.11943509  1
  O  O321  1  0.25497726  0.25448501  0.62031557  1
  O  O322  1  0.25717995  0.75420347  0.11749231  1
  O  O323  1  0.25071276  0.75798255  0.61871607  1
  O  O324  1  0.75622023  0.25456544  0.11965914  1
  O  O325  1  0.75691423  0.25999497  0.62454870  1
  O  O326  1  0.75639489  0.75048324  0.11671303  1
  O  O327  1  0.75548216  0.75433933  0.61894534  1
  O  O328  1  0.24575406  0.24611363  0.38037170  1
  O  O329  1  0.25220110  0.24528409  0.88496064  1
  O  O330  1  0.24187542  0.74919192  0.38346148  1
  O  O331  1  0.24192273  0.74885106  0.88197271  1
  O  O332  1  0.74331059  0.24326656  0.37606262  1
  O  O333  1  0.75015856  0.24385757  0.88169920  1
  O  O334  1  0.74046705  0.74850045  0.38083265  1
  O  O335  1  0.74894279  0.74219158  0.88063514  1
  O  O336  1  0.00021366  0.11912778  0.00680027  1
  O  O337  1  0.00047893  0.11580879  0.50501755  1
  O  O338  1  0.00385534  0.61947929  0.00474253  1
  O  O339  1  0.00631587  0.61931199  0.50698394  1
  O  O340  1  0.50446828  0.12020099  0.00443765  1
  O  O341  1  0.50743918  0.11797970  0.50026918  1
  O  O342  1  0.50417733  0.62059598  0.00387660  1
  O  O343  1  0.50825198  0.61546806  0.49895906  1
  O  O344  1  0.50140511  0.38559124  0.49367542  1
  O  O345  1  0.49777852  0.37997924  0.99212401  1
  O  O346  1  0.49404969  0.88035316  0.49381722  1
  O  O347  1  0.49533340  0.88190549  0.99250990  1
  O  O348  1  0.99538810  0.38033694  0.49551720  1
  O  O349  1  0.99381258  0.37912687  0.99686765  1
  O  O350  1  1.00079441  0.88380505  0.49134550  1
  O  O351  1  0.99331483  0.87954413  0.99366100  1
  O  O352  1  0.49513812  0.49564755  0.38295650  1
  O  O353  1  0.49449365  0.49131269  0.88048072  1
  O  O354  1  0.49507823  0.99430088  0.38049109  1
  O  O355  1  0.49438545  0.99559029  0.87940642  1
  O  O356  1  0.99603306  0.49363103  0.38230529  1
  O  O357  1  0.99308271  0.49428763  0.88130595  1
  O  O358  1  0.99957988  0.99251218  0.38319899  1
  O  O359  1  0.99477608  0.99432655  0.87989766  1
  O  O360  1  -0.00090217  0.00708106  0.11815218  1
  O  O361  1  0.00453889  0.00360475  0.61738019  1
  O  O362  1  0.00117789  0.50639936  0.11802765  1
  O  O363  1  0.00420636  0.50437724  0.62093040  1
  O  O364  1  0.50526003  0.00644875  0.11819369  1
  O  O365  1  0.50749900  0.00199060  0.61662076  1
  O  O366  1  0.49967171  0.50778882  0.11818613  1
  O  O367  1  0.50289336  0.49993016  0.61330307  1
  O  O368  1  0.24513479  0.38036845  0.24595155  1
  O  O369  1  0.24889997  0.38087295  0.74439303  1
  O  O370  1  0.23762823  0.87713889  0.25056944  1
  O  O371  1  0.24479376  0.88104675  0.74542739  1
  O  O372  1  0.74393267  0.37466474  0.24394827  1
  O  O373  1  0.75139601  0.38238065  0.74208458  1
  O  O374  1  0.74811159  0.88664281  0.24776972  1
  O  O375  1  0.74047629  0.87608310  0.74317558  1
  O  O376  1  0.25845805  0.12608399  0.25745320  1
  O  O377  1  0.25583998  0.11934248  0.75512009  1
  O  O378  1  0.25564653  0.61937711  0.25083661  1
  O  O379  1  0.25784429  0.61750849  0.75248551  1
  O  O380  1  0.75401536  0.11707696  0.25396837  1
  O  O381  1  0.75754365  0.12373599  0.75540507  1
  O  O382  1  0.76349171  0.62273508  0.25115371  1
  O  O383  1  0.75043593  0.61507421  0.75476363  1
  O  O384  1  0.37135761  0.12035294  0.36986337  1
  O  O385  1  0.36976077  0.11912276  0.86864099  1
  O  O386  1  0.37320473  0.61903557  0.36814508  1
  O  O387  1  0.37355183  0.61808074  0.86578063  1
  O  O388  1  0.86827949  0.12343585  0.36737637  1
  O  O389  1  0.87059842  0.11950607  0.86945072  1
  O  O390  1  0.87714818  0.62036631  0.36639055  1
  O  O391  1  0.86719430  0.61679209  0.87435316  1
  O  O392  1  0.13210122  0.37620750  0.13351832  1
  O  O393  1  0.13114618  0.38174628  0.62748046  1
  O  O394  1  0.12317099  0.87504883  0.13751093  1
  O  O395  1  0.13027411  0.88108729  0.63094537  1
  O  O396  1  0.63109335  0.37472751  0.13230186  1
  O  O397  1  0.63859615  0.37719792  0.62504647  1
  O  O398  1  0.62747132  0.88343441  0.12568719  1
  O  O399  1  0.62969810  0.87934812  0.63044552  1
  O  O400  1  0.11932187  0.25642522  0.25644458  1
  O  O401  1  0.11603767  0.25168610  0.75256124  1
  O  O402  1  0.12125586  0.75941405  0.25697422  1
  O  O403  1  0.11993909  0.75571486  0.75509778  1
  O  O404  1  0.61910779  0.25437934  0.25572888  1
  O  O405  1  0.61660490  0.25324018  0.75273920  1
  O  O406  1  0.62475593  0.74886247  0.26203865  1
  O  O407  1  0.62432425  0.76268226  0.74998274  1
  O  O408  1  0.38195755  0.24475576  0.24607887  1
  O  O409  1  0.38017246  0.24467464  0.74450259  1
  O  O410  1  0.37525362  0.74491159  0.24341856  1
  O  O411  1  0.37409590  0.73762523  0.74969953  1
  O  O412  1  0.88079638  0.24510682  0.24486643  1
  O  O413  1  0.88132177  0.24340957  0.74385143  1
  O  O414  1  0.87580538  0.74057163  0.24431675  1
  O  O415  1  0.88201449  0.74844504  0.74342016  1
  O  O416  1  0.38506224  0.50038224  0.49462163  1
  O  O417  1  0.38098246  0.49946426  0.99362607  1
  O  O418  1  0.38016422  0.99468004  0.49403497  1
  O  O419  1  0.38145353  0.99589668  0.99360436  1
  O  O420  1  0.88237586  0.49513752  0.49531057  1
  O  O421  1  0.87973284  0.49363110  0.99588500  1
  O  O422  1  0.88726189  0.99699162  0.49768860  1
  O  O423  1  0.88054844  0.99450728  0.99357976  1
  O  O424  1  0.11577882  0.00094119  0.00216175  1
  O  O425  1  0.11419616  0.00140673  0.50543782  1
  O  O426  1  0.11777573  0.50698004  0.00196987  1
  O  O427  1  0.11981719  0.50494667  0.50658331  1
  O  O428  1  0.61980551  0.00605336  0.00386371  1
  O  O429  1  0.61954301  0.00437741  0.50326639  1
  O  O430  1  0.61675943  0.50755163  0.00227824  1
  O  O431  1  0.61750960  0.50863051  0.49740192  1
  O  O432  1  0.36895504  0.36774471  0.12571887  1
  O  O433  1  0.36769775  0.36837645  0.62359970  1
  O  O434  1  0.37673049  0.86936995  0.11681810  1
  O  O435  1  0.36743997  0.87602900  0.61791602  1
  O  O436  1  0.87018587  0.36897942  0.12051934  1
  O  O437  1  0.86806643  0.37026965  0.62018690  1
  O  O438  1  0.87290252  0.86792683  0.11731912  1
  O  O439  1  0.86893280  0.86754982  0.62291643  1
  O  O440  1  0.13188594  0.13254103  0.37546447  1
  O  O441  1  0.13460834  0.12775984  0.87865776  1
  O  O442  1  0.12424175  0.63198860  0.38284069  1
  O  O443  1  0.12463846  0.63229061  0.88229731  1
  O  O444  1  0.62998300  0.13022910  0.37962123  1
  O  O445  1  0.63203947  0.12538079  0.88084450  1
  O  O446  1  0.62524757  0.63330228  0.38393721  1
  O  O447  1  0.63144264  0.62576001  0.88142405  1
