# generated using pymatgen
data_V3Zn3O8
_symmetry_space_group_name_H-M   'P 1'
_cell_length_a   17.08311927
_cell_length_b   17.08342317
_cell_length_c   17.08312225
_cell_angle_alpha   90.00120751
_cell_angle_beta   89.99221995
_cell_angle_gamma   89.99931379
_symmetry_Int_Tables_number   1
_chemical_formula_structural   V3Zn3O8
_chemical_formula_sum   'V96 Zn96 O256'
_cell_volume   4985.50684173
_cell_formula_units_Z   32
loop_
 _symmetry_equiv_pos_site_id
 _symmetry_equiv_pos_as_xyz
  1  'x, y, z'
loop_
 _atom_site_type_symbol
 _atom_site_label
 _atom_site_symmetry_multiplicity
 _atom_site_fract_x
 _atom_site_fract_y
 _atom_site_fract_z
 _atom_site_occupancy
  V  V0  1  0.12609681  0.37300113  0.24982673  1
  V  V1  1  0.87494427  -0.00033431  0.87460874  1
  V  V2  1  0.25011868  -0.00028120  0.24996454  1
  V  V3  1  -0.00035780  0.49911847  0.49981636  1
  V  V4  1  0.87378068  0.62460394  0.75019817  1
  V  V5  1  0.75033898  0.62546230  0.87584897  1
  V  V6  1  0.49782384  -0.00042280  0.50031723  1
  V  V7  1  0.00156756  0.00105267  0.00131294  1
  V  V8  1  0.87597712  0.25021199  0.12532187  1
  V  V9  1  0.00088169  0.37324616  0.37430497  1
  V  V10  1  0.87571448  0.37429723  0.50008504  1
  V  V11  1  -0.00122949  0.12567451  0.62400684  1
  V  V12  1  0.75068863  0.25022627  0.50112102  1
  V  V13  1  0.25092908  0.49849645  0.24986915  1
  V  V14  1  0.75080973  0.37520247  0.62482994  1
  V  V15  1  0.62421977  0.87566535  0.25077762  1
  V  V16  1  0.62477435  0.00027371  0.12421675  1
  V  V17  1  0.12445372  0.62515722  0.49902500  1
  V  V18  1  0.37509415  0.50005218  0.37611071  1
  V  V19  1  0.49837173  0.87558848  0.37620839  1
  V  V20  1  0.37538034  0.87586577  0.00008097  1
  V  V21  1  0.62474671  0.25021269  0.37583118  1
  V  V22  1  0.37472835  0.62459897  0.25061995  1
  V  V23  1  -0.00113519  0.62499758  0.62400168  1
  V  V24  1  0.87453407  0.62424397  0.25005608  1
  V  V25  1  0.37520296  0.12483104  0.24917565  1
  V  V26  1  0.00102160  0.50073147  0.00070647  1
  V  V27  1  0.62579659  0.25070896  0.87535950  1
  V  V28  1  -0.00139309  0.87497705  0.37363257  1
  V  V29  1  0.24789548  0.00081381  0.74959708  1
  V  V30  1  0.50072659  0.62508769  0.12486356  1
  V  V31  1  0.87333671  0.87406796  0.49993947  1
  V  V32  1  0.24887984  0.24773913  0.49938794  1
  V  V33  1  0.12454324  0.00005127  0.12409586  1
  V  V34  1  0.87507503  0.12424782  0.75029690  1
  V  V35  1  0.62506112  0.37448325  0.24969162  1
  V  V36  1  0.75041535  0.49998376  0.25008860  1
  V  V37  1  0.87494687  0.37389774  0.00004560  1
  V  V38  1  0.74927175  0.12506733  0.37589171  1
  V  V39  1  0.62403722  -0.00076492  0.62603284  1
  V  V40  1  0.25080758  0.50018052  0.74911283  1
  V  V41  1  0.75060190  0.37413920  0.12454006  1
  V  V42  1  0.12507247  0.37669421  0.74993887  1
  V  V43  1  0.12426257  0.74947319  0.87397112  1
  V  V44  1  0.00082904  0.62365420  0.12426006  1
  V  V45  1  0.87418502  0.75016328  0.62427028  1
  V  V46  1  0.75026482  0.75022819  0.00025206  1
  V  V47  1  0.62646848  0.12452486  -0.00093287  1
  V  V48  1  0.12450632  0.74893690  0.37513537  1
  V  V49  1  0.74917073  0.00052763  0.25045192  1
  V  V50  1  0.50051737  0.75150929  0.75142887  1
  V  V51  1  0.74940506  0.87433842  0.62484186  1
  V  V52  1  0.62389607  0.74945774  0.37613558  1
  V  V53  1  0.62445909  0.50052072  0.12485388  1
  V  V54  1  0.25149996  0.37523984  0.12518182  1
  V  V55  1  0.87523705  0.12678963  0.24880949  1
  V  V56  1  0.50094788  0.25166133  0.75057435  1
  V  V57  1  -0.00075460  0.00019353  0.49921744  1
  V  V58  1  0.37572219  0.25084559  0.62553547  1
  V  V59  1  0.37332862  0.00057205  0.87437707  1
  V  V60  1  0.37688381  0.50044538  0.87470495  1
  V  V61  1  -0.00006185  0.37580698  0.87466324  1
  V  V62  1  0.12537732  0.50024068  0.62548485  1
  V  V63  1  0.25044144  0.74879179  -0.00080778  1
  V  V64  1  0.12564585  0.25005944  0.87441644  1
  V  V65  1  0.25007717  0.87403742  0.12494518  1
  V  V66  1  0.49930065  0.24899387  0.24976419  1
  V  V67  1  0.50016686  0.37504784  0.37486341  1
  V  V68  1  0.62476204  0.87512316  0.74958132  1
  V  V69  1  0.62524767  0.62441982  0.49911523  1
  V  V70  1  0.87402830  0.00005247  0.37456305  1
  V  V71  1  0.62600778  0.49988924  0.62683300  1
  V  V72  1  0.37376006  -0.00090284  0.37552286  1
  V  V73  1  0.37503926  0.74979113  0.12487279  1
  V  V74  1  -0.00041305  0.74919998  0.24919664  1
  V  V75  1  0.49959796  0.12578559  0.62541553  1
  V  V76  1  0.62592322  0.62618886  0.00084422  1
  V  V77  1  0.62437742  0.12512061  0.50099738  1
  V  V78  1  0.87549876  0.75007413  0.12499677  1
  V  V79  1  0.49964219  -0.00035569  -0.00022189  1
  V  V80  1  0.50026360  0.50002012  0.50059178  1
  V  V81  1  0.12442298  0.87454119  0.24943950  1
  V  V82  1  0.74949295  0.62476219  0.37375863  1
  V  V83  1  0.25121550  0.62557502  0.87524058  1
  V  V84  1  0.75013189  0.87528618  0.12563708  1
  V  V85  1  0.37224156  0.75204992  0.62416355  1
  V  V86  1  0.49926349  0.75042480  0.25094042  1
  V  V87  1  0.87426910  0.50006679  0.87459454  1
  V  V88  1  0.37486025  0.37477919  0.50081305  1
  V  V89  1  0.24886417  0.62487350  0.37601962  1
  V  V90  1  0.25102635  0.24946692  -0.00067596  1
  V  V91  1  0.87528588  0.87561956  0.00017121  1
  V  V92  1  0.37837329  0.37599401  -0.00141265  1
  V  V93  1  0.00038764  0.75001095  0.75010062  1
  V  V94  1  0.12488806  -0.00048994  0.62414960  1
  V  V95  1  0.37586501  0.62584622  0.75042022  1
  Zn  Zn96  1  0.37797905  0.24882202  0.12382288  1
  Zn  Zn97  1  0.37098307  0.87528398  0.50023148  1
  Zn  Zn98  1  0.74970656  0.49925935  0.75134291  1
  Zn  Zn99  1  0.00007365  0.25098274  0.74939643  1
  Zn  Zn100  1  0.87463188  0.50000230  0.37443293  1
  Zn  Zn101  1  0.12581523  0.24706923  0.37517777  1
  Zn  Zn102  1  0.24877870  0.87593081  0.62183633  1
  Zn  Zn103  1  0.74854898  -0.00053174  0.75029084  1
  Zn  Zn104  1  0.62616026  0.75198876  0.87546339  1
  Zn  Zn105  1  0.00050647  0.87378014  0.87332666  1
  Zn  Zn106  1  0.50326368  0.87597750  0.87581696  1
  Zn  Zn107  1  0.12419856  0.12561832  0.49551459  1
  Zn  Zn108  1  0.75074857  0.12595081  0.87303400  1
  Zn  Zn109  1  0.50150133  0.50149542  -0.00183105  1
  Zn  Zn110  1  0.24574959  0.12403541  0.37397873  1
  Zn  Zn111  1  0.87477045  0.25088414  0.62707017  1
  Zn  Zn112  1  0.00174217  0.24842723  0.24863152  1
  Zn  Zn113  1  0.37279507  0.12701661  0.75107063  1
  Zn  Zn114  1  0.50099120  0.12576316  0.12536609  1
  Zn  Zn115  1  0.12302695  0.87481289  0.74862215  1
  Zn  Zn116  1  0.75166249  0.24941952  -0.00136989  1
  Zn  Zn117  1  0.50049564  0.62508152  0.62529461  1
  Zn  Zn118  1  0.12616744  0.50084482  0.12308607  1
  Zn  Zn119  1  0.25002779  0.37492631  0.62497008  1
  Zn  Zn120  1  0.74896877  0.74909383  0.49952187  1
  Zn  Zn121  1  0.00229327  0.12797480  0.12665820  1
  Zn  Zn122  1  0.62888369  0.37686804  0.75367805  1
  Zn  Zn123  1  0.24785769  0.12423018  0.87596971  1
  Zn  Zn124  1  0.24859730  0.75277130  0.50061619  1
  Zn  Zn125  1  0.50270324  0.37815701  0.87473539  1
  Zn  Zn126  1  0.12656141  0.62283573  0.00223731  1
  Zn  Zn127  1  0.12532848  0.12612422  0.00191962  1
  Zn  Zn128  1  0.18874838  0.18718318  0.18510088  1
  Zn  Zn129  1  0.18798446  0.18665225  0.68685012  1
  Zn  Zn130  1  0.18684345  0.68595830  0.18760611  1
  Zn  Zn131  1  0.18800322  0.68591318  0.68794724  1
  Zn  Zn132  1  0.68881015  0.18844557  0.18661105  1
  Zn  Zn133  1  0.68844720  0.18700931  0.68831511  1
  Zn  Zn134  1  0.68735032  0.68802160  0.18807055  1
  Zn  Zn135  1  0.68808729  0.68710265  0.68759541  1
  Zn  Zn136  1  0.31295379  0.31057072  0.31475508  1
  Zn  Zn137  1  0.31281801  0.31542860  0.81225403  1
  Zn  Zn138  1  0.31142035  0.81209174  0.31349209  1
  Zn  Zn139  1  0.31022731  0.81599726  0.81051458  1
  Zn  Zn140  1  0.81352299  0.31214304  0.31276758  1
  Zn  Zn141  1  0.81134785  0.31200945  0.81115038  1
  Zn  Zn142  1  0.81112538  0.81121353  0.31269887  1
  Zn  Zn143  1  0.81222132  0.81281895  0.81191663  1
  Zn  Zn144  1  0.18757731  0.43576763  0.43813924  1
  Zn  Zn145  1  0.18836899  0.43811032  0.93724140  1
  Zn  Zn146  1  0.18794741  0.93661344  0.43811695  1
  Zn  Zn147  1  0.18717288  0.93447604  0.93720767  1
  Zn  Zn148  1  0.68859694  0.43815489  0.43793551  1
  Zn  Zn149  1  0.68829796  0.43823317  0.93919429  1
  Zn  Zn150  1  0.68627738  0.93708104  0.43904076  1
  Zn  Zn151  1  0.68882862  0.93715262  0.93555816  1
  Zn  Zn152  1  0.31169874  0.06338148  0.06342999  1
  Zn  Zn153  1  0.31345834  0.06534333  0.56296869  1
  Zn  Zn154  1  0.31328090  0.56150616  0.06234723  1
  Zn  Zn155  1  0.31176821  0.56512203  0.56344966  1
  Zn  Zn156  1  0.81202798  0.06460366  0.06277919  1
  Zn  Zn157  1  0.81114600  0.06045279  0.56316427  1
  Zn  Zn158  1  0.81293051  0.56168689  0.06253573  1
  Zn  Zn159  1  0.81189662  0.56164848  0.56004696  1
  Zn  Zn160  1  0.43786890  0.43721567  0.18621149  1
  Zn  Zn161  1  0.43922007  0.43591722  0.68743602  1
  Zn  Zn162  1  0.43837217  0.93884263  0.18686892  1
  Zn  Zn163  1  0.43659249  0.93639440  0.68834688  1
  Zn  Zn164  1  0.93805054  0.43756993  0.18689098  1
  Zn  Zn165  1  0.93765089  0.43781768  0.68804510  1
  Zn  Zn166  1  0.93710919  0.93899397  0.18747721  1
  Zn  Zn167  1  0.93873105  0.93563236  0.68805633  1
  Zn  Zn168  1  0.06234181  0.06405409  0.31134661  1
  Zn  Zn169  1  0.06180650  0.06443848  0.81329368  1
  Zn  Zn170  1  0.06283436  0.55995970  0.31153907  1
  Zn  Zn171  1  0.06200630  0.56335947  0.81287468  1
  Zn  Zn172  1  0.56082987  0.06245949  0.31390699  1
  Zn  Zn173  1  0.56018846  0.06326701  0.81233714  1
  Zn  Zn174  1  0.56269592  0.56207770  0.31214744  1
  Zn  Zn175  1  0.56310934  0.56489064  0.81347915  1
  Zn  Zn176  1  0.43575776  0.18658778  0.43659209  1
  Zn  Zn177  1  0.43894395  0.18541593  0.93570035  1
  Zn  Zn178  1  0.43778978  0.68677176  0.43972500  1
  Zn  Zn179  1  0.43919974  0.68797017  0.93711953  1
  Zn  Zn180  1  0.93640843  0.18906533  0.43673969  1
  Zn  Zn181  1  0.93955699  0.18733366  0.93879084  1
  Zn  Zn182  1  0.93636085  0.68768960  0.43677108  1
  Zn  Zn183  1  0.93790029  0.68591566  0.93815379  1
  Zn  Zn184  1  0.06200211  0.31444829  0.06327450  1
  Zn  Zn185  1  0.06364060  0.31209090  0.56347134  1
  Zn  Zn186  1  0.06269147  0.81202602  0.06055043  1
  Zn  Zn187  1  0.06072955  0.81315377  0.56134592  1
  Zn  Zn188  1  0.56171393  0.31099678  0.06375494  1
  Zn  Zn189  1  0.56322062  0.31395929  0.56312043  1
  Zn  Zn190  1  0.56237337  0.81303250  0.06236520  1
  Zn  Zn191  1  0.56037523  0.81249074  0.56286216  1
  O  O192  1  0.12300644  0.11608571  0.12236298  1
  O  O193  1  0.11456602  0.11572612  0.62457573  1
  O  O194  1  0.11727904  0.62198321  0.12372066  1
  O  O195  1  0.11819625  0.61999410  0.61947241  1
  O  O196  1  0.62558340  0.11898490  0.11564451  1
  O  O197  1  0.61937304  0.11969651  0.61980188  1
  O  O198  1  0.62044480  0.62051621  0.12118009  1
  O  O199  1  0.62491904  0.61511646  0.61900008  1
  O  O200  1  0.38121312  0.38097379  0.38037671  1
  O  O201  1  0.37630021  0.38141745  0.88408857  1
  O  O202  1  0.38160894  0.88113852  0.37436947  1
  O  O203  1  0.37410102  0.88652149  0.88093576  1
  O  O204  1  0.88465682  0.37626933  0.37998205  1
  O  O205  1  0.88014719  0.37950606  0.87961089  1
  O  O206  1  0.87900076  0.88009670  0.37858385  1
  O  O207  1  0.87622088  0.88390407  0.88107657  1
  O  O208  1  0.25551447  0.00019493  0.36694801  1
  O  O209  1  0.25511963  0.00043851  0.86832426  1
  O  O210  1  0.25608463  0.50472318  0.37033701  1
  O  O211  1  0.25658321  0.50591574  0.86890969  1
  O  O212  1  0.75385507  0.00535704  0.37040101  1
  O  O213  1  0.76407448  0.00234652  0.87380369  1
  O  O214  1  0.75050441  0.50618814  0.36739736  1
  O  O215  1  0.75672833  0.50689511  0.87483893  1
  O  O216  1  0.25037862  0.49335658  0.13240058  1
  O  O217  1  0.24315399  0.50013490  0.63145022  1
  O  O218  1  0.24509430  0.99266545  0.12954323  1
  O  O219  1  0.24077745  1.00316022  0.63198131  1
  O  O220  1  0.74431779  0.49440696  0.13092210  1
  O  O221  1  0.74060594  0.49451662  0.62436804  1
  O  O222  1  0.74504835  0.99441376  0.13066198  1
  O  O223  1  0.74200199  0.99268177  0.62625721  1
  O  O224  1  0.00904463  0.37572216  0.25774102  1
  O  O225  1  0.00621353  0.37344136  0.75689729  1
  O  O226  1  0.00416890  0.86936803  0.25414404  1
  O  O227  1  0.00238391  0.86592765  0.75318288  1
  O  O228  1  0.50521104  0.36982385  0.25568545  1
  O  O229  1  0.50455586  0.36223995  0.75144145  1
  O  O230  1  0.50524509  0.87014360  0.25525969  1
  O  O231  1  0.50550485  0.86630314  0.75090244  1
  O  O232  1  0.49189126  0.12967398  0.25018056  1
  O  O233  1  0.49880452  0.13688774  0.74445169  1
  O  O234  1  0.49437401  0.63068378  0.24550767  1
  O  O235  1  0.49437144  0.63576039  0.74905564  1
  O  O236  1  0.99066689  0.12763505  0.24759597  1
  O  O237  1  0.99173158  0.12436496  0.74068822  1
  O  O238  1  0.99474665  0.62981258  0.24531172  1
  O  O239  1  0.99369172  0.62991358  0.74338342  1
  O  O240  1  0.36750376  0.25780491  -0.00236218  1
  O  O241  1  0.36927155  0.25498674  0.50492193  1
  O  O242  1  0.37023349  0.75548573  0.00525258  1
  O  O243  1  0.37434795  0.74984742  0.51212576  1
  O  O244  1  0.87388504  0.25599461  0.00537305  1
  O  O245  1  0.86776514  0.25600833  0.50208632  1
  O  O246  1  0.87059122  0.75566800  0.00607762  1
  O  O247  1  0.87413228  0.75656466  0.50624240  1
  O  O248  1  0.13674659  0.24889427  0.50056817  1
  O  O249  1  0.13493614  0.25426774  0.99146859  1
  O  O250  1  0.12297750  0.74264650  0.49273906  1
  O  O251  1  0.13154318  0.74770718  0.99116810  1
  O  O252  1  0.62972301  0.24468858  0.49474591  1
  O  O253  1  0.62385863  0.24136247  0.99170869  1
  O  O254  1  0.62411183  0.74308328  0.49373914  1
  O  O255  1  0.63265815  0.74482251  1.00073210  1
  O  O256  1  0.49804350  0.24631624  0.13386167  1
  O  O257  1  0.49720067  0.24602729  0.63217741  1
  O  O258  1  0.49439733  0.74561841  0.13169834  1
  O  O259  1  0.49113778  0.74880113  0.63539081  1
  O  O260  1  0.99166122  0.24914583  0.12680605  1
  O  O261  1  0.99884194  0.23727535  0.62649744  1
  O  O262  1  0.99460585  0.74542942  0.13000307  1
  O  O263  1  0.99433263  0.74413504  0.62956330  1
  O  O264  1  0.00199830  0.26290094  0.37362599  1
  O  O265  1  0.01086022  0.25664184  0.87559791  1
  O  O266  1  0.00418056  0.75523494  0.36814349  1
  O  O267  1  0.00862816  0.74835729  0.87009368  1
  O  O268  1  0.50562085  0.25576360  0.37067312  1
  O  O269  1  0.50887718  0.24961782  0.86674081  1
  O  O270  1  0.50405572  0.75484233  0.36949869  1
  O  O271  1  0.50061606  0.75339539  0.86281756  1
  O  O272  1  0.24929966  0.13610167  0.49826873  1
  O  O273  1  0.24901897  0.13768416  0.99908581  1
  O  O274  1  0.24210521  0.62656926  0.49285613  1
  O  O275  1  0.25097753  0.63145699  0.99326091  1
  O  O276  1  0.74433473  0.12930790  0.49528652  1
  O  O277  1  0.73804316  0.12617313  0.99663888  1
  O  O278  1  0.74324682  0.62599751  0.49167745  1
  O  O279  1  0.74611311  0.63115955  0.99665236  1
  O  O280  1  0.25929974  0.36849470  0.00338705  1
  O  O281  1  0.25676770  0.36639396  0.50197827  1
  O  O282  1  0.25607664  0.86863601  0.00613205  1
  O  O283  1  0.25299817  0.87047540  0.50371736  1
  O  O284  1  0.75754291  0.37379653  0.00737594  1
  O  O285  1  0.75555452  0.36972837  0.50412230  1
  O  O286  1  0.75561269  0.87089525  0.00678357  1
  O  O287  1  0.75581036  0.87313746  0.50585007  1
  O  O288  1  0.13237288  0.48830584  0.24966756  1
  O  O289  1  0.13026854  0.49684003  0.74554372  1
  O  O290  1  0.12969762  0.99287169  0.24419721  1
  O  O291  1  0.13046818  1.00091557  0.74233178  1
  O  O292  1  0.62995061  0.49390301  0.24476827  1
  O  O293  1  0.62593212  0.49932604  0.73927121  1
  O  O294  1  0.62971781  0.99548720  0.24548878  1
  O  O295  1  0.62422454  0.99446397  0.74364442  1
  O  O296  1  0.37056923  0.00604352  0.25450794  1
  O  O297  1  0.36647680  0.00076948  0.75779098  1
  O  O298  1  0.37081552  0.50473526  0.25646444  1
  O  O299  1  0.37141660  0.50526781  0.75412513  1
  O  O300  1  0.86790061  0.00489633  0.25527040  1
  O  O301  1  0.87719638  0.00698011  0.75885242  1
  O  O302  1  0.86814442  0.50649003  0.25048176  1
  O  O303  1  0.87455027  0.50756053  0.75691218  1
  O  O304  1  0.11791985  0.37379043  0.36707205  1
  O  O305  1  0.12054159  0.36837854  0.86988716  1
  O  O306  1  0.11759827  0.86970969  0.36853864  1
  O  O307  1  0.12386224  0.86038577  0.87305464  1
  O  O308  1  0.61991697  0.36961752  0.36980142  1
  O  O309  1  0.62315293  0.36426435  0.87612153  1
  O  O310  1  0.61875043  0.87042842  0.36967201  1
  O  O311  1  0.62371642  0.87269245  0.86659523  1
  O  O312  1  0.37802991  0.12493743  0.13705473  1
  O  O313  1  0.38332455  0.13278246  0.62777160  1
  O  O314  1  0.37999319  0.63043911  0.13118143  1
  O  O315  1  0.37706630  0.63426522  0.63222881  1
  O  O316  1  0.87456771  0.13222166  0.13124544  1
  O  O317  1  0.88335336  0.12171631  0.63322775  1
  O  O318  1  0.88010779  0.63116519  0.13055349  1
  O  O319  1  0.87975712  0.62969026  0.62898297  1
  O  O320  1  0.25264657  0.25644596  0.11381040  1
  O  O321  1  0.25668544  0.25118440  0.61713971  1
  O  O322  1  0.25592093  0.75414536  0.12048365  1
  O  O323  1  0.26015063  0.75122410  0.62609866  1
  O  O324  1  0.75663634  0.25733509  0.12289631  1
  O  O325  1  0.75104930  0.25628466  0.61835094  1
  O  O326  1  0.75618768  0.75594149  0.12101387  1
  O  O327  1  0.75677327  0.75591557  0.62257157  1
  O  O328  1  0.25012563  0.24817516  0.38752599  1
  O  O329  1  0.24209328  0.25169724  0.88285777  1
  O  O330  1  0.24213960  0.74221140  0.37432130  1
  O  O331  1  0.24399333  0.74559226  0.87852759  1
  O  O332  1  0.74404430  0.24472040  0.38091813  1
  O  O333  1  0.73833811  0.24720654  0.87610953  1
  O  O334  1  0.74151191  0.74339566  0.37509263  1
  O  O335  1  0.75071694  0.74383542  0.88306438  1
  O  O336  1  0.00196357  0.11162308  0.00239195  1
  O  O337  1  -0.00266341  0.11863299  0.50915637  1
  O  O338  1  0.00050801  0.61844615  0.00703022  1
  O  O339  1  0.00422848  0.61927433  0.50418044  1
  O  O340  1  0.51048597  0.11889171  0.00172337  1
  O  O341  1  0.50540768  0.12041415  0.50503527  1
  O  O342  1  0.50669939  0.62593025  0.00780978  1
  O  O343  1  0.50699758  0.61707014  0.50162406  1
  O  O344  1  0.49504710  0.37997537  0.49374392  1
  O  O345  1  0.48831229  0.37546910  0.99942901  1
  O  O346  1  0.49795309  0.88211248  0.49331468  1
  O  O347  1  0.49309962  0.88109259  0.99887121  1
  O  O348  1  0.99661395  0.37906868  0.49292353  1
  O  O349  1  0.99405004  0.38098693  0.99412531  1
  O  O350  1  0.99304748  0.88060353  0.49287887  1
  O  O351  1  0.99364633  0.88466111  0.99885290  1
  O  O352  1  0.49489197  0.49445701  0.38010382  1
  O  O353  1  0.49307818  0.49830934  0.87735014  1
  O  O354  1  0.49444127  0.99469482  0.38057199  1
  O  O355  1  0.48920932  0.99904562  0.88020359  1
  O  O356  1  0.99976514  0.48867372  0.38062459  1
  O  O357  1  0.99426353  0.49539801  0.88013879  1
  O  O358  1  0.99312032  0.99395049  0.37878967  1
  O  O359  1  0.99227747  0.99825571  0.88336160  1
  O  O360  1  0.00505656  -0.00082012  0.11552335  1
  O  O361  1  0.00584353  0.00662115  0.62013063  1
  O  O362  1  0.00071374  0.50585965  0.11843152  1
  O  O363  1  0.00549920  0.50611339  0.61933920  1
  O  O364  1  0.50766875  0.00108045  0.11816886  1
  O  O365  1  0.50416302  0.00578970  0.62053169  1
  O  O366  1  0.50674230  0.50765298  0.12460646  1
  O  O367  1  0.50977706  0.50054319  0.61943222  1
  O  O368  1  0.24512090  0.37860977  0.24660660  1
  O  O369  1  0.24364503  0.38304484  0.74805863  1
  O  O370  1  0.24418176  0.87922978  0.24403902  1
  O  O371  1  0.24536251  0.88933225  0.74607794  1
  O  O372  1  0.74397428  0.37977766  0.24520796  1
  O  O373  1  0.74825068  0.37840041  0.74125668  1
  O  O374  1  0.74412948  0.88086666  0.24542900  1
  O  O375  1  0.74353330  0.87618593  0.74247524  1
  O  O376  1  0.25959623  0.11874037  0.24948607  1
  O  O377  1  0.25136832  0.11341065  0.75292137  1
  O  O378  1  0.25558236  0.61912778  0.25577934  1
  O  O379  1  0.25651594  0.61926694  0.75615556  1
  O  O380  1  0.75393459  0.11948744  0.25657427  1
  O  O381  1  0.76236512  0.12070322  0.75042839  1
  O  O382  1  0.75474000  0.61985620  0.25394613  1
  O  O383  1  0.75672709  0.62387079  0.75707159  1
  O  O384  1  0.37397048  0.11808304  0.36396363  1
  O  O385  1  0.37174392  0.11204169  0.87447029  1
  O  O386  1  0.37001587  0.61956796  0.36987402  1
  O  O387  1  0.37029465  0.62087893  0.86979336  1
  O  O388  1  0.86804372  0.11942573  0.37028349  1
  O  O389  1  0.87742104  0.11657483  0.86746234  1
  O  O390  1  0.86884600  0.62377401  0.36745937  1
  O  O391  1  0.86975269  0.61978587  0.87038225  1
  O  O392  1  0.13197548  0.37683307  0.13457513  1
  O  O393  1  0.12539641  0.38285158  0.63216833  1
  O  O394  1  0.13082760  0.87854735  0.13020697  1
  O  O395  1  0.12305259  0.88899254  0.62580065  1
  O  O396  1  0.62989575  0.37992658  0.13048274  1
  O  O397  1  0.63166544  0.38526026  0.62434494  1
  O  O398  1  0.63075716  0.88040098  0.13116585  1
  O  O399  1  0.62893630  0.88010123  0.62969791  1
  O  O400  1  0.12642154  0.26275001  0.25071465  1
  O  O401  1  0.12560989  0.25603485  0.75953718  1
  O  O402  1  0.11873117  0.75505689  0.25483949  1
  O  O403  1  0.11975649  0.74923900  0.75811230  1
  O  O404  1  0.62047912  0.25476366  0.25627982  1
  O  O405  1  0.61789954  0.24914244  0.75868991  1
  O  O406  1  0.61865853  0.75604125  0.25533267  1
  O  O407  1  0.61497899  0.75513010  0.74868952  1
  O  O408  1  0.38003732  0.24091073  0.25010817  1
  O  O409  1  0.38400957  0.25017475  0.74634660  1
  O  O410  1  0.37982420  0.74424624  0.24482550  1
  O  O411  1  0.38102181  0.74719288  0.74452933  1
  O  O412  1  0.87536561  0.24428079  0.24335812  1
  O  O413  1  0.87845910  0.23702246  0.74964897  1
  O  O414  1  0.88019233  0.74510953  0.24420976  1
  O  O415  1  0.88049063  0.74416563  0.74424251  1
  O  O416  1  0.37983489  0.49579548  0.49543640  1
  O  O417  1  0.37575979  0.49067962  0.99420354  1
  O  O418  1  0.38118933  1.00040566  0.49389346  1
  O  O419  1  0.37820017  0.99561210  0.99371683  1
  O  O420  1  0.88232655  0.49305757  0.49759520  1
  O  O421  1  0.88059430  0.49386607  0.99410892  1
  O  O422  1  0.87939923  0.99403644  0.49375242  1
  O  O423  1  0.88194285  0.99625366  0.99396446  1
  O  O424  1  0.11677902  -0.00170003  0.00419514  1
  O  O425  1  0.11782193  0.00203772  0.50825134  1
  O  O426  1  0.11789338  0.50173732  0.00142194  1
  O  O427  1  0.11949673  0.50519733  0.50508201  1
  O  O428  1  0.62093559  0.00636345  0.00329244  1
  O  O429  1  0.61810911  0.00606125  0.50536871  1
  O  O430  1  0.62400295  0.50747896  0.00772839  1
  O  O431  1  0.61984254  0.50411877  0.50687117  1
  O  O432  1  0.37020594  0.37320028  0.11532503  1
  O  O433  1  0.37462721  0.36849821  0.61810001  1
  O  O434  1  0.36973865  0.86940563  0.12056165  1
  O  O435  1  0.37278767  0.86405249  0.62443572  1
  O  O436  1  0.87006057  0.36996447  0.12011308  1
  O  O437  1  0.86997558  0.37336081  0.61851180  1
  O  O438  1  0.86919917  0.87002704  0.12086398  1
  O  O439  1  0.87015959  0.87027852  0.61948659  1
  O  O440  1  0.12744537  0.12943129  0.37745627  1
  O  O441  1  0.12566878  0.13786136  0.87825558  1
  O  O442  1  0.12866764  0.62910349  0.37883633  1
  O  O443  1  0.13189810  0.63523024  0.87547346  1
  O  O444  1  0.62976989  0.13032706  0.38108759  1
  O  O445  1  0.62550584  0.13205129  0.88271419  1
  O  O446  1  0.62924594  0.62990939  0.37885110  1
  O  O447  1  0.63243461  0.62812869  0.88270720  1
