# generated using pymatgen
data_V3Zn3O8
_symmetry_space_group_name_H-M   'P 1'
_cell_length_a   17.09072586
_cell_length_b   17.09267700
_cell_length_c   17.09155107
_cell_angle_alpha   89.98594046
_cell_angle_beta   89.99987459
_cell_angle_gamma   89.99897460
_symmetry_Int_Tables_number   1
_chemical_formula_structural   V3Zn3O8
_chemical_formula_sum   'V96 Zn96 O256'
_cell_volume   4992.89068559
_cell_formula_units_Z   32
loop_
 _symmetry_equiv_pos_site_id
 _symmetry_equiv_pos_as_xyz
  1  'x, y, z'
loop_
 _atom_site_type_symbol
 _atom_site_label
 _atom_site_symmetry_multiplicity
 _atom_site_fract_x
 _atom_site_fract_y
 _atom_site_fract_z
 _atom_site_occupancy
  V  V0  1  0.37557285  0.37532078  0.49941056  1
  V  V1  1  0.75026846  0.37583270  0.62584817  1
  V  V2  1  0.74947088  0.12528952  0.37548231  1
  V  V3  1  0.62511017  0.62525621  0.00036415  1
  V  V4  1  0.75011492  0.25013818  0.50006655  1
  V  V5  1  0.87520894  0.24975638  0.62460360  1
  V  V6  1  0.87502102  0.87537922  0.50062799  1
  V  V7  1  0.00036498  0.87431279  0.87513559  1
  V  V8  1  0.75091249  0.62488572  0.87466873  1
  V  V9  1  0.74908529  0.49926924  0.24867261  1
  V  V10  1  0.87462199  0.24866095  0.12559310  1
  V  V11  1  0.25037692  0.50024497  0.74948419  1
  V  V12  1  0.74807639  0.62688344  0.37636530  1
  V  V13  1  -0.00004077  -0.00053422  0.00071855  1
  V  V14  1  0.87456255  0.62471304  0.24940727  1
  V  V15  1  0.12592122  0.62547790  -0.00039409  1
  V  V16  1  0.25041555  0.50044586  0.25008163  1
  V  V17  1  0.12466667  0.50056580  0.62397056  1
  V  V18  1  0.87551036  0.12503917  0.75113603  1
  V  V19  1  0.12453651  0.25062814  0.37420334  1
  V  V20  1  0.25006251  0.37497839  0.62504387  1
  V  V21  1  0.37572199  0.49999642  0.87465704  1
  V  V22  1  0.75043176  0.75029251  0.00008195  1
  V  V23  1  -0.00007841  0.12518146  0.62547665  1
  V  V24  1  0.50101350  0.50108501  -0.00038690  1
  V  V25  1  0.50134445  0.00075349  0.00076607  1
  V  V26  1  0.12568103  -0.00048087  0.12736647  1
  V  V27  1  0.62515059  0.87604728  0.25131399  1
  V  V28  1  0.75005442  0.49925668  0.74900657  1
  V  V29  1  0.87582967  0.37491261  0.49821595  1
  V  V30  1  0.12444634  -0.00037330  0.62559219  1
  V  V31  1  0.37482371  -0.00072187  0.87480842  1
  V  V32  1  0.62474374  0.12436868  0.00013303  1
  V  V33  1  0.37513253  0.37451469  -0.00040828  1
  V  V34  1  0.50146835  0.75072814  0.25421998  1
  V  V35  1  0.87467678  -0.00040267  0.37584300  1
  V  V36  1  0.00009059  0.49939517  -0.00064175  1
  V  V37  1  0.24990227  0.87468632  0.12663767  1
  V  V38  1  0.12402202  0.62391874  0.50049551  1
  V  V39  1  0.12557584  0.75019453  0.87577641  1
  V  V40  1  0.37472963  0.25064146  0.12399703  1
  V  V41  1  0.74892897  -0.00058310  0.24978604  1
  V  V42  1  0.12472312  0.37432456  0.24967881  1
  V  V43  1  0.87470829  0.00064629  0.87544841  1
  V  V44  1  0.37657159  0.87532917  0.00042796  1
  V  V45  1  0.62377667  0.00027079  0.62568040  1
  V  V46  1  0.25030916  0.37501125  0.12379326  1
  V  V47  1  0.75070822  0.25003090  0.00007420  1
  V  V48  1  0.87553306  0.62562113  0.74902195  1
  V  V49  1  0.25003966  0.12398095  0.87510124  1
  V  V50  1  0.62435180  0.25096507  0.37478454  1
  V  V51  1  0.25087975  0.75122969  0.50107973  1
  V  V52  1  0.00122801  0.25065517  0.75084038  1
  V  V53  1  0.37494566  0.62420080  0.24974934  1
  V  V54  1  0.24926180  0.87402952  0.62429472  1
  V  V55  1  0.87430537  0.75014019  0.12411787  1
  V  V56  1  0.87547928  0.49834174  0.37481811  1
  V  V57  1  0.12501888  0.12532121  0.50011540  1
  V  V58  1  0.75136534  0.12573097  0.87503795  1
  V  V59  1  0.12278891  0.75030255  0.37396186  1
  V  V60  1  0.50173494  0.62462901  0.62463743  1
  V  V61  1  0.87467163  0.12466089  0.25001461  1
  V  V62  1  0.50096379  0.62469313  0.12452239  1
  V  V63  1  0.87407476  0.87456921  0.00013679  1
  V  V64  1  0.37360841  0.12315546  0.25060922  1
  V  V65  1  0.12442191  0.87464798  0.75152071  1
  V  V66  1  0.37556412  0.75042359  0.12491252  1
  V  V67  1  0.24982363  0.62553634  0.87528853  1
  V  V68  1  -0.00014085  0.62458649  0.12474981  1
  V  V69  1  0.24941965  0.62431033  0.37413890  1
  V  V70  1  0.37540710  0.62527295  0.75030866  1
  V  V71  1  0.00022774  0.75030590  0.25072447  1
  V  V72  1  0.87611630  0.50009871  0.87503756  1
  V  V73  1  0.50049856  0.25179448  0.25065889  1
  V  V74  1  0.12487798  0.50006559  0.12515198  1
  V  V75  1  0.74952665  0.87534006  0.62612739  1
  V  V76  1  0.25026827  0.12459510  0.37464475  1
  V  V77  1  0.62509303  0.75091009  0.87440903  1
  V  V78  1  0.49968195  0.12566337  0.62543274  1
  V  V79  1  0.25016121  -0.00066236  0.75081209  1
  V  V80  1  0.00093737  0.37522635  0.87477086  1
  V  V81  1  -0.00034257  0.24979426  0.24980439  1
  V  V82  1  0.50085279  0.37497882  0.87403690  1
  V  V83  1  0.74866294  0.37526606  0.12509671  1
  V  V84  1  0.12516358  0.37471218  0.75004126  1
  V  V85  1  0.62509749  0.25094005  0.87435727  1
  V  V86  1  0.37563563  0.24921821  0.62563027  1
  V  V87  1  0.50047862  0.50012386  0.49934871  1
  V  V88  1  0.87496748  0.74995483  0.62500170  1
  V  V89  1  -0.00051903  0.62468547  0.62446613  1
  V  V90  1  -0.00075809  -0.00011893  0.49990222  1
  V  V91  1  0.24977063  0.25033356  0.50036915  1
  V  V92  1  0.49981642  0.25054176  0.75018410  1
  V  V93  1  0.62392281  0.12544352  0.50121845  1
  V  V94  1  0.12623686  0.12613458  -0.00026587  1
  V  V95  1  0.50072402  0.75202018  0.75023957  1
  Zn  Zn96  1  0.74800537  0.74852956  0.50040289  1
  Zn  Zn97  1  0.25051745  -0.00135964  0.25303330  1
  Zn  Zn98  1  0.37400701  -0.00236261  0.37915746  1
  Zn  Zn99  1  0.37550677  0.75187184  0.62458306  1
  Zn  Zn100  1  0.50030453  0.37701106  0.37508551  1
  Zn  Zn101  1  0.62502154  0.87703587  0.75094192  1
  Zn  Zn102  1  -0.00033767  0.12446217  0.12523637  1
  Zn  Zn103  1  0.62475959  0.49974782  0.12556667  1
  Zn  Zn104  1  0.25159898  0.74934968  0.00012183  1
  Zn  Zn105  1  0.62532964  0.37664656  0.74880343  1
  Zn  Zn106  1  0.37450745  0.12410319  0.75039181  1
  Zn  Zn107  1  0.37748032  0.87712276  0.49846801  1
  Zn  Zn108  1  0.37532268  0.49849774  0.37409028  1
  Zn  Zn109  1  0.74966503  0.00108367  0.75135560  1
  Zn  Zn110  1  0.00038204  0.37603654  0.37522873  1
  Zn  Zn111  1  0.62596383  0.00133400  0.12563509  1
  Zn  Zn112  1  0.49681938  0.88030908  0.37773002  1
  Zn  Zn113  1  0.74902409  0.87607500  0.12466494  1
  Zn  Zn114  1  0.87604725  0.37397186  -0.00060692  1
  Zn  Zn115  1  0.12338884  0.87582172  0.25215313  1
  Zn  Zn116  1  0.00017093  0.87518106  0.37399554  1
  Zn  Zn117  1  0.50095769  0.12558653  0.12507288  1
  Zn  Zn118  1  0.62681799  0.49879867  0.62519097  1
  Zn  Zn119  1  0.25068963  0.25071798  -0.00209845  1
  Zn  Zn120  1  0.62354337  0.37683176  0.25161805  1
  Zn  Zn121  1  0.00010806  0.74976465  0.75018138  1
  Zn  Zn122  1  0.62575433  0.62621802  0.49970807  1
  Zn  Zn123  1  0.00062658  0.49833613  0.49773793  1
  Zn  Zn124  1  0.12691506  0.25089110  0.87558043  1
  Zn  Zn125  1  0.62504880  0.75186311  0.37920060  1
  Zn  Zn126  1  0.50150223  0.87555049  0.87435442  1
  Zn  Zn127  1  0.49548070  -0.00261052  0.49898955  1
  Zn  Zn128  1  0.18918398  0.18861958  0.18652352  1
  Zn  Zn129  1  0.18801872  0.18706707  0.68841642  1
  Zn  Zn130  1  0.18717661  0.68847094  0.18785668  1
  Zn  Zn131  1  0.18558149  0.68803203  0.68821364  1
  Zn  Zn132  1  0.68617829  0.18650090  0.18663428  1
  Zn  Zn133  1  0.68747298  0.18866555  0.68922427  1
  Zn  Zn134  1  0.68701930  0.68816956  0.18778292  1
  Zn  Zn135  1  0.68698642  0.68756627  0.68734274  1
  Zn  Zn136  1  0.31342567  0.31298098  0.31349518  1
  Zn  Zn137  1  0.31247056  0.31060250  0.81299158  1
  Zn  Zn138  1  0.31301443  0.81265676  0.31402328  1
  Zn  Zn139  1  0.31327262  0.81285780  0.81308800  1
  Zn  Zn140  1  0.81170711  0.31272221  0.31182881  1
  Zn  Zn141  1  0.81406637  0.31350677  0.81215252  1
  Zn  Zn142  1  0.81305353  0.81293073  0.31251401  1
  Zn  Zn143  1  0.81291151  0.81252061  0.81129472  1
  Zn  Zn144  1  0.18778608  0.43738205  0.43647740  1
  Zn  Zn145  1  0.18769435  0.43822078  0.93702450  1
  Zn  Zn146  1  0.18737606  0.93722241  0.43577167  1
  Zn  Zn147  1  0.18870046  0.93716351  0.93959106  1
  Zn  Zn148  1  0.68623907  0.43791086  0.43737758  1
  Zn  Zn149  1  0.68748200  0.43752584  0.93764920  1
  Zn  Zn150  1  0.68580973  0.93748093  0.43826768  1
  Zn  Zn151  1  0.68713093  0.93667439  0.93611366  1
  Zn  Zn152  1  0.31302763  0.06241124  0.06348128  1
  Zn  Zn153  1  0.31289434  0.06200973  0.56300504  1
  Zn  Zn154  1  0.31338857  0.56215075  0.06242927  1
  Zn  Zn155  1  0.31435036  0.56347841  0.56229915  1
  Zn  Zn156  1  0.81093880  0.06185886  0.06400694  1
  Zn  Zn157  1  0.81117705  0.06217806  0.56299687  1
  Zn  Zn158  1  0.81289863  0.56185306  0.06164803  1
  Zn  Zn159  1  0.81427469  0.56061990  0.56096032  1
  Zn  Zn160  1  0.43691859  0.43789597  0.18593986  1
  Zn  Zn161  1  0.43783648  0.43696658  0.68671174  1
  Zn  Zn162  1  0.43910610  0.93740884  0.18736887  1
  Zn  Zn163  1  0.43472286  0.93647357  0.68427142  1
  Zn  Zn164  1  0.93643536  0.43599267  0.18787777  1
  Zn  Zn165  1  0.93757628  0.43824244  0.68643454  1
  Zn  Zn166  1  0.93746910  0.93609864  0.18803302  1
  Zn  Zn167  1  0.93747415  0.93761898  0.68901441  1
  Zn  Zn168  1  0.06095578  0.06377238  0.31298676  1
  Zn  Zn169  1  0.06218036  0.06173234  0.81363861  1
  Zn  Zn170  1  0.06156544  0.56255440  0.31307279  1
  Zn  Zn171  1  0.06235456  0.56258111  0.81109835  1
  Zn  Zn172  1  0.56034964  0.06229697  0.31506923  1
  Zn  Zn173  1  0.56208975  0.06415758  0.81215949  1
  Zn  Zn174  1  0.56426370  0.56141144  0.31218367  1
  Zn  Zn175  1  0.56497052  0.56271436  0.81180357  1
  Zn  Zn176  1  0.43815112  0.18642190  0.43730058  1
  Zn  Zn177  1  0.43692862  0.18657506  0.93638787  1
  Zn  Zn178  1  0.43493340  0.68573085  0.43667285  1
  Zn  Zn179  1  0.43773046  0.68847672  0.93725649  1
  Zn  Zn180  1  0.93804222  0.18778233  0.43622949  1
  Zn  Zn181  1  0.93927346  0.18816857  0.93845955  1
  Zn  Zn182  1  0.93572939  0.68739570  0.43861608  1
  Zn  Zn183  1  0.93860639  0.68772120  0.93698499  1
  Zn  Zn184  1  0.06118634  0.31196778  0.06340171  1
  Zn  Zn185  1  0.06152802  0.31354232  0.56196632  1
  Zn  Zn186  1  0.06216553  0.81166381  0.06212200  1
  Zn  Zn187  1  0.06139918  0.81188946  0.56231033  1
  Zn  Zn188  1  0.56255077  0.31191532  0.06236261  1
  Zn  Zn189  1  0.56380028  0.31387386  0.56333837  1
  Zn  Zn190  1  0.56333373  0.81335926  0.06467286  1
  Zn  Zn191  1  0.56388168  0.81167077  0.55888074  1
  O  O192  1  0.12666803  0.11565978  0.11646549  1
  O  O193  1  0.11954238  0.11969354  0.61983335  1
  O  O194  1  0.11978285  0.61940766  0.11994063  1
  O  O195  1  0.12005154  0.61943585  0.62049578  1
  O  O196  1  0.62199297  0.12280252  0.11562674  1
  O  O197  1  0.62134528  0.11867657  0.62114657  1
  O  O198  1  0.61867854  0.62472742  0.11768757  1
  O  O199  1  0.61202549  0.62248520  0.62448337  1
  O  O200  1  0.37763927  0.37734055  0.38393611  1
  O  O201  1  0.38042498  0.38105523  0.87970344  1
  O  O202  1  0.37643527  0.87854432  0.37749124  1
  O  O203  1  0.37685167  0.88148710  0.88253994  1
  O  O204  1  0.87460936  0.38054055  0.38038488  1
  O  O205  1  0.88298274  0.38224491  0.87612396  1
  O  O206  1  0.87503647  0.88239231  0.38266098  1
  O  O207  1  0.88001013  0.88020962  0.88044859  1
  O  O208  1  0.24973053  0.00995872  0.37132397  1
  O  O209  1  0.25494710  0.00363465  0.87024022  1
  O  O210  1  0.25037844  0.50689306  0.36755178  1
  O  O211  1  0.25594438  0.50554902  0.86866066  1
  O  O212  1  0.75498461  0.00647252  0.37057734  1
  O  O213  1  0.75687555  0.00741905  0.87418737  1
  O  O214  1  0.75545643  0.50696790  0.36870903  1
  O  O215  1  0.75634891  0.50578848  0.87052922  1
  O  O216  1  0.24426733  0.49524489  0.13035547  1
  O  O217  1  0.24540268  0.49509120  0.63039946  1
  O  O218  1  0.24203531  0.99158417  0.12576518  1
  O  O219  1  0.24211983  0.99487080  0.63104119  1
  O  O220  1  0.75059861  0.49091932  0.12908105  1
  O  O221  1  0.75109199  0.49394593  0.63130809  1
  O  O222  1  0.74744097  0.99676372  0.13391113  1
  O  O223  1  0.74211860  0.99315541  0.62702731  1
  O  O224  1  0.00727243  0.36808519  0.25050682  1
  O  O225  1  0.00569189  0.37038813  0.75436733  1
  O  O226  1  0.00186943  0.86584124  0.25239192  1
  O  O227  1  0.00673248  0.87451922  0.75762429  1
  O  O228  1  0.49948416  0.36319877  0.25072649  1
  O  O229  1  0.50090828  0.36922048  0.75668491  1
  O  O230  1  0.50729612  0.86584495  0.24939942  1
  O  O231  1  0.50038947  0.86219575  0.74937787  1
  O  O232  1  0.49119057  0.13609333  0.24890022  1
  O  O233  1  0.49782645  0.13273955  0.74357542  1
  O  O234  1  0.49587922  0.63166689  0.24446574  1
  O  O235  1  0.49566055  0.63124764  0.74348574  1
  O  O236  1  0.99258845  0.13147075  0.24787265  1
  O  O237  1  0.99571639  0.13012349  0.74493707  1
  O  O238  1  0.99387477  0.62962636  0.24327101  1
  O  O239  1  0.99321772  0.62585165  0.74299287  1
  O  O240  1  0.37510816  0.25710226  0.00577571  1
  O  O241  1  0.36908290  0.25497081  0.50603900  1
  O  O242  1  0.37552849  0.75666626  0.00731191  1
  O  O243  1  0.35919289  0.74786188  0.50096799  1
  O  O244  1  0.86866274  0.25056010  0.00686081  1
  O  O245  1  0.86936772  0.25357249  0.50512858  1
  O  O246  1  0.87012332  0.75459958  0.00412500  1
  O  O247  1  0.87182365  0.75723339  0.50755289  1
  O  O248  1  0.13012059  0.24487910  0.49547350  1
  O  O249  1  0.12603381  0.23702857  1.00036752  1
  O  O250  1  0.13224431  0.74349657  0.49513198  1
  O  O251  1  0.12718002  0.74278990  0.99419269  1
  O  O252  1  0.63125094  0.24491910  0.49534983  1
  O  O253  1  0.63040630  0.24438554  0.99360214  1
  O  O254  1  0.63030458  0.74407861  0.49558454  1
  O  O255  1  0.62997444  0.74502917  0.99476796  1
  O  O256  1  0.49378459  0.24969798  0.13389231  1
  O  O257  1  0.49529071  0.24587061  0.63044892  1
  O  O258  1  0.49525857  0.74477543  0.13443172  1
  O  O259  1  0.49910570  0.74070853  0.63368643  1
  O  O260  1  0.99300520  0.24784023  0.13173985  1
  O  O261  1  0.99476163  0.24424267  0.63047111  1
  O  O262  1  0.99444946  0.74321885  0.12920464  1
  O  O263  1  0.99335235  0.74314543  0.62712472  1
  O  O264  1  0.00721456  0.25083253  0.36783585  1
  O  O265  1  0.00280518  0.25653309  0.86842856  1
  O  O266  1  0.00506613  0.74913314  0.36868774  1
  O  O267  1  0.00707035  0.75684817  0.87406524  1
  O  O268  1  0.50537054  0.25080799  0.36589816  1
  O  O269  1  0.50474639  0.25549617  0.87023221  1
  O  O270  1  0.50022495  0.74697418  0.36110241  1
  O  O271  1  0.50589587  0.74895122  0.86509507  1
  O  O272  1  0.24325980  0.13197537  0.49597861  1
  O  O273  1  0.24069249  0.12383947  0.99454865  1
  O  O274  1  0.24409219  0.63205172  0.49578188  1
  O  O275  1  0.24405119  0.62493918  0.99338155  1
  O  O276  1  0.74471766  0.13117331  0.49531890  1
  O  O277  1  0.74518854  0.13056842  0.99408876  1
  O  O278  1  0.75031990  0.62354104  0.48796708  1
  O  O279  1  0.74560855  0.63042819  0.99391339  1
  O  O280  1  0.25691928  0.37571333  0.00574952  1
  O  O281  1  0.25439731  0.36966835  0.50620130  1
  O  O282  1  0.25687509  0.87437015  0.01145280  1
  O  O283  1  0.24482041  0.86345579  0.50631175  1
  O  O284  1  0.75191554  0.36908651  0.00835181  1
  O  O285  1  0.75598959  0.36894658  0.50536845  1
  O  O286  1  0.75640237  0.86780500  0.00055221  1
  O  O287  1  0.75578495  0.87611125  0.51193381  1
  O  O288  1  0.13038027  0.49522805  0.24386344  1
  O  O289  1  0.13148602  0.49464813  0.74401289  1
  O  O290  1  0.12566290  1.00024451  0.23774326  1
  O  O291  1  0.12945325  0.99413265  0.74517397  1
  O  O292  1  0.63258293  0.49657999  0.24555379  1
  O  O293  1  0.63454530  0.49791650  0.74802956  1
  O  O294  1  0.62952118  0.99249911  0.24987624  1
  O  O295  1  0.62718859  1.00003368  0.73829551  1
  O  O296  1  0.37480530  0.01484235  0.24764885  1
  O  O297  1  0.36775967  0.00009378  0.75633232  1
  O  O298  1  0.36830985  0.50649617  0.24987007  1
  O  O299  1  0.36988648  0.50513061  0.75538104  1
  O  O300  1  0.86981105  0.00475221  0.25598988  1
  O  O301  1  0.87492351  0.00767068  0.75766927  1
  O  O302  1  0.86905374  0.50573940  0.25409242  1
  O  O303  1  0.87003820  0.50621876  0.75569924  1
  O  O304  1  0.12527741  0.36796330  0.36742055  1
  O  O305  1  0.11931351  0.37508971  0.86773286  1
  O  O306  1  0.12189788  0.86652418  0.37217439  1
  O  O307  1  0.12045369  0.87069333  0.87187949  1
  O  O308  1  0.62228969  0.36616186  0.37259544  1
  O  O309  1  0.61837523  0.36828630  0.87448375  1
  O  O310  1  0.62385971  0.87301690  0.36234042  1
  O  O311  1  0.62263747  0.86705161  0.87035714  1
  O  O312  1  0.37521587  0.13218763  0.13384523  1
  O  O313  1  0.38086210  0.13257792  0.62734700  1
  O  O314  1  0.38082696  0.63049240  0.12981629  1
  O  O315  1  0.38522072  0.62680489  0.63190009  1
  O  O316  1  0.87556706  0.13077050  0.13240023  1
  O  O317  1  0.88052503  0.13022710  0.63009297  1
  O  O318  1  0.88060569  0.62997413  0.12943998  1
  O  O319  1  0.87939835  0.62997350  0.62958849  1
  O  O320  1  0.25659288  0.25810987  0.12212485  1
  O  O321  1  0.25464327  0.25545921  0.61996129  1
  O  O322  1  0.25596341  0.75859203  0.12381011  1
  O  O323  1  0.24787374  0.75414400  0.61591481  1
  O  O324  1  0.75464489  0.25684450  0.12051899  1
  O  O325  1  0.75659035  0.25428224  0.61967572  1
  O  O326  1  0.75723249  0.75009826  0.11776750  1
  O  O327  1  0.75546010  0.75944061  0.62510237  1
  O  O328  1  0.24368377  0.24502237  0.38106995  1
  O  O329  1  0.24658299  0.24171048  0.87788569  1
  O  O330  1  0.24292808  0.74379877  0.38215329  1
  O  O331  1  0.24427466  0.74328827  0.87724334  1
  O  O332  1  0.74506641  0.24417256  0.38045802  1
  O  O333  1  0.74611916  0.24558390  0.88043984  1
  O  O334  1  0.75164782  0.73717980  0.37475716  1
  O  O335  1  0.74581696  0.74392929  0.87982900  1
  O  O336  1  0.01008852  0.11811547  0.00152181  1
  O  O337  1  0.00532038  0.12050178  0.50628192  1
  O  O338  1  0.00608781  0.61922061  0.00527464  1
  O  O339  1  0.00659454  0.62322415  0.50670771  1
  O  O340  1  0.50552435  0.11607445  -0.00063847  1
  O  O341  1  0.50797917  0.12687555  0.50892030  1
  O  O342  1  0.50509053  0.62057836  0.00456447  1
  O  O343  1  0.49718320  0.61757468  0.50875993  1
  O  O344  1  0.49403469  0.38478544  0.50207132  1
  O  O345  1  0.49480889  0.38088161  0.99418253  1
  O  O346  1  0.49664316  0.87617789  0.49667693  1
  O  O347  1  0.49532243  0.88403521  0.99942481  1
  O  O348  1  0.99182914  0.37629097  0.49669885  1
  O  O349  1  0.99977794  0.38184399  0.99383121  1
  O  O350  1  0.99293615  0.88286745  0.50000685  1
  O  O351  1  0.99422397  0.87998070  0.99447062  1
  O  O352  1  0.49753205  0.50019982  0.38626328  1
  O  O353  1  0.49464071  0.49590519  0.87948817  1
  O  O354  1  0.49437462  0.99995286  0.37994019  1
  O  O355  1  0.49472593  0.99920917  0.88438563  1
  O  O356  1  0.99115319  0.49754290  0.37581986  1
  O  O357  1  0.99577352  0.49530021  0.87969625  1
  O  O358  1  0.99284305  1.00026972  0.38248051  1
  O  O359  1  0.99456827  0.99409839  0.88156361  1
  O  O360  1  0.00990150  0.00000494  0.11924506  1
  O  O361  1  0.00499403  0.00614316  0.62027699  1
  O  O362  1  0.00518902  0.50514314  0.12021808  1
  O  O363  1  0.00727840  0.50643659  0.62312578  1
  O  O364  1  0.50085863  0.00249252  0.11160805  1
  O  O365  1  0.50987681  0.00602980  0.62570088  1
  O  O366  1  0.50116378  0.50652031  0.11748518  1
  O  O367  1  0.49975894  0.50863380  0.61777198  1
  O  O368  1  0.24492959  0.38011511  0.24357120  1
  O  O369  1  0.24561162  0.38076077  0.74449612  1
  O  O370  1  0.24807377  0.87634281  0.23680768  1
  O  O371  1  0.24337567  0.87976032  0.74511082  1
  O  O372  1  0.74943650  0.37984542  0.23995335  1
  O  O373  1  0.75127835  0.38142616  0.74353460  1
  O  O374  1  0.74162893  0.88028856  0.24978917  1
  O  O375  1  0.74959256  0.87798835  0.73765965  1
  O  O376  1  0.25921580  0.12667799  0.25540252  1
  O  O377  1  0.24955728  0.11659157  0.75663590  1
  O  O378  1  0.25494062  0.62007331  0.25374330  1
  O  O379  1  0.25497495  0.61952716  0.75506940  1
  O  O380  1  0.75465492  0.12021305  0.25659112  1
  O  O381  1  0.75834139  0.12581386  0.75727352  1
  O  O382  1  0.75570855  0.61973000  0.25572067  1
  O  O383  1  0.75603728  0.62009891  0.75547837  1
  O  O384  1  0.36746698  0.12867665  0.36458217  1
  O  O385  1  0.36769600  0.11700261  0.87388194  1
  O  O386  1  0.36651233  0.62303782  0.36689340  1
  O  O387  1  0.36996953  0.61912802  0.87026188  1
  O  O388  1  0.86860551  0.11966729  0.37027770  1
  O  O389  1  0.87131027  0.12027479  0.87098935  1
  O  O390  1  0.86728682  0.61895850  0.36879862  1
  O  O391  1  0.87027489  0.62013616  0.86960085  1
  O  O392  1  0.13028011  0.38089641  0.12979898  1
  O  O393  1  0.13092862  0.38025286  0.63008783  1
  O  O394  1  0.13313978  0.88319653  0.12313387  1
  O  O395  1  0.12868847  0.88064298  0.63116972  1
  O  O396  1  0.63798315  0.37504462  0.12597600  1
  O  O397  1  0.63521126  0.37694120  0.62771625  1
  O  O398  1  0.62684265  0.87694017  0.13838002  1
  O  O399  1  0.63368748  0.88351117  0.62605329  1
  O  O400  1  0.12023979  0.25464821  0.25389070  1
  O  O401  1  0.11861162  0.25689665  0.75017430  1
  O  O402  1  0.11766638  0.74964251  0.25591097  1
  O  O403  1  0.12343456  0.75693392  0.75768145  1
  O  O404  1  0.61507199  0.24911819  0.25533416  1
  O  O405  1  0.61833806  0.25187512  0.75751323  1
  O  O406  1  0.61669542  0.75755865  0.25084103  1
  O  O407  1  0.61515228  0.74906863  0.75553719  1
  O  O408  1  0.38173738  0.24350539  0.24518771  1
  O  O409  1  0.38138534  0.24881796  0.74319502  1
  O  O410  1  0.38310577  0.74429640  0.24402044  1
  O  O411  1  0.38461952  0.74331140  0.75050083  1
  O  O412  1  0.87918759  0.24378791  0.24557848  1
  O  O413  1  0.88189154  0.24461664  0.74424918  1
  O  O414  1  0.87998549  0.74389438  0.24378754  1
  O  O415  1  0.87696748  0.74305783  0.74357752  1
  O  O416  1  0.38407005  0.49459147  0.49993572  1
  O  O417  1  0.38133616  0.49501104  0.99386934  1
  O  O418  1  0.37612955  0.99698915  0.49871013  1
  O  O419  1  0.38306556  0.99572347  0.99564367  1
  O  O420  1  0.87665451  0.49204930  0.49239004  1
  O  O421  1  0.88281962  0.49951004  0.99280781  1
  O  O422  1  0.87989446  0.99628784  0.49570880  1
  O  O423  1  0.88016174  0.99516422  0.99514173  1
  O  O424  1  0.12071738  0.00671914  0.00842991  1
  O  O425  1  0.11950180  0.00614394  0.50610326  1
  O  O426  1  0.11977727  0.50580802  0.00575312  1
  O  O427  1  0.12525610  0.50608194  0.50647621  1
  O  O428  1  0.61635882  0.00496364  -0.00103513  1
  O  O429  1  0.62606569  0.00721478  0.51236707  1
  O  O430  1  0.61863840  0.50779005  0.00038047  1
  O  O431  1  0.61267270  0.50307246  0.50269966  1
  O  O432  1  0.36940222  0.37070463  0.11873661  1
  O  O433  1  0.36858408  0.36934344  0.61968197  1
  O  O434  1  0.36776147  0.87087578  0.12121995  1
  O  O435  1  0.36334474  0.87028638  0.62241181  1
  O  O436  1  0.86429694  0.36841335  0.12372264  1
  O  O437  1  0.87049790  0.36828958  0.61927879  1
  O  O438  1  0.87411379  0.86779140  0.11727657  1
  O  O439  1  0.86779733  0.87180032  0.62122150  1
  O  O440  1  0.12997329  0.13109343  0.38069507  1
  O  O441  1  0.13031020  0.12297489  0.88591576  1
  O  O442  1  0.13029291  0.63001858  0.38028151  1
  O  O443  1  0.13033701  0.62933617  0.87959996  1
  O  O444  1  0.63116551  0.13114854  0.38135260  1
  O  O445  1  0.63150863  0.13121676  0.88023132  1
  O  O446  1  0.63803609  0.62591710  0.37385108  1
  O  O447  1  0.63161579  0.63105114  0.88086761  1
