# generated using pymatgen
data_V3Zn3O8
_symmetry_space_group_name_H-M   'P 1'
_cell_length_a   17.08898203
_cell_length_b   17.08851313
_cell_length_c   17.08931538
_cell_angle_alpha   89.98294643
_cell_angle_beta   89.99361112
_cell_angle_gamma   89.98510469
_symmetry_Int_Tables_number   1
_chemical_formula_structural   V3Zn3O8
_chemical_formula_sum   'V96 Zn96 O256'
_cell_volume   4990.51192111
_cell_formula_units_Z   32
loop_
 _symmetry_equiv_pos_site_id
 _symmetry_equiv_pos_as_xyz
  1  'x, y, z'
loop_
 _atom_site_type_symbol
 _atom_site_label
 _atom_site_symmetry_multiplicity
 _atom_site_fract_x
 _atom_site_fract_y
 _atom_site_fract_z
 _atom_site_occupancy
  V  V0  1  0.62437473  0.62475925  -0.00026577  1
  V  V1  1  0.62593181  0.75042501  0.87467798  1
  V  V2  1  0.24930421  0.50092099  0.25053424  1
  V  V3  1  0.37513552  0.25043364  0.12467285  1
  V  V4  1  0.49977449  0.50206355  -0.00017883  1
  V  V5  1  0.75023327  0.12549354  0.87571949  1
  V  V6  1  0.87331719  0.50035776  0.37389070  1
  V  V7  1  0.00084586  0.50168960  0.50233789  1
  V  V8  1  0.24792444  0.37514126  0.62638956  1
  V  V9  1  0.87667998  0.75005266  0.12473354  1
  V  V10  1  0.62448806  0.75138246  0.37546487  1
  V  V11  1  0.37570162  0.62530490  0.75002277  1
  V  V12  1  0.62555809  0.87494403  0.75015096  1
  V  V13  1  0.62234265  0.37617276  0.25099227  1
  V  V14  1  0.87397555  0.62556290  0.24934546  1
  V  V15  1  0.74908192  0.50106131  0.24981449  1
  V  V16  1  0.37466851  0.37466149  -0.00005046  1
  V  V17  1  -0.00091663  0.37412298  0.37341406  1
  V  V18  1  0.74861985  0.74934433  0.49970594  1
  V  V19  1  0.75102950  0.12462577  0.37477911  1
  V  V20  1  0.62417527  0.62532214  0.49999181  1
  V  V21  1  0.24885136  0.49822225  0.74958350  1
  V  V22  1  0.12438795  0.37594110  0.25040336  1
  V  V23  1  0.50023494  -0.00082071  -0.00061583  1
  V  V24  1  0.87588877  0.74852592  0.62526495  1
  V  V25  1  0.50022313  0.74965082  0.75011388  1
  V  V26  1  0.75055694  0.37548215  0.12370463  1
  V  V27  1  0.25050085  0.74945508  -0.00006159  1
  V  V28  1  0.25192830  0.00034707  0.25070047  1
  V  V29  1  0.12422907  0.24990807  0.37384557  1
  V  V30  1  0.87707533  0.62359580  0.74903726  1
  V  V31  1  0.25261485  0.87484366  0.12500503  1
  V  V32  1  0.49895396  0.24939508  0.74956041  1
  V  V33  1  0.00105538  0.87344548  0.87402890  1
  V  V34  1  0.62609119  0.00110729  0.12559478  1
  V  V35  1  0.74923028  0.49906578  0.74967057  1
  V  V36  1  0.87522177  0.24921868  0.62491547  1
  V  V37  1  0.24842303  0.62618288  0.37684147  1
  V  V38  1  0.49941151  0.50044604  0.50047109  1
  V  V39  1  0.62439727  0.24953487  0.87486496  1
  V  V40  1  0.25146689  -0.00033715  0.75079425  1
  V  V41  1  0.37557226  0.87605221  0.50004036  1
  V  V42  1  0.12489371  0.50104424  0.12646900  1
  V  V43  1  0.37453948  0.37572874  0.49949953  1
  V  V44  1  0.50015978  0.12506483  0.62497587  1
  V  V45  1  0.62454477  0.25063458  0.37441835  1
  V  V46  1  0.62473145  0.87517855  0.25080383  1
  V  V47  1  0.12429945  -0.00017766  0.62475535  1
  V  V48  1  0.12555876  0.87356949  0.25144752  1
  V  V49  1  0.50039487  0.75107188  0.25045021  1
  V  V50  1  0.37645820  0.62748632  0.24879731  1
  V  V51  1  0.24978534  0.62469040  0.87580684  1
  V  V52  1  0.75064694  0.00008294  0.24977834  1
  V  V53  1  0.49913303  0.37445097  0.87416593  1
  V  V54  1  0.62542930  0.12542422  0.00073041  1
  V  V55  1  0.75067292  0.62422632  0.87382529  1
  V  V56  1  0.87380872  0.37431020  0.49868659  1
  V  V57  1  0.37514667  0.12656371  0.25004541  1
  V  V58  1  0.74858108  0.37430465  0.62494029  1
  V  V59  1  0.62570497  0.00032758  0.62505839  1
  V  V60  1  0.24956752  0.74985217  0.50104871  1
  V  V61  1  -0.00000068  0.25070425  0.75081157  1
  V  V62  1  0.24987215  0.12576651  0.37422561  1
  V  V63  1  0.00164006  0.00035577  -0.00023631  1
  V  V64  1  0.24913543  0.24829731  -0.00043630  1
  V  V65  1  0.00118910  0.12521139  0.12467214  1
  V  V66  1  0.37423412  0.12333016  0.75030623  1
  V  V67  1  0.00022284  0.62569489  0.12539989  1
  V  V68  1  0.75061836  0.87486753  0.62508243  1
  V  V69  1  0.87639144  0.87449774  -0.00078464  1
  V  V70  1  0.37394751  0.49919996  0.87490811  1
  V  V71  1  0.00065816  -0.00036977  0.50030567  1
  V  V72  1  0.87562332  -0.00066305  0.37484615  1
  V  V73  1  0.87524720  0.12493526  0.75028935  1
  V  V74  1  0.75021320  0.24967553  0.49978001  1
  V  V75  1  0.75004208  0.25124306  0.00096937  1
  V  V76  1  0.75145469  0.87563159  0.12444526  1
  V  V77  1  0.12506908  0.87199908  0.75016664  1
  V  V78  1  0.49953951  0.00009142  0.49983722  1
  V  V79  1  0.24882104  0.24956007  0.49952420  1
  V  V80  1  0.00005446  0.12429481  0.62423942  1
  V  V81  1  0.87634285  0.12543288  0.24921887  1
  V  V82  1  0.87515596  0.87396918  0.49995698  1
  V  V83  1  0.62461867  0.37481123  0.74865258  1
  V  V84  1  0.50056543  0.12663316  0.12583251  1
  V  V85  1  0.00043050  0.87434484  0.37427545  1
  V  V86  1  0.12350083  0.24995927  0.87468782  1
  V  V87  1  0.75089999  0.74980927  -0.00107496  1
  V  V88  1  0.37378551  0.24963255  0.62453422  1
  V  V89  1  0.50019002  0.62504417  0.62558789  1
  V  V90  1  0.37481452  0.50004095  0.37612074  1
  V  V91  1  0.75081441  -0.00007369  0.75022447  1
  V  V92  1  0.62537889  0.12500529  0.50007959  1
  V  V93  1  0.87578571  -0.00032559  0.87468469  1
  V  V94  1  -0.00135244  0.49733076  -0.00058005  1
  V  V95  1  0.50042196  0.87639081  0.87608723  1
  Zn  Zn96  1  0.00312711  0.62503218  0.62543472  1
  Zn  Zn97  1  0.50181599  0.62603808  0.12412773  1
  Zn  Zn98  1  0.12493240  0.62436563  -0.00061082  1
  Zn  Zn99  1  0.00223082  0.74678015  0.74952185  1
  Zn  Zn100  1  0.49846454  0.37453329  0.37513814  1
  Zn  Zn101  1  0.12417992  0.74670432  0.87420819  1
  Zn  Zn102  1  0.25045426  0.12333640  0.87583496  1
  Zn  Zn103  1  0.24988975  0.37588955  0.12560745  1
  Zn  Zn104  1  0.37507996  0.75049850  0.62608274  1
  Zn  Zn105  1  0.62268580  0.50261776  0.12482155  1
  Zn  Zn106  1  0.37830045  0.75105288  0.12441766  1
  Zn  Zn107  1  0.12188284  0.37603383  0.74920693  1
  Zn  Zn108  1  0.49825916  0.25149640  0.25114506  1
  Zn  Zn109  1  0.74855877  0.62551138  0.37422023  1
  Zn  Zn110  1  0.12199712  0.74801361  0.37719637  1
  Zn  Zn111  1  0.37626162  0.87612778  -0.00102833  1
  Zn  Zn112  1  0.87384191  0.37448608  -0.00198181  1
  Zn  Zn113  1  0.12416430  0.62571256  0.50238111  1
  Zn  Zn114  1  0.12410315  0.50031877  0.62664204  1
  Zn  Zn115  1  0.49994826  0.87844988  0.37423953  1
  Zn  Zn116  1  0.00020618  0.74931999  0.25110492  1
  Zn  Zn117  1  0.87648206  0.25097586  0.12458812  1
  Zn  Zn118  1  0.37643933  0.00225423  0.37531881  1
  Zn  Zn119  1  0.62457108  0.49981863  0.62424645  1
  Zn  Zn120  1  0.37523691  -0.00002957  0.87677928  1
  Zn  Zn121  1  0.87525896  0.49742256  0.87580675  1
  Zn  Zn122  1  -0.00109459  0.25053291  0.24851660  1
  Zn  Zn123  1  0.25054424  0.87341366  0.62528333  1
  Zn  Zn124  1  -0.00406359  0.37447891  0.87463973  1
  Zn  Zn125  1  0.12511568  0.12420256  0.49861803  1
  Zn  Zn126  1  0.12704330  0.00092109  0.12238603  1
  Zn  Zn127  1  0.12605924  0.12301595  0.00008465  1
  Zn  Zn128  1  0.18662454  0.18865387  0.18730080  1
  Zn  Zn129  1  0.18613805  0.18638495  0.68788272  1
  Zn  Zn130  1  0.18742283  0.68825607  0.18679778  1
  Zn  Zn131  1  0.18784671  0.68402414  0.68413368  1
  Zn  Zn132  1  0.68786791  0.18992212  0.18866515  1
  Zn  Zn133  1  0.68761710  0.18794298  0.68777080  1
  Zn  Zn134  1  0.68710212  0.68817349  0.18612677  1
  Zn  Zn135  1  0.68747341  0.68642577  0.68606877  1
  Zn  Zn136  1  0.31093626  0.31341803  0.31209980  1
  Zn  Zn137  1  0.31072117  0.31192443  0.81263931  1
  Zn  Zn138  1  0.31330683  0.81246585  0.31630630  1
  Zn  Zn139  1  0.31445496  0.81261640  0.81528786  1
  Zn  Zn140  1  0.81250917  0.31164965  0.31022606  1
  Zn  Zn141  1  0.81354704  0.31392756  0.81402498  1
  Zn  Zn142  1  0.81207503  0.81099051  0.31223874  1
  Zn  Zn143  1  0.81438854  0.81093998  0.81189073  1
  Zn  Zn144  1  0.18626361  0.43732933  0.43733938  1
  Zn  Zn145  1  0.18504216  0.43558918  0.93790255  1
  Zn  Zn146  1  0.18857328  0.93788000  0.43626013  1
  Zn  Zn147  1  0.18667003  0.93632558  0.93681276  1
  Zn  Zn148  1  0.68634183  0.43904069  0.43684715  1
  Zn  Zn149  1  0.68568726  0.43896939  0.93605758  1
  Zn  Zn150  1  0.68741967  0.93704149  0.43720524  1
  Zn  Zn151  1  0.68736213  0.93818824  0.93776841  1
  Zn  Zn152  1  0.31479116  0.06219705  0.06323099  1
  Zn  Zn153  1  0.31099160  0.06256349  0.56295084  1
  Zn  Zn154  1  0.31185323  0.56259942  0.06374999  1
  Zn  Zn155  1  0.31279179  0.56299003  0.56510909  1
  Zn  Zn156  1  0.81516794  0.06299819  0.06211026  1
  Zn  Zn157  1  0.81366236  0.06179030  0.56215032  1
  Zn  Zn158  1  0.81252718  0.56170830  0.06335779  1
  Zn  Zn159  1  0.81135055  0.56175974  0.56291069  1
  Zn  Zn160  1  0.43690714  0.43969509  0.18526359  1
  Zn  Zn161  1  0.43585348  0.43811008  0.68580721  1
  Zn  Zn162  1  0.43794027  0.93938204  0.18751112  1
  Zn  Zn163  1  0.43747189  0.93621939  0.68616552  1
  Zn  Zn164  1  0.93726712  0.43917097  0.18703373  1
  Zn  Zn165  1  0.93577190  0.43562696  0.68787866  1
  Zn  Zn166  1  0.93966109  0.93866223  0.18685233  1
  Zn  Zn167  1  0.93887351  0.93605785  0.68737788  1
  Zn  Zn168  1  0.06441081  0.06091829  0.31082210  1
  Zn  Zn169  1  0.06390093  0.06319595  0.81285208  1
  Zn  Zn170  1  0.06148542  0.56348976  0.31439581  1
  Zn  Zn171  1  0.06487518  0.56056342  0.81452718  1
  Zn  Zn172  1  0.56128536  0.06339232  0.31308802  1
  Zn  Zn173  1  0.56262476  0.06230118  0.81295199  1
  Zn  Zn174  1  0.56126194  0.56311076  0.31521711  1
  Zn  Zn175  1  0.56294905  0.56176450  0.81287974  1
  Zn  Zn176  1  0.43743347  0.18894055  0.43592425  1
  Zn  Zn177  1  0.43612965  0.18531454  0.93688432  1
  Zn  Zn178  1  0.43797099  0.68937799  0.43662236  1
  Zn  Zn179  1  0.43641668  0.68883578  0.93687954  1
  Zn  Zn180  1  0.93923887  0.18712126  0.43683345  1
  Zn  Zn181  1  0.93653833  0.18905974  0.94013349  1
  Zn  Zn182  1  0.93623497  0.68692848  0.43540845  1
  Zn  Zn183  1  0.93973560  0.68574661  0.93625826  1
  Zn  Zn184  1  0.06398422  0.31328335  0.06402069  1
  Zn  Zn185  1  0.06334787  0.31330011  0.56176504  1
  Zn  Zn186  1  0.06511870  0.81225793  0.06303036  1
  Zn  Zn187  1  0.06241141  0.81128407  0.56414519  1
  Zn  Zn188  1  0.56226676  0.31372482  0.06307871  1
  Zn  Zn189  1  0.56142821  0.31309703  0.56171471  1
  Zn  Zn190  1  0.56302365  0.81138997  0.06420105  1
  Zn  Zn191  1  0.56077244  0.81216772  0.56319083  1
  O  O192  1  0.11383297  0.12231291  0.12423065  1
  O  O193  1  0.11688517  0.11795828  0.62353164  1
  O  O194  1  0.11835967  0.61848645  0.12554366  1
  O  O195  1  0.12038607  0.61842482  0.62002376  1
  O  O196  1  0.62153193  0.12056170  0.12046931  1
  O  O197  1  0.62059396  0.12022489  0.61979153  1
  O  O198  1  0.62373326  0.62368156  0.11515656  1
  O  O199  1  0.61815530  0.62341216  0.61830035  1
  O  O200  1  0.37479846  0.38190768  0.38184632  1
  O  O201  1  0.38049490  0.37902990  0.88002384  1
  O  O202  1  0.37736676  0.87870554  0.38803994  1
  O  O203  1  0.38553226  0.87889723  0.87734393  1
  O  O204  1  0.87864550  0.37959025  0.37943387  1
  O  O205  1  0.87734236  0.37950256  0.88001611  1
  O  O206  1  0.87938992  0.88067106  0.38005757  1
  O  O207  1  0.88000839  0.88032370  0.87950917  1
  O  O208  1  0.25215817  0.00778079  0.36822499  1
  O  O209  1  0.25038752  0.00079154  0.86217721  1
  O  O210  1  0.25552036  0.50687093  0.37078603  1
  O  O211  1  0.25567302  0.50361156  0.87103026  1
  O  O212  1  0.75584990  0.00533484  0.36992953  1
  O  O213  1  0.75559277  0.00551105  0.86974637  1
  O  O214  1  0.75645570  0.50118528  0.36809596  1
  O  O215  1  0.75028436  0.50720119  0.86764535  1
  O  O216  1  0.24335629  0.49929820  0.13262661  1
  O  O217  1  0.25125164  0.49213624  0.63201480  1
  O  O218  1  0.24923184  0.99073168  0.13066303  1
  O  O219  1  0.24354803  0.99846358  0.63525396  1
  O  O220  1  0.74646413  0.49108337  0.13038555  1
  O  O221  1  0.74767340  0.49122969  0.63086326  1
  O  O222  1  0.74585695  0.99526250  0.12979942  1
  O  O223  1  0.74566955  0.99498018  0.63062832  1
  O  O224  1  0.00559205  0.37531287  0.25612606  1
  O  O225  1  0.00065978  0.36560187  0.75180839  1
  O  O226  1  0.00965015  0.87524092  0.25442667  1
  O  O227  1  0.00959250  0.87481330  0.75547322  1
  O  O228  1  0.51125894  0.37519386  0.25044898  1
  O  O229  1  0.50363616  0.36863443  0.75427313  1
  O  O230  1  0.50699916  0.87036036  0.25098897  1
  O  O231  1  0.50737754  0.87029349  0.75437081  1
  O  O232  1  0.49463705  0.12728093  0.24309866  1
  O  O233  1  0.49601757  0.12996219  0.74395164  1
  O  O234  1  0.49052834  0.63096185  0.25102298  1
  O  O235  1  0.49573129  0.63010156  0.74662061  1
  O  O236  1  0.99455909  0.12293889  0.24075137  1
  O  O237  1  0.99328239  0.12926532  0.74432359  1
  O  O238  1  0.99224171  0.62618915  0.24388147  1
  O  O239  1  0.98790380  0.62344314  0.74980059  1
  O  O240  1  0.36778622  0.25429754  0.00339105  1
  O  O241  1  0.36905936  0.25521803  0.50551100  1
  O  O242  1  0.36375323  0.75272697  0.00280862  1
  O  O243  1  0.36784931  0.75873937  0.50079531  1
  O  O244  1  0.86483739  0.25289364  0.00386229  1
  O  O245  1  0.86942952  0.25431921  0.50466868  1
  O  O246  1  0.86993550  0.75532475  0.00419169  1
  O  O247  1  0.86852282  0.75548303  0.50494911  1
  O  O248  1  0.13126597  0.24853815  0.49222172  1
  O  O249  1  0.13373362  0.24902072  0.99339652  1
  O  O250  1  0.13734595  0.75077354  0.49874453  1
  O  O251  1  0.13880649  0.74841346  0.99883114  1
  O  O252  1  0.63081610  0.24418278  0.49540245  1
  O  O253  1  0.62932758  0.24457781  0.99389292  1
  O  O254  1  0.62910359  0.74607775  0.49545315  1
  O  O255  1  0.63196205  0.74574757  0.99361202  1
  O  O256  1  0.49352288  0.24380021  0.12541758  1
  O  O257  1  0.49411068  0.24418783  0.62994466  1
  O  O258  1  0.49792247  0.74742777  0.13405377  1
  O  O259  1  0.49943461  0.74337162  0.63312484  1
  O  O260  1  0.99848716  0.23837641  0.12607667  1
  O  O261  1  0.99383334  0.24427170  0.62921433  1
  O  O262  1  0.99372464  0.74439340  0.12504570  1
  O  O263  1  0.99070124  0.74657184  0.62773415  1
  O  O264  1  0.00584622  0.25651818  0.37342408  1
  O  O265  1  0.00763920  0.24897118  0.87041980  1
  O  O266  1  0.00143389  0.75889090  0.37258686  1
  O  O267  1  0.00354123  0.75760683  0.87153068  1
  O  O268  1  0.50891379  0.25369537  0.37267260  1
  O  O269  1  0.50489488  0.25458134  0.86929185  1
  O  O270  1  0.50697910  0.75388043  0.36795017  1
  O  O271  1  0.50728096  0.75579923  0.86942076  1
  O  O272  1  0.24852293  0.13196017  0.49364243  1
  O  O273  1  0.25001439  0.13645261  0.99879114  1
  O  O274  1  0.25321516  0.63426059  0.49436233  1
  O  O275  1  0.25055360  0.63345313  0.99540669  1
  O  O276  1  0.74544703  0.12945100  0.49486449  1
  O  O277  1  0.74464586  0.12962357  0.99491030  1
  O  O278  1  0.74292600  0.63200604  0.49938479  1
  O  O279  1  0.74605392  0.63087346  0.99373774  1
  O  O280  1  0.25628768  0.36421248  0.00034767  1
  O  O281  1  0.25551089  0.36952671  0.50544894  1
  O  O282  1  0.25044716  0.86830613  0.00860540  1
  O  O283  1  0.25808218  0.86797814  0.50071621  1
  O  O284  1  0.74523478  0.37081745  0.00995956  1
  O  O285  1  0.75412375  0.36877628  0.50423347  1
  O  O286  1  0.75614657  0.87046013  0.00453084  1
  O  O287  1  0.75532470  0.87042880  0.50636772  1
  O  O288  1  0.12986139  0.49567597  0.24667303  1
  O  O289  1  0.13375633  0.49558341  0.74907348  1
  O  O290  1  0.13263269  0.98795589  0.24800356  1
  O  O291  1  0.13191011  0.99257345  0.74543017  1
  O  O292  1  0.62957450  0.49133522  0.25069035  1
  O  O293  1  0.63045413  0.49203908  0.74841247  1
  O  O294  1  0.63151166  0.99609934  0.24481127  1
  O  O295  1  0.63146110  0.99536929  0.74444846  1
  O  O296  1  0.36946777  0.00802386  0.25175115  1
  O  O297  1  0.36608382  0.00416176  0.74806441  1
  O  O298  1  0.37033544  0.50853472  0.25567167  1
  O  O299  1  0.37002924  0.50490737  0.75657451  1
  O  O300  1  0.86927992  0.00432018  0.25568461  1
  O  O301  1  0.86992281  0.00481482  0.75491947  1
  O  O302  1  0.86859751  0.50551691  0.25452238  1
  O  O303  1  0.86803585  0.50881664  0.74988044  1
  O  O304  1  0.11895159  0.36994286  0.36933027  1
  O  O305  1  0.12202328  0.36049988  0.87367744  1
  O  O306  1  0.11964946  0.87476695  0.36584908  1
  O  O307  1  0.11963721  0.87460628  0.86380852  1
  O  O308  1  0.62552608  0.36955504  0.36546948  1
  O  O309  1  0.61866440  0.36835061  0.86855931  1
  O  O310  1  0.62454162  0.87004888  0.36802253  1
  O  O311  1  0.62191982  0.86994543  0.86882298  1
  O  O312  1  0.38129122  0.13128450  0.13057258  1
  O  O313  1  0.38092548  0.13054176  0.63004818  1
  O  O314  1  0.37481059  0.62638917  0.13997312  1
  O  O315  1  0.38278425  0.62657878  0.63318224  1
  O  O316  1  0.88446554  0.12431210  0.13100747  1
  O  O317  1  0.87945400  0.12946855  0.63059115  1
  O  O318  1  0.87981992  0.63104800  0.12998845  1
  O  O319  1  0.87342200  0.63005346  0.63492673  1
  O  O320  1  0.25534118  0.25133599  0.11473197  1
  O  O321  1  0.25515135  0.25395658  0.62008160  1
  O  O322  1  0.25201779  0.75833106  0.11794946  1
  O  O323  1  0.25380063  0.75150455  0.61363812  1
  O  O324  1  0.74889645  0.25964490  0.11917777  1
  O  O325  1  0.75568089  0.25358123  0.61923788  1
  O  O326  1  0.75627029  0.75686489  0.11804836  1
  O  O327  1  0.75491659  0.75658730  0.61957109  1
  O  O328  1  0.24377708  0.24546635  0.38011095  1
  O  O329  1  0.24244381  0.24825306  0.88319334  1
  O  O330  1  0.24966303  0.74426614  0.38594531  1
  O  O331  1  0.25012498  0.74461583  0.88462602  1
  O  O332  1  0.74549739  0.24374839  0.38090502  1
  O  O333  1  0.74325656  0.24420313  0.87978612  1
  O  O334  1  0.74296680  0.74986174  0.38242827  1
  O  O335  1  0.74522719  0.74538222  0.87982789  1
  O  O336  1  -0.00098377  0.11865822  0.00927843  1
  O  O337  1  0.00023989  0.11709336  0.50635392  1
  O  O338  1  0.00211964  0.61602545  0.00669815  1
  O  O339  1  -0.00245525  0.61242806  0.49995806  1
  O  O340  1  0.50690954  0.12044660  0.00545505  1
  O  O341  1  0.50575852  0.12096201  0.50627460  1
  O  O342  1  0.50576119  0.62009626  -0.00138434  1
  O  O343  1  0.50409911  0.62068453  0.50550453  1
  O  O344  1  0.49235872  0.38149113  0.49966817  1
  O  O345  1  0.49478481  0.37995909  0.99285925  1
  O  O346  1  0.49208778  0.88113029  0.50009129  1
  O  O347  1  0.50213942  0.88110401  0.99451416  1
  O  O348  1  0.99250520  0.38121219  0.49386191  1
  O  O349  1  0.99733962  0.38619012  1.00323498  1
  O  O350  1  0.99386941  0.88027812  0.49506469  1
  O  O351  1  0.99537828  0.87985592  0.99483027  1
  O  O352  1  0.49197745  0.49836172  0.38280542  1
  O  O353  1  0.49336484  0.49343737  0.87898971  1
  O  O354  1  0.49805626  0.99945977  0.38437589  1
  O  O355  1  0.50272100  0.99356817  0.88159891  1
  O  O356  1  0.99271597  0.49358915  0.38246807  1
  O  O357  1  1.00024653  0.49773465  0.88778531  1
  O  O358  1  0.99433806  0.99447722  0.38016685  1
  O  O359  1  0.99410750  0.99476795  0.87914490  1
  O  O360  1  0.00116005  0.00840020  0.11800989  1
  O  O361  1  0.00376345  0.00475630  0.61979588  1
  O  O362  1  0.00457794  0.50623164  0.11881669  1
  O  O363  1  -0.00252026  0.49839753  0.61206673  1
  O  O364  1  0.50755636  0.00634392  0.12003959  1
  O  O365  1  0.50717108  0.00613762  0.62072302  1
  O  O366  1  0.50181540  0.50403769  0.11521143  1
  O  O367  1  0.50106988  0.50675586  0.61875887  1
  O  O368  1  0.24305461  0.38390714  0.24940944  1
  O  O369  1  0.25060736  0.38051472  0.74326521  1
  O  O370  1  0.24525458  0.87850696  0.24469286  1
  O  O371  1  0.24281427  0.88226415  0.74927400  1
  O  O372  1  0.74136325  0.37970539  0.24305984  1
  O  O373  1  0.74407745  0.37833948  0.74448978  1
  O  O374  1  0.74561096  0.88099968  0.24381640  1
  O  O375  1  0.74571523  0.88054672  0.74518731  1
  O  O376  1  0.25534721  0.12007597  0.25351594  1
  O  O377  1  0.25536131  0.11494227  0.74937731  1
  O  O378  1  0.25768199  0.62203342  0.25654570  1
  O  O379  1  0.25676765  0.61902384  0.75569057  1
  O  O380  1  0.75478170  0.11912383  0.25527225  1
  O  O381  1  0.75499522  0.11961026  0.75555681  1
  O  O382  1  0.75566295  0.61870434  0.24966762  1
  O  O383  1  0.75656764  0.61968409  0.75394806  1
  O  O384  1  0.36764165  0.12646656  0.36796236  1
  O  O385  1  0.37274744  0.12103387  0.86540259  1
  O  O386  1  0.36962196  0.62055042  0.36636491  1
  O  O387  1  0.36993762  0.61828837  0.86934570  1
  O  O388  1  0.87020543  0.11869509  0.37023919  1
  O  O389  1  0.86953099  0.11946154  0.86967203  1
  O  O390  1  0.87143072  0.61850365  0.36719361  1
  O  O391  1  0.86841160  0.62442154  0.86442781  1
  O  O392  1  0.12706543  0.38261524  0.13306675  1
  O  O393  1  0.13387503  0.37687199  0.62693694  1
  O  O394  1  0.13600370  0.87600219  0.13388049  1
  O  O395  1  0.12520980  0.88162137  0.63534445  1
  O  O396  1  0.63286281  0.37617458  0.13458702  1
  O  O397  1  0.63106823  0.37392633  0.63127135  1
  O  O398  1  0.63247939  0.88123852  0.13059276  1
  O  O399  1  0.63083041  0.88088736  0.63048085  1
  O  O400  1  0.12345230  0.25791840  0.25634024  1
  O  O401  1  0.11890733  0.24960896  0.75867804  1
  O  O402  1  0.12509949  0.76295906  0.25244238  1
  O  O403  1  0.12611945  0.76179456  0.74960363  1
  O  O404  1  0.62522328  0.26007958  0.25606925  1
  O  O405  1  0.61886715  0.25398267  0.75530261  1
  O  O406  1  0.62089603  0.75605804  0.25517496  1
  O  O407  1  0.62141801  0.75583607  0.75525895  1
  O  O408  1  0.37493611  0.24519815  0.24252516  1
  O  O409  1  0.38010594  0.24426100  0.74431018  1
  O  O410  1  0.38043209  0.74149598  0.25208105  1
  O  O411  1  0.38234362  0.74354974  0.74995251  1
  O  O412  1  0.87719864  0.24090213  0.24683741  1
  O  O413  1  0.87887546  0.24328408  0.74440869  1
  O  O414  1  0.87522434  0.74455036  0.24182200  1
  O  O415  1  0.87459767  0.73963718  0.74376660  1
  O  O416  1  0.37926070  0.49532599  0.49514876  1
  O  O417  1  0.37892673  0.49483246  0.99398507  1
  O  O418  1  0.38040059  0.99256059  0.50079560  1
  O  O419  1  0.38483610  0.99805648  0.99832020  1
  O  O420  1  0.87986294  0.49333171  0.49447598  1
  O  O421  1  0.88620228  0.49943212  1.00008217  1
  O  O422  1  0.87962923  0.99345324  0.49468192  1
  O  O423  1  0.88026658  0.99369788  0.99318759  1
  O  O424  1  0.11750032  0.00256767  0.00098807  1
  O  O425  1  0.11849995  -0.00010655  0.50665219  1
  O  O426  1  0.11666397  0.50034142  0.00771574  1
  O  O427  1  0.11130597  0.49946356  0.49967960  1
  O  O428  1  0.62181347  0.00645109  0.00655318  1
  O  O429  1  0.62137109  0.00567303  0.50624836  1
  O  O430  1  0.61703855  0.50726902  -0.00145015  1
  O  O431  1  0.61800669  0.50652366  0.50091993  1
  O  O432  1  0.37300862  0.36888434  0.11749915  1
  O  O433  1  0.36877075  0.36797511  0.61943429  1
  O  O434  1  0.36277791  0.87357652  0.12531514  1
  O  O435  1  0.37342530  0.87286559  0.61282056  1
  O  O436  1  0.86017421  0.37405268  0.12580825  1
  O  O437  1  0.86791961  0.36737275  0.61868936  1
  O  O438  1  0.87060155  0.87107899  0.11864206  1
  O  O439  1  0.86946918  0.86999079  0.61995268  1
  O  O440  1  0.13138033  0.13128598  0.37477930  1
  O  O441  1  0.12717973  0.13705611  0.87747221  1
  O  O442  1  0.13337914  0.62752116  0.37903373  1
  O  O443  1  0.13513291  0.62733401  0.87779674  1
  O  O444  1  0.63204081  0.12967536  0.38063484  1
  O  O445  1  0.63067322  0.13017434  0.88039694  1
  O  O446  1  0.62618705  0.63311800  0.38209035  1
  O  O447  1  0.63107005  0.63171957  0.87914604  1
