# generated using pymatgen
data_Hf4.8Zr4.8Ta4.8Ti4.8Mo4.8H36
_symmetry_space_group_name_H-M   'P 1'
_cell_length_a   6.57800000
_cell_length_b   6.57800000
_cell_length_c   13.66200000
_cell_angle_alpha   90.00000000
_cell_angle_beta   90.00000000
_cell_angle_gamma   90.00000000
_symmetry_Int_Tables_number   1
_chemical_formula_structural   Hf4.8Zr4.8Ta4.8Ti4.8Mo4.8H36
_chemical_formula_sum   'Hf4.8 Zr4.8 Ta4.8 Ti4.8 Mo4.8 H36'
_cell_volume   591.15588761
_cell_formula_units_Z   1
loop_
 _symmetry_equiv_pos_site_id
 _symmetry_equiv_pos_as_xyz
  1  'x, y, z'
loop_
 _atom_type_symbol
 _atom_type_oxidation_number
  Hf0+  0.0
  Zr0+  0.0
  Ta0+  0.0
  Ti0+  0.0
  Mo0+  0.0
  H0+  0.0
loop_
 _atom_site_type_symbol
 _atom_site_label
 _atom_site_symmetry_multiplicity
 _atom_site_fract_x
 _atom_site_fract_y
 _atom_site_fract_z
 _atom_site_occupancy
  Hf0+  Ta1  1  0.00000000  0.00000000  0.00000000  0.2
  Zr0+  Ta1  1  0.00000000  0.00000000  0.00000000  0.2
  Ta0+  Ta1  1  0.00000000  0.00000000  0.00000000  0.2
  Ti0+  Ta1  1  0.00000000  0.00000000  0.00000000  0.2
  Mo0+  Ta1  1  0.00000000  0.00000000  0.00000000  0.2
  Hf0+  Ta1  1  0.00000000  0.00000000  0.33333333  0.2
  Zr0+  Ta1  1  0.00000000  0.00000000  0.33333333  0.2
  Ta0+  Ta1  1  0.00000000  0.00000000  0.33333333  0.2
  Ti0+  Ta1  1  0.00000000  0.00000000  0.33333333  0.2
  Mo0+  Ta1  1  0.00000000  0.00000000  0.33333333  0.2
  Hf0+  Ta1  1  0.00000000  0.00000000  0.66666667  0.2
  Zr0+  Ta1  1  0.00000000  0.00000000  0.66666667  0.2
  Ta0+  Ta1  1  0.00000000  0.00000000  0.66666667  0.2
  Ti0+  Ta1  1  0.00000000  0.00000000  0.66666667  0.2
  Mo0+  Ta1  1  0.00000000  0.00000000  0.66666667  0.2
  Hf0+  Ta1  1  0.00000000  0.50000000  0.00000000  0.2
  Zr0+  Ta1  1  0.00000000  0.50000000  0.00000000  0.2
  Ta0+  Ta1  1  0.00000000  0.50000000  0.00000000  0.2
  Ti0+  Ta1  1  0.00000000  0.50000000  0.00000000  0.2
  Mo0+  Ta1  1  0.00000000  0.50000000  0.00000000  0.2
  Hf0+  Ta1  1  0.00000000  0.50000000  0.33333333  0.2
  Zr0+  Ta1  1  0.00000000  0.50000000  0.33333333  0.2
  Ta0+  Ta1  1  0.00000000  0.50000000  0.33333333  0.2
  Ti0+  Ta1  1  0.00000000  0.50000000  0.33333333  0.2
  Mo0+  Ta1  1  0.00000000  0.50000000  0.33333333  0.2
  Hf0+  Ta1  1  0.00000000  0.50000000  0.66666667  0.2
  Zr0+  Ta1  1  0.00000000  0.50000000  0.66666667  0.2
  Ta0+  Ta1  1  0.00000000  0.50000000  0.66666667  0.2
  Ti0+  Ta1  1  0.00000000  0.50000000  0.66666667  0.2
  Mo0+  Ta1  1  0.00000000  0.50000000  0.66666667  0.2
  Hf0+  Ta1  1  0.50000000  0.00000000  0.00000000  0.2
  Zr0+  Ta1  1  0.50000000  0.00000000  0.00000000  0.2
  Ta0+  Ta1  1  0.50000000  0.00000000  0.00000000  0.2
  Ti0+  Ta1  1  0.50000000  0.00000000  0.00000000  0.2
  Mo0+  Ta1  1  0.50000000  0.00000000  0.00000000  0.2
  Hf0+  Ta1  1  0.50000000  0.00000000  0.33333333  0.2
  Zr0+  Ta1  1  0.50000000  0.00000000  0.33333333  0.2
  Ta0+  Ta1  1  0.50000000  0.00000000  0.33333333  0.2
  Ti0+  Ta1  1  0.50000000  0.00000000  0.33333333  0.2
  Mo0+  Ta1  1  0.50000000  0.00000000  0.33333333  0.2
  Hf0+  Ta1  1  0.50000000  0.00000000  0.66666667  0.2
  Zr0+  Ta1  1  0.50000000  0.00000000  0.66666667  0.2
  Ta0+  Ta1  1  0.50000000  0.00000000  0.66666667  0.2
  Ti0+  Ta1  1  0.50000000  0.00000000  0.66666667  0.2
  Mo0+  Ta1  1  0.50000000  0.00000000  0.66666667  0.2
  Hf0+  Ta1  1  0.50000000  0.50000000  0.00000000  0.2
  Zr0+  Ta1  1  0.50000000  0.50000000  0.00000000  0.2
  Ta0+  Ta1  1  0.50000000  0.50000000  0.00000000  0.2
  Ti0+  Ta1  1  0.50000000  0.50000000  0.00000000  0.2
  Mo0+  Ta1  1  0.50000000  0.50000000  0.00000000  0.2
  Hf0+  Ta1  1  0.50000000  0.50000000  0.33333333  0.2
  Zr0+  Ta1  1  0.50000000  0.50000000  0.33333333  0.2
  Ta0+  Ta1  1  0.50000000  0.50000000  0.33333333  0.2
  Ti0+  Ta1  1  0.50000000  0.50000000  0.33333333  0.2
  Mo0+  Ta1  1  0.50000000  0.50000000  0.33333333  0.2
  Hf0+  Ta1  1  0.50000000  0.50000000  0.66666667  0.2
  Zr0+  Ta1  1  0.50000000  0.50000000  0.66666667  0.2
  Ta0+  Ta1  1  0.50000000  0.50000000  0.66666667  0.2
  Ti0+  Ta1  1  0.50000000  0.50000000  0.66666667  0.2
  Mo0+  Ta1  1  0.50000000  0.50000000  0.66666667  0.2
  Hf0+  Ta1  1  0.25000000  0.25000000  0.16666667  0.2
  Zr0+  Ta1  1  0.25000000  0.25000000  0.16666667  0.2
  Ta0+  Ta1  1  0.25000000  0.25000000  0.16666667  0.2
  Ti0+  Ta1  1  0.25000000  0.25000000  0.16666667  0.2
  Mo0+  Ta1  1  0.25000000  0.25000000  0.16666667  0.2
  Hf0+  Ta1  1  0.25000000  0.25000000  0.50000000  0.2
  Zr0+  Ta1  1  0.25000000  0.25000000  0.50000000  0.2
  Ta0+  Ta1  1  0.25000000  0.25000000  0.50000000  0.2
  Ti0+  Ta1  1  0.25000000  0.25000000  0.50000000  0.2
  Mo0+  Ta1  1  0.25000000  0.25000000  0.50000000  0.2
  Hf0+  Ta1  1  0.25000000  0.25000000  0.83333333  0.2
  Zr0+  Ta1  1  0.25000000  0.25000000  0.83333333  0.2
  Ta0+  Ta1  1  0.25000000  0.25000000  0.83333333  0.2
  Ti0+  Ta1  1  0.25000000  0.25000000  0.83333333  0.2
  Mo0+  Ta1  1  0.25000000  0.25000000  0.83333333  0.2
  Hf0+  Ta1  1  0.25000000  0.75000000  0.16666667  0.2
  Zr0+  Ta1  1  0.25000000  0.75000000  0.16666667  0.2
  Ta0+  Ta1  1  0.25000000  0.75000000  0.16666667  0.2
  Ti0+  Ta1  1  0.25000000  0.75000000  0.16666667  0.2
  Mo0+  Ta1  1  0.25000000  0.75000000  0.16666667  0.2
  Hf0+  Ta1  1  0.25000000  0.75000000  0.50000000  0.2
  Zr0+  Ta1  1  0.25000000  0.75000000  0.50000000  0.2
  Ta0+  Ta1  1  0.25000000  0.75000000  0.50000000  0.2
  Ti0+  Ta1  1  0.25000000  0.75000000  0.50000000  0.2
  Mo0+  Ta1  1  0.25000000  0.75000000  0.50000000  0.2
  Hf0+  Ta1  1  0.25000000  0.75000000  0.83333333  0.2
  Zr0+  Ta1  1  0.25000000  0.75000000  0.83333333  0.2
  Ta0+  Ta1  1  0.25000000  0.75000000  0.83333333  0.2
  Ti0+  Ta1  1  0.25000000  0.75000000  0.83333333  0.2
  Mo0+  Ta1  1  0.25000000  0.75000000  0.83333333  0.2
  Hf0+  Ta1  1  0.75000000  0.25000000  0.16666667  0.2
  Zr0+  Ta1  1  0.75000000  0.25000000  0.16666667  0.2
  Ta0+  Ta1  1  0.75000000  0.25000000  0.16666667  0.2
  Ti0+  Ta1  1  0.75000000  0.25000000  0.16666667  0.2
  Mo0+  Ta1  1  0.75000000  0.25000000  0.16666667  0.2
  Hf0+  Ta1  1  0.75000000  0.25000000  0.50000000  0.2
  Zr0+  Ta1  1  0.75000000  0.25000000  0.50000000  0.2
  Ta0+  Ta1  1  0.75000000  0.25000000  0.50000000  0.2
  Ti0+  Ta1  1  0.75000000  0.25000000  0.50000000  0.2
  Mo0+  Ta1  1  0.75000000  0.25000000  0.50000000  0.2
  Hf0+  Ta1  1  0.75000000  0.25000000  0.83333333  0.2
  Zr0+  Ta1  1  0.75000000  0.25000000  0.83333333  0.2
  Ta0+  Ta1  1  0.75000000  0.25000000  0.83333333  0.2
  Ti0+  Ta1  1  0.75000000  0.25000000  0.83333333  0.2
  Mo0+  Ta1  1  0.75000000  0.25000000  0.83333333  0.2
  Hf0+  Ta1  1  0.75000000  0.75000000  0.16666667  0.2
  Zr0+  Ta1  1  0.75000000  0.75000000  0.16666667  0.2
  Ta0+  Ta1  1  0.75000000  0.75000000  0.16666667  0.2
  Ti0+  Ta1  1  0.75000000  0.75000000  0.16666667  0.2
  Mo0+  Ta1  1  0.75000000  0.75000000  0.16666667  0.2
  Hf0+  Ta1  1  0.75000000  0.75000000  0.50000000  0.2
  Zr0+  Ta1  1  0.75000000  0.75000000  0.50000000  0.2
  Ta0+  Ta1  1  0.75000000  0.75000000  0.50000000  0.2
  Ti0+  Ta1  1  0.75000000  0.75000000  0.50000000  0.2
  Mo0+  Ta1  1  0.75000000  0.75000000  0.50000000  0.2
  Hf0+  Ta1  1  0.75000000  0.75000000  0.83333333  0.2
  Zr0+  Ta1  1  0.75000000  0.75000000  0.83333333  0.2
  Ta0+  Ta1  1  0.75000000  0.75000000  0.83333333  0.2
  Ti0+  Ta1  1  0.75000000  0.75000000  0.83333333  0.2
  Mo0+  Ta1  1  0.75000000  0.75000000  0.83333333  0.2
  H0+  H1  1  0.25000000  0.00000000  0.25000000  0.75
  H0+  H1  1  0.25000000  0.00000000  0.58333333  0.75
  H0+  H1  1  0.25000000  0.00000000  0.91666667  0.75
  H0+  H1  1  0.25000000  0.50000000  0.25000000  0.75
  H0+  H1  1  0.25000000  0.50000000  0.58333333  0.75
  H0+  H1  1  0.25000000  0.50000000  0.91666667  0.75
  H0+  H1  1  0.75000000  0.00000000  0.25000000  0.75
  H0+  H1  1  0.75000000  0.00000000  0.58333333  0.75
  H0+  H1  1  0.75000000  0.00000000  0.91666667  0.75
  H0+  H1  1  0.75000000  0.50000000  0.25000000  0.75
  H0+  H1  1  0.75000000  0.50000000  0.58333333  0.75
  H0+  H1  1  0.75000000  0.50000000  0.91666667  0.75
  H0+  H1  1  0.00000000  0.25000000  0.25000000  0.75
  H0+  H1  1  0.00000000  0.25000000  0.58333333  0.75
  H0+  H1  1  0.00000000  0.25000000  0.91666667  0.75
  H0+  H1  1  0.00000000  0.75000000  0.25000000  0.75
  H0+  H1  1  0.00000000  0.75000000  0.58333333  0.75
  H0+  H1  1  0.00000000  0.75000000  0.91666667  0.75
  H0+  H1  1  0.50000000  0.25000000  0.25000000  0.75
  H0+  H1  1  0.50000000  0.25000000  0.58333333  0.75
  H0+  H1  1  0.50000000  0.25000000  0.91666667  0.75
  H0+  H1  1  0.50000000  0.75000000  0.25000000  0.75
  H0+  H1  1  0.50000000  0.75000000  0.58333333  0.75
  H0+  H1  1  0.50000000  0.75000000  0.91666667  0.75
  H0+  H1  1  0.25000000  0.00000000  0.08333333  0.75
  H0+  H1  1  0.25000000  0.00000000  0.41666667  0.75
  H0+  H1  1  0.25000000  0.00000000  0.75000000  0.75
  H0+  H1  1  0.25000000  0.50000000  0.08333333  0.75
  H0+  H1  1  0.25000000  0.50000000  0.41666667  0.75
  H0+  H1  1  0.25000000  0.50000000  0.75000000  0.75
  H0+  H1  1  0.75000000  0.00000000  0.08333333  0.75
  H0+  H1  1  0.75000000  0.00000000  0.41666667  0.75
  H0+  H1  1  0.75000000  0.00000000  0.75000000  0.75
  H0+  H1  1  0.75000000  0.50000000  0.08333333  0.75
  H0+  H1  1  0.75000000  0.50000000  0.41666667  0.75
  H0+  H1  1  0.75000000  0.50000000  0.75000000  0.75
  H0+  H1  1  0.00000000  0.25000000  0.08333333  0.75
  H0+  H1  1  0.00000000  0.25000000  0.41666667  0.75
  H0+  H1  1  0.00000000  0.25000000  0.75000000  0.75
  H0+  H1  1  0.00000000  0.75000000  0.08333333  0.75
  H0+  H1  1  0.00000000  0.75000000  0.41666667  0.75
  H0+  H1  1  0.00000000  0.75000000  0.75000000  0.75
  H0+  H1  1  0.50000000  0.25000000  0.08333333  0.75
  H0+  H1  1  0.50000000  0.25000000  0.41666667  0.75
  H0+  H1  1  0.50000000  0.25000000  0.75000000  0.75
  H0+  H1  1  0.50000000  0.75000000  0.08333333  0.75
  H0+  H1  1  0.50000000  0.75000000  0.41666667  0.75
  H0+  H1  1  0.50000000  0.75000000  0.75000000  0.75

