# generated using pymatgen
data_BaLaInIrO6
_symmetry_space_group_name_H-M   'P 1'
_cell_length_a   17.52230268
_cell_length_b   17.54395159
_cell_length_c   16.46546840
_cell_angle_alpha   90.00481758
_cell_angle_beta   89.99896528
_cell_angle_gamma   89.92363685
_symmetry_Int_Tables_number   1
_chemical_formula_structural   BaLaInIrO6
_chemical_formula_sum   'Ba36 La36 In36 Ir36 O216'
_cell_volume   5061.65220643
_cell_formula_units_Z   36
loop_
 _symmetry_equiv_pos_site_id
 _symmetry_equiv_pos_as_xyz
  1  'x, y, z'
loop_
 _atom_site_type_symbol
 _atom_site_label
 _atom_site_symmetry_multiplicity
 _atom_site_fract_x
 _atom_site_fract_y
 _atom_site_fract_z
 _atom_site_occupancy
  Ba  Ba0  1  0.49754296  0.66128473  0.87517586  1
  Ba  Ba1  1  0.33113456  0.82390764  0.37693684  1
  Ba  Ba2  1  0.50231197  0.32584314  0.37234417  1
  Ba  Ba3  1  0.33201873  0.16984695  0.12115695  1
  Ba  Ba4  1  0.33515915  0.83991513  0.12501487  1
  Ba  Ba5  1  0.49876762  0.32393485  0.87494000  1
  Ba  Ba6  1  0.16636156  0.00355973  0.62432595  1
  Ba  Ba7  1  1.00325952  0.84408523  0.12949999  1
  Ba  Ba8  1  0.83325257  0.31951829  0.87379388  1
  Ba  Ba9  1  0.83270954  0.67986745  0.62274517  1
  Ba  Ba10  1  0.83075204  0.34319046  0.62323368  1
  Ba  Ba11  1  0.66776109  0.49156164  0.37236458  1
  Ba  Ba12  1  0.49780757  0.33915334  0.12580237  1
  Ba  Ba13  1  0.33351008  0.82533198  0.87292410  1
  Ba  Ba14  1  0.16479139  0.00928023  0.12995983  1
  Ba  Ba15  1  0.50099629  0.34278651  0.62323282  1
  Ba  Ba16  1  0.83375771  0.68149092  0.12592278  1
  Ba  Ba17  1  0.66549188  0.83041782  0.37526468  1
  Ba  Ba18  1  0.33215853  0.49161960  0.37748142  1
  Ba  Ba19  1  0.17069142  0.99014068  0.87552169  1
  Ba  Ba20  1  0.67048733  0.15842361  0.37395189  1
  Ba  Ba21  1  -0.00523239  0.15596790  0.87489697  1
  Ba  Ba22  1  0.33379799  0.50973008  0.12711623  1
  Ba  Ba23  1  0.66832357  0.17277924  0.12578977  1
  Ba  Ba24  1  0.83091523  0.34047504  0.12372886  1
  Ba  Ba25  1  1.00168839  0.51138703  0.62302751  1
  Ba  Ba26  1  0.33319989  0.84098921  0.62517778  1
  Ba  Ba27  1  0.33268932  0.15878843  0.87455379  1
  Ba  Ba28  1  0.83916609  0.31647299  0.37551066  1
  Ba  Ba29  1  0.50072955  0.99451137  0.87814349  1
  Ba  Ba30  1  0.33151157  0.51311541  0.62447788  1
  Ba  Ba31  1  0.66990802  0.84602853  0.12617317  1
  Ba  Ba32  1  0.83226067  0.98279102  0.37771189  1
  Ba  Ba33  1  0.16494800  0.98631222  0.37610309  1
  Ba  Ba34  1  -0.00140445  0.82599647  0.37513976  1
  Ba  Ba35  1  -0.00239134  0.48976461  0.37457376  1
  La  La36  1  0.16215774  0.68499386  0.12781483  1
  La  La37  1  0.49543994  0.01096700  0.12651416  1
  La  La38  1  1.00236770  0.18318127  0.62014623  1
  La  La39  1  0.33613941  0.17423634  0.62526681  1
  La  La40  1  0.67510794  0.51724229  0.62398750  1
  La  La41  1  0.16117929  0.68656688  0.62216673  1
  La  La42  1  1.00670368  0.51640685  0.12658752  1
  La  La43  1  0.49627928  0.01196374  0.62267078  1
  La  La44  1  0.83741654  0.66117836  0.37379469  1
  La  La45  1  -0.00452706  0.48328969  0.87567122  1
  La  La46  1  0.66086483  0.82099102  0.87700089  1
  La  La47  1  0.66143094  0.15043487  0.87464537  1
  La  La48  1  0.83185656  0.01272037  0.62181958  1
  La  La49  1  0.66022111  0.48522702  0.87386565  1
  La  La50  1  0.16964776  0.66067797  0.37482870  1
  La  La51  1  0.50391047  0.65362394  0.37255642  1
  La  La52  1  0.49997293  0.67914111  0.12734234  1
  La  La53  1  -0.00928586  0.14484197  0.37576708  1
  La  La54  1  0.00000687  0.82800459  0.87510813  1
  La  La55  1  0.32923248  0.15507123  0.36814851  1
  La  La56  1  0.83820112  0.98544927  0.87739065  1
  La  La57  1  0.17693658  0.65760407  0.87321997  1
  La  La58  1  0.33047351  0.48601640  0.87181190  1
  La  La59  1  0.82999197  0.00829397  0.12984980  1
  La  La60  1  1.00296914  0.18112814  0.12927801  1
  La  La61  1  0.83705847  0.65543396  0.87416767  1
  La  La62  1  1.00214580  0.84407129  0.62254337  1
  La  La63  1  0.16957732  0.31705879  0.37799944  1
  La  La64  1  0.17478112  0.31759200  0.87231874  1
  La  La65  1  0.49621184  0.67370073  0.62041490  1
  La  La66  1  0.15920662  0.34201059  0.12829820  1
  La  La67  1  0.16044807  0.34538415  0.62474388  1
  La  La68  1  0.67150218  0.85183631  0.62645269  1
  La  La69  1  0.50613447  0.99372513  0.37314431  1
  La  La70  1  0.67054767  0.17746517  0.62369748  1
  La  La71  1  0.67141643  0.51085966  0.12731668  1
  In  In72  1  0.50250159  0.83410111  0.50125640  1
  In  In73  1  0.83242498  0.50191137  0.75080374  1
  In  In74  1  0.16640608  0.49963839  0.25144250  1
  In  In75  1  0.33485669  -0.00092684  0.49764091  1
  In  In76  1  0.16599196  0.50098696  -0.00204005  1
  In  In77  1  0.00310744  0.66856822  0.75206605  1
  In  In78  1  0.32880481  0.33250424  0.25000895  1
  In  In79  1  -0.00231077  0.00115946  0.74808680  1
  In  In80  1  0.66682725  0.33294771  0.49710783  1
  In  In81  1  0.16231699  0.16602669  0.00029734  1
  In  In82  1  0.50003571  0.49980441  0.50105240  1
  In  In83  1  0.50274181  0.16461871  0.74806993  1
  In  In84  1  0.00317686  0.66788728  -0.00447672  1
  In  In85  1  0.16520249  0.16145527  0.49819706  1
  In  In86  1  0.83517690  0.50081846  0.49827990  1
  In  In87  1  0.16570593  0.50231962  0.50035343  1
  In  In88  1  0.00037941  0.66904945  0.25098297  1
  In  In89  1  0.50055487  0.50011210  0.24734734  1
  In  In90  1  0.49840800  0.83527757  0.25195375  1
  In  In91  1  0.66649054  0.33154029  0.75001182  1
  In  In92  1  0.83230187  0.16500192  -0.00022224  1
  In  In93  1  0.83313968  0.49965099  0.00153996  1
  In  In94  1  0.33276369  0.33484781  0.74395338  1
  In  In95  1  0.50278393  0.83461022  0.74929070  1
  In  In96  1  0.66751244  0.66959854  0.75047026  1
  In  In97  1  0.16512063  0.16490706  0.74560772  1
  In  In98  1  0.33276353  -0.00371542  -0.00044873  1
  In  In99  1  0.33053773  0.33502194  0.00069498  1
  In  In100  1  -0.00098774  0.33216203  0.75184834  1
  In  In101  1  0.66872745  0.66527672  0.00021973  1
  In  In102  1  0.50084444  0.16718564  0.25256177  1
  In  In103  1  0.50048990  0.50298345  0.75012738  1
  In  In104  1  -0.00114198  -0.00007168  0.00254253  1
  In  In105  1  0.33542415  0.66506706  0.00051692  1
  In  In106  1  0.66837120  0.66853279  0.25280676  1
  In  In107  1  0.50193197  0.16668242  0.00106486  1
  Ir  Ir108  1  0.66593742  0.67111119  0.49846298  1
  Ir  Ir109  1  0.16487151  0.83344268  0.74793445  1
  Ir  Ir110  1  0.33343090  -0.00222353  0.74596432  1
  Ir  Ir111  1  -0.00377820  -0.00056781  0.25240113  1
  Ir  Ir112  1  0.66664096  0.00235684  0.50364401  1
  Ir  Ir113  1  0.16356740  0.50495559  0.75015534  1
  Ir  Ir114  1  0.00251996  0.32972586  0.49705617  1
  Ir  Ir115  1  0.33042296  0.32709540  0.49825902  1
  Ir  Ir116  1  0.83833592  0.16208833  0.25235176  1
  Ir  Ir117  1  0.16858581  0.83464595  0.25154756  1
  Ir  Ir118  1  0.83067655  0.16059134  0.74651032  1
  Ir  Ir119  1  0.49871607  0.16329221  0.50155997  1
  Ir  Ir120  1  0.15936096  0.16632737  0.25440862  1
  Ir  Ir121  1  0.66673375  0.33505296  0.00233131  1
  Ir  Ir122  1  0.50477708  0.83322096  0.00113974  1
  Ir  Ir123  1  0.83765362  0.49814354  0.24813037  1
  Ir  Ir124  1  0.67261285  0.33206571  0.24628072  1
  Ir  Ir125  1  -0.00519306  -0.00491848  0.50193920  1
  Ir  Ir126  1  -0.00131419  0.33180254  0.25060785  1
  Ir  Ir127  1  0.32958409  0.66819038  0.74471266  1
  Ir  Ir128  1  0.66749059  0.00143108  0.25033385  1
  Ir  Ir129  1  0.33263286  0.00042291  0.25066841  1
  Ir  Ir130  1  0.33203000  0.66982264  0.49970970  1
  Ir  Ir131  1  0.50280303  0.50085520  0.00069875  1
  Ir  Ir132  1  0.16373578  0.83173384  0.49901770  1
  Ir  Ir133  1  0.83114151  0.83601533  -0.00327131  1
  Ir  Ir134  1  0.67153962  -0.00249088  0.00051629  1
  Ir  Ir135  1  0.83205141  0.83666798  0.75152665  1
  Ir  Ir136  1  0.33230258  0.66940611  0.25140458  1
  Ir  Ir137  1  -0.00068578  0.33535782  0.00445191  1
  Ir  Ir138  1  0.83796320  0.16080075  0.50195149  1
  Ir  Ir139  1  0.83274608  0.83255659  0.50403632  1
  Ir  Ir140  1  0.67372863  -0.00087173  0.74974916  1
  Ir  Ir141  1  0.00043075  0.67203232  0.50018300  1
  Ir  Ir142  1  0.16493890  0.83230019  -0.00035347  1
  Ir  Ir143  1  0.83332708  0.83605483  0.25012162  1
  O  O144  1  0.29381225  0.33289004  0.12567599  1
  O  O145  1  0.29626240  0.31917453  0.61596205  1
  O  O146  1  0.30110450  0.66910052  0.13076736  1
  O  O147  1  0.29876838  0.67014099  0.62187868  1
  O  O148  1  0.31390924  0.99857501  0.13255050  1
  O  O149  1  0.31489373  1.00151813  0.62748960  1
  O  O150  1  0.64837524  0.33097204  0.12437317  1
  O  O151  1  0.65005004  0.31128478  0.62271670  1
  O  O152  1  0.63592782  0.65911666  0.12563091  1
  O  O153  1  0.63432133  0.66137891  0.61835277  1
  O  O154  1  0.63696331  0.99880709  0.12414616  1
  O  O155  1  0.63778718  0.99241092  0.62742712  1
  O  O156  1  0.97610687  0.31967328  0.12836662  1
  O  O157  1  0.98049933  0.32454133  0.61769090  1
  O  O158  1  0.98104352  0.65966246  0.12298341  1
  O  O159  1  0.98203550  0.67581631  0.62087583  1
  O  O160  1  0.96752100  0.99747927  0.13228221  1
  O  O161  1  0.96665951  0.98248445  0.62210770  1
  O  O162  1  0.17954824  0.17168116  0.13633332  1
  O  O163  1  0.20012888  0.16156497  0.62073017  1
  O  O164  1  0.18507691  0.47897867  0.12516185  1
  O  O165  1  0.18351316  0.48542814  0.62862976  1
  O  O166  1  0.18802765  0.82280225  0.12419459  1
  O  O167  1  0.18688754  0.82425240  0.62325574  1
  O  O168  1  0.52032185  0.14788841  0.12742654  1
  O  O169  1  0.53389554  0.15202247  0.61993856  1
  O  O170  1  0.53479259  0.49985648  0.11867401  1
  O  O171  1  0.53546265  0.51371252  0.62353700  1
  O  O172  1  0.52052862  0.82043576  0.12271594  1
  O  O173  1  0.53607706  0.81634189  0.62458168  1
  O  O174  1  0.86508602  0.15375060  0.13145577  1
  O  O175  1  0.86670421  0.15233018  0.62456127  1
  O  O176  1  0.87074434  0.49487145  0.12938532  1
  O  O177  1  0.85493672  0.50345447  0.62357409  1
  O  O178  1  0.85579856  0.84373473  0.12237360  1
  O  O179  1  0.86433022  0.83551093  0.62862840  1
  O  O180  1  0.12645087  0.17385298  0.37303599  1
  O  O181  1  0.14014073  0.17633976  0.87186810  1
  O  O182  1  0.14529738  0.52228182  0.37683103  1
  O  O183  1  0.13020348  0.52301828  0.86846164  1
  O  O184  1  0.14612980  0.82750088  0.37504990  1
  O  O185  1  0.13632909  0.83627170  0.87464352  1
  O  O186  1  0.46860050  0.16042795  0.38277084  1
  O  O187  1  0.48810970  0.16008722  0.87365866  1
  O  O188  1  0.47985314  0.51649960  0.37599317  1
  O  O189  1  0.46761038  0.50589866  0.88255145  1
  O  O190  1  0.48132732  0.85715890  0.37700667  1
  O  O191  1  0.48528193  0.83948671  0.88079059  1
  O  O192  1  0.81777465  0.16205308  0.37751113  1
  O  O193  1  0.80044189  0.16302830  0.86725101  1
  O  O194  1  0.81789191  0.51311685  0.36889973  1
  O  O195  1  0.79658532  0.51554740  0.87698158  1
  O  O196  1  0.81186530  0.82548501  0.37752100  1
  O  O197  1  0.79819216  0.84559580  0.87427808  1
  O  O198  1  0.01865636  0.00802148  0.37762167  1
  O  O199  1  0.01708239  -0.00219518  0.87397802  1
  O  O200  1  0.03149392  0.33435036  0.37307576  1
  O  O201  1  0.03130810  0.33984691  0.88414055  1
  O  O202  1  0.03036845  0.66949864  0.38036268  1
  O  O203  1  0.04018677  0.68956674  0.87348650  1
  O  O204  1  0.36570083  0.00614183  0.36978981  1
  O  O205  1  0.34950030  -0.00679985  0.86574898  1
  O  O206  1  0.35251976  0.32929800  0.38151934  1
  O  O207  1  0.35065959  0.34880968  0.87204974  1
  O  O208  1  0.36492229  0.66914839  0.37585062  1
  O  O209  1  0.34590135  0.66960184  0.86542629  1
  O  O210  1  0.68785186  0.00252402  0.37737856  1
  O  O211  1  0.70406870  0.00777541  0.87402025  1
  O  O212  1  0.69049397  0.33132001  0.36603978  1
  O  O213  1  0.68716331  0.34552921  0.88284222  1
  O  O214  1  0.70257844  0.67422505  0.38047567  1
  O  O215  1  0.70460917  0.68329321  0.87718825  1
  O  O216  1  0.06251816  0.10085874  0.02813012  1
  O  O217  1  0.06023028  0.09201836  0.51959962  1
  O  O218  1  0.05931922  0.43288579  0.02143475  1
  O  O219  1  0.07443947  0.41857861  0.51748133  1
  O  O220  1  0.07622144  0.76494652  0.01910962  1
  O  O221  1  0.07022511  0.76375569  0.52529536  1
  O  O222  1  0.42007705  0.07655901  0.01911798  1
  O  O223  1  0.41039938  0.09532552  0.53093755  1
  O  O224  1  0.41123577  0.43432659  0.01793980  1
  O  O225  1  0.39994494  0.41806122  0.51955234  1
  O  O226  1  0.41747443  0.75692658  0.01702900  1
  O  O227  1  0.40800210  0.75365870  0.51961609  1
  O  O228  1  0.74213240  0.08418321  0.02369470  1
  O  O229  1  0.74140991  0.09234084  0.52982070  1
  O  O230  1  0.73021737  0.43014533  0.02386655  1
  O  O231  1  0.73608961  0.43224552  0.52197675  1
  O  O232  1  0.74241843  0.76833942  0.01499742  1
  O  O233  1  0.73357078  0.76883186  0.52601007  1
  O  O234  1  0.09005956  0.26971051  0.02903648  1
  O  O235  1  0.09538745  0.26240490  0.52319441  1
  O  O236  1  0.10169779  0.59955734  0.02814922  1
  O  O237  1  0.09509751  0.60637085  0.52312579  1
  O  O238  1  0.09570789  0.92331707  0.01747471  1
  O  O239  1  0.08586646  0.92132398  0.52371438  1
  O  O240  1  0.42203672  0.25641801  0.01619241  1
  O  O241  1  0.42002820  0.25080280  0.52867770  1
  O  O242  1  0.43877362  0.59575305  0.02740321  1
  O  O243  1  0.42527589  0.60234366  0.52062318  1
  O  O244  1  0.43607159  0.92188719  0.02470409  1
  O  O245  1  0.43418841  0.93341322  0.52495889  1
  O  O246  1  0.75647455  0.26181514  0.01330915  1
  O  O247  1  0.76340313  0.24729542  0.51742079  1
  O  O248  1  0.75671642  0.58842100  0.03319010  1
  O  O249  1  0.75163156  0.59832535  0.51799158  1
  O  O250  1  0.76831362  0.93272317  0.02161923  1
  O  O251  1  0.76138176  0.92934170  0.53158824  1
  O  O252  1  0.23938895  0.07812475  0.27817098  1
  O  O253  1  0.24532661  0.06961827  0.76418305  1
  O  O254  1  0.22698376  0.39763653  0.27965903  1
  O  O255  1  0.22744621  0.41205649  0.77147249  1
  O  O256  1  0.23437879  0.73606584  0.27200105  1
  O  O257  1  0.22995471  0.73364687  0.76561023  1
  O  O258  1  0.57297807  0.06768805  0.27211773  1
  O  O259  1  0.58298308  0.06538220  0.76645212  1
  O  O260  1  0.58606173  0.40523518  0.25935880  1
  O  O261  1  0.57321050  0.40684422  0.76997223  1
  O  O262  1  0.56736031  0.73740551  0.27418882  1
  O  O263  1  0.58030343  0.74681971  0.77822135  1
  O  O264  1  0.90622747  0.06995416  0.27545877  1
  O  O265  1  0.88940449  0.06289299  0.76572756  1
  O  O266  1  0.90597577  0.40341518  0.26896878  1
  O  O267  1  0.91291562  0.41121470  0.77641278  1
  O  O268  1  0.90114136  0.74069555  0.27178948  1
  O  O269  1  0.89863090  0.74347574  0.77938631  1
  O  O270  1  0.24885101  0.23456218  0.28348296  1
  O  O271  1  0.25232527  0.24814823  0.76978347  1
  O  O272  1  0.26064607  0.58324178  0.27030392  1
  O  O273  1  0.25978669  0.57168976  0.77318769  1
  O  O274  1  0.25994288  0.90844003  0.26860410  1
  O  O275  1  0.25933926  0.90382766  0.76346678  1
  O  O276  1  0.59876065  0.24451996  0.26254337  1
  O  O277  1  0.60654082  0.22655825  0.76823816  1
  O  O278  1  0.59063772  0.57771264  0.26935034  1
  O  O279  1  0.59924380  0.57051404  0.77817225  1
  O  O280  1  0.59187885  0.91764098  0.26602665  1
  O  O281  1  0.61198102  0.90367739  0.76829149  1
  O  O282  1  0.93602792  0.22955563  0.27226324  1
  O  O283  1  0.92431060  0.22920390  0.75835765  1
  O  O284  1  0.92364400  0.57286057  0.26616958  1
  O  O285  1  0.93093705  0.57654429  0.78398130  1
  O  O286  1  0.92652712  0.90612394  0.26824968  1
  O  O287  1  0.92577665  0.89910859  0.77625285  1
  O  O288  1  0.26127945  0.23801470  0.46913284  1
  O  O289  1  0.24787743  0.24810679  0.97511408  1
  O  O290  1  0.25892887  0.58368500  0.48150544  1
  O  O291  1  0.26626582  0.57059456  0.97106861  1
  O  O292  1  0.25389674  0.90404458  0.48654503  1
  O  O293  1  0.25655557  0.89904513  0.98660861  1
  O  O294  1  0.58708047  0.23239381  0.48284580  1
  O  O295  1  0.60344475  0.23977075  0.97817373  1
  O  O296  1  0.59550391  0.58537375  0.47511468  1
  O  O297  1  0.59575588  0.56490875  0.97468128  1
  O  O298  1  0.59877782  0.91306288  0.49054400  1
  O  O299  1  0.60088839  0.90361635  0.97691178  1
  O  O300  1  0.93741934  0.22642331  0.48181088  1
  O  O301  1  0.93181304  0.24104562  0.99077239  1
  O  O302  1  0.92623271  0.58679917  0.47751972  1
  O  O303  1  0.93033604  0.57274249  0.96790350  1
  O  O304  1  0.92832486  0.89809290  0.48855780  1
  O  O305  1  0.92445689  0.90030886  0.97299680  1
  O  O306  1  0.24990968  0.07987753  0.46749046  1
  O  O307  1  0.24286025  0.07589094  0.98986699  1
  O  O308  1  0.23673848  0.39610460  0.47927593  1
  O  O309  1  0.23455384  0.40957080  0.96204062  1
  O  O310  1  0.23172524  0.73533253  0.47909652  1
  O  O311  1  0.23109091  0.73594346  0.98239994  1
  O  O312  1  0.56581307  0.06679119  0.47988926  1
  O  O313  1  0.58986922  0.07358653  0.97827320  1
  O  O314  1  0.57251273  0.40613126  0.48289029  1
  O  O315  1  0.57428943  0.40834589  0.97791146  1
  O  O316  1  0.57247573  0.73471388  0.47297006  1
  O  O317  1  0.57663724  0.74563273  0.98134678  1
  O  O318  1  0.90390831  0.06579365  0.48481437  1
  O  O319  1  0.89665295  0.06441113  0.97766908  1
  O  O320  1  0.91384369  0.40196950  0.48201454  1
  O  O321  1  0.91068628  0.40523769  0.97637778  1
  O  O322  1  0.90170271  0.73784324  0.47640352  1
  O  O323  1  0.90021310  0.74337125  0.96800252  1
  O  O324  1  0.09336530  0.26289379  0.22837930  1
  O  O325  1  0.09315218  0.26550244  0.71885746  1
  O  O326  1  0.09472289  0.59453116  0.22128686  1
  O  O327  1  0.10568267  0.60180773  0.72381568  1
  O  O328  1  0.09201300  0.92923807  0.23611989  1
  O  O329  1  0.08998144  0.91943118  0.72802391  1
  O  O330  1  0.41754525  0.25148994  0.23749110  1
  O  O331  1  0.41944298  0.24968556  0.72163568  1
  O  O332  1  0.42749466  0.60560018  0.22707777  1
  O  O333  1  0.42505137  0.60429742  0.72299170  1
  O  O334  1  0.42651647  0.93476908  0.22795496  1
  O  O335  1  0.43141775  0.93140942  0.72487424  1
  O  O336  1  0.76632851  0.25398167  0.23230099  1
  O  O337  1  0.76522907  0.25089969  0.72818118  1
  O  O338  1  0.76328955  0.58506411  0.22946823  1
  O  O339  1  0.75882930  0.59727760  0.72653508  1
  O  O340  1  0.76471668  0.93219779  0.22824862  1
  O  O341  1  0.76949941  0.93424598  0.72374537  1
  O  O342  1  0.06089954  0.09895554  0.23301495  1
  O  O343  1  0.06286818  0.09911968  0.71769710  1
  O  O344  1  0.06255000  0.42519309  0.22349483  1
  O  O345  1  0.07350528  0.43501374  0.73819871  1
  O  O346  1  0.08341213  0.75929452  0.23314151  1
  O  O347  1  0.07188948  0.76838497  0.72454615  1
  O  O348  1  0.40351687  0.08701226  0.23550573  1
  O  O349  1  0.40616376  0.08611514  0.72240897  1
  O  O350  1  0.40760391  0.42562640  0.23674644  1
  O  O351  1  0.40211572  0.43299248  0.73321329  1
  O  O352  1  0.40402493  0.75580018  0.23438070  1
  O  O353  1  0.40661476  0.75367590  0.72766415  1
  O  O354  1  0.74799399  0.08643813  0.22685912  1
  O  O355  1  0.73612775  0.09555878  0.72132051  1
  O  O356  1  0.74153451  0.42998791  0.22425068  1
  O  O357  1  0.73272050  0.43198652  0.72736414  1
  O  O358  1  0.74492961  0.76485217  0.23496216  1
  O  O359  1  0.73775007  0.77583278  0.72608049  1
