# generated using pymatgen
data_BaLaInIrO6
_symmetry_space_group_name_H-M   'P 1'
_cell_length_a   17.51178900
_cell_length_b   17.53886660
_cell_length_c   16.47100093
_cell_angle_alpha   90.02201440
_cell_angle_beta   89.98348483
_cell_angle_gamma   90.04132845
_symmetry_Int_Tables_number   1
_chemical_formula_structural   BaLaInIrO6
_chemical_formula_sum   'Ba36 La36 In36 Ir36 O216'
_cell_volume   5058.85077824
_cell_formula_units_Z   36
loop_
 _symmetry_equiv_pos_site_id
 _symmetry_equiv_pos_as_xyz
  1  'x, y, z'
loop_
 _atom_site_type_symbol
 _atom_site_label
 _atom_site_symmetry_multiplicity
 _atom_site_fract_x
 _atom_site_fract_y
 _atom_site_fract_z
 _atom_site_occupancy
  Ba  Ba0  1  0.99917499  0.83944646  0.12183563  1
  Ba  Ba1  1  0.00268792  0.15680471  0.88119276  1
  Ba  Ba2  1  0.33230441  0.15958255  0.87735623  1
  Ba  Ba3  1  0.99804455  0.17310928  0.12533670  1
  Ba  Ba4  1  0.49602896  0.34361778  0.12440314  1
  Ba  Ba5  1  0.16747599  0.00909215  0.62588148  1
  Ba  Ba6  1  0.00129139  0.82330089  0.87237704  1
  Ba  Ba7  1  0.82908737  0.67881982  0.12664464  1
  Ba  Ba8  1  0.50520881  0.01075200  0.12602675  1
  Ba  Ba9  1  0.66257808  0.82275417  0.37871181  1
  Ba  Ba10  1  0.33154801  0.50882580  0.62364690  1
  Ba  Ba11  1  0.32904049  0.49262303  0.87126658  1
  Ba  Ba12  1  0.16626801  0.34337484  0.62634413  1
  Ba  Ba13  1  0.66719024  0.17567979  0.62413899  1
  Ba  Ba14  1  0.16804667  0.66039396  0.87668980  1
  Ba  Ba15  1  0.50238926  0.32318271  0.36946939  1
  Ba  Ba16  1  0.33156718  0.15920126  0.37079304  1
  Ba  Ba17  1  0.66657472  0.51286495  0.12712824  1
  Ba  Ba18  1  -0.00428794  0.49397509  0.87444472  1
  Ba  Ba19  1  0.33686609  0.51102211  0.12638488  1
  Ba  Ba20  1  0.83283413  0.34125780  0.62169959  1
  Ba  Ba21  1  0.50475288  0.65440274  0.87479512  1
  Ba  Ba22  1  0.83181880  0.67380375  0.62860184  1
  Ba  Ba23  1  0.66712277  0.82357975  0.87867127  1
  Ba  Ba24  1  0.50509850  0.65880143  0.37759505  1
  Ba  Ba25  1  -0.00041533  0.15674545  0.37604407  1
  Ba  Ba26  1  0.66723735  0.49165376  0.87427242  1
  Ba  Ba27  1  0.83238151  0.00869867  0.62696867  1
  Ba  Ba28  1  0.16619475  0.33862354  0.12625790  1
  Ba  Ba29  1  0.33484006  0.49292180  0.37798157  1
  Ba  Ba30  1  1.00135104  0.51212216  0.62536595  1
  Ba  Ba31  1  0.50120111  0.67743112  0.62672603  1
  Ba  Ba32  1  0.49949633  0.99267782  0.37414680  1
  Ba  Ba33  1  0.16815341  0.99261726  0.37238852  1
  Ba  Ba34  1  0.16622711  0.99363908  0.87733064  1
  Ba  Ba35  1  -0.00421718  0.48933350  0.37276309  1
  La  La36  1  0.83980918  0.98023675  0.37582739  1
  La  La37  1  0.50365260  0.32113964  0.87612583  1
  La  La38  1  0.84106605  0.97926751  0.87537643  1
  La  La39  1  0.16189144  0.01624953  0.12218406  1
  La  La40  1  0.16903360  0.32213870  0.87274809  1
  La  La41  1  1.00577748  0.18524107  0.62898511  1
  La  La42  1  1.00414216  0.51651567  0.12384450  1
  La  La43  1  0.49603115  0.35077637  0.62601206  1
  La  La44  1  0.34314619  0.18224443  0.62649719  1
  La  La45  1  0.50015794  0.67941358  0.12351003  1
  La  La46  1  0.17422008  0.31740157  0.37904882  1
  La  La47  1  0.83838517  0.65446845  0.87655003  1
  La  La48  1  0.16531799  0.67107085  0.63061525  1
  La  La49  1  0.83234421  0.31629680  0.37465024  1
  La  La50  1  0.66037013  0.15278070  0.87059040  1
  La  La51  1  0.16262888  0.67252197  0.12260777  1
  La  La52  1  0.49817339  0.01297213  0.62308142  1
  La  La53  1  0.83846291  0.31523711  0.87300092  1
  La  La54  1  0.50395151  0.98616200  0.87288501  1
  La  La55  1  0.33868125  0.17915950  0.12627371  1
  La  La56  1  0.66803553  0.83695409  0.13025041  1
  La  La57  1  -0.00491984  0.82304153  0.37777663  1
  La  La58  1  0.66927640  0.18227761  0.12715977  1
  La  La59  1  0.82703556  0.34556648  0.12167581  1
  La  La60  1  0.33502694  0.84661546  0.12209345  1
  La  La61  1  0.83415272  0.65295784  0.37383005  1
  La  La62  1  0.33066462  0.84092206  0.62460219  1
  La  La63  1  0.67404384  0.84742981  0.62999366  1
  La  La64  1  0.16998739  0.65775435  0.37469858  1
  La  La65  1  0.33167239  0.82457356  0.37309635  1
  La  La66  1  0.82644935  0.00733766  0.12440961  1
  La  La67  1  0.66000438  0.48715023  0.37495839  1
  La  La68  1  0.32514032  0.82019668  0.87293220  1
  La  La69  1  0.67162105  0.51617442  0.62472114  1
  La  La70  1  1.00229731  0.84143770  0.62737635  1
  La  La71  1  0.66026429  0.15258363  0.37669226  1
  In  In72  1  0.16795085  0.83616436  0.00216430  1
  In  In73  1  -0.00291066  0.33298902  0.00191443  1
  In  In74  1  0.66823900  -0.00145902  0.50214405  1
  In  In75  1  0.16794585  0.83407180  0.74894063  1
  In  In76  1  0.33459935  0.33517857  -0.00295854  1
  In  In77  1  0.33292798  -0.00084983  0.49853772  1
  In  In78  1  0.33616997  0.33445167  0.50062261  1
  In  In79  1  0.16431016  0.16617037  0.24958510  1
  In  In80  1  0.16396073  0.50227841  0.49769062  1
  In  In81  1  0.33551414  0.66665184  0.00155302  1
  In  In82  1  0.83159618  0.49794428  0.74752818  1
  In  In83  1  0.49950633  0.83301155  0.25266492  1
  In  In84  1  0.83337973  0.16417775  0.50057370  1
  In  In85  1  -0.00190722  -0.00336703  0.24707180  1
  In  In86  1  0.83135607  0.49820096  0.00037152  1
  In  In87  1  0.66733431  -0.00037753  -0.00234137  1
  In  In88  1  0.66614017  0.33240697  0.75014888  1
  In  In89  1  0.00121255  -0.00043141  0.50023287  1
  In  In90  1  0.66510292  0.33296255  0.50024301  1
  In  In91  1  0.82933095  0.16279966  -0.00062628  1
  In  In92  1  0.16556572  0.49740330  0.00004358  1
  In  In93  1  0.67049956  -0.00214997  0.25173343  1
  In  In94  1  0.66562604  0.66961771  0.75234790  1
  In  In95  1  0.16697194  0.83466007  0.24806576  1
  In  In96  1  0.33520218  0.66883024  0.49875818  1
  In  In97  1  0.33272365  0.33523815  0.25149559  1
  In  In98  1  0.83429662  0.49838433  0.25010335  1
  In  In99  1  0.50122022  0.50555950  0.24904770  1
  In  In100  1  -0.00147454  0.33569229  0.49633953  1
  In  In101  1  0.49937696  0.83391728  -0.00132091  1
  In  In102  1  0.33610671  0.66657518  0.74879285  1
  In  In103  1  0.33739610  0.00039387  0.75277862  1
  In  In104  1  0.16304730  0.49825615  0.25151161  1
  In  In105  1  -0.00213118  0.00221117  0.74842599  1
  In  In106  1  0.16909527  0.16609113  0.74890522  1
  In  In107  1  -0.00158713  0.66860034  0.49912446  1
  Ir  Ir108  1  -0.00442142  -0.00308512  0.00164089  1
  Ir  Ir109  1  0.83398357  0.83053808  0.25249436  1
  Ir  Ir110  1  0.66798753  0.66799583  0.00367692  1
  Ir  Ir111  1  0.33381515  -0.00153550  0.24538093  1
  Ir  Ir112  1  0.33682593  0.00352904  0.00421269  1
  Ir  Ir113  1  0.33170490  0.67249332  0.25052809  1
  Ir  Ir114  1  0.50651584  0.50123296  0.50265047  1
  Ir  Ir115  1  0.50138412  0.16530352  0.50079486  1
  Ir  Ir116  1  0.50296255  0.84092265  0.74758549  1
  Ir  Ir117  1  0.66792520  0.66800605  0.49905934  1
  Ir  Ir118  1  0.83256413  0.83203698  0.74955216  1
  Ir  Ir119  1  0.50135431  0.16699269  0.75052769  1
  Ir  Ir120  1  0.67055935  0.33132571  0.24591686  1
  Ir  Ir121  1  0.33773259  0.33394072  0.75031891  1
  Ir  Ir122  1  0.50362176  0.16529901  0.24842112  1
  Ir  Ir123  1  0.50066150  0.49570083  0.75108246  1
  Ir  Ir124  1  0.82872140  0.16571027  0.24818786  1
  Ir  Ir125  1  0.16306147  0.49840721  0.75076156  1
  Ir  Ir126  1  0.66589139  0.33135446  0.00116137  1
  Ir  Ir127  1  0.00004812  0.33213007  0.75345403  1
  Ir  Ir128  1  0.66766464  0.00098066  0.75274780  1
  Ir  Ir129  1  -0.00290407  0.66827403  0.00130209  1
  Ir  Ir130  1  -0.00650191  0.33073799  0.25028048  1
  Ir  Ir131  1  0.82594172  0.50364973  0.49554712  1
  Ir  Ir132  1  0.50138640  0.16705689  -0.00186997  1
  Ir  Ir133  1  0.16834975  0.16701520  0.50407596  1
  Ir  Ir134  1  0.16944720  0.16402566  0.00077340  1
  Ir  Ir135  1  -0.00214722  0.66889156  0.75149174  1
  Ir  Ir136  1  0.83203193  0.16561375  0.75312263  1
  Ir  Ir137  1  0.50472167  0.50131728  -0.00235798  1
  Ir  Ir138  1  0.16442757  0.83124203  0.49604087  1
  Ir  Ir139  1  0.83162713  0.82776174  0.50021920  1
  Ir  Ir140  1  0.50240016  0.83433612  0.50643928  1
  Ir  Ir141  1  -0.00042311  0.67032044  0.24732272  1
  Ir  Ir142  1  0.83351720  0.83274427  0.00128861  1
  Ir  Ir143  1  0.66869774  0.66835738  0.25236976  1
  O  O144  1  0.32016692  0.32277255  0.12317631  1
  O  O145  1  0.31839186  0.32529917  0.62936020  1
  O  O146  1  0.29994630  0.66605715  0.13313052  1
  O  O147  1  0.30502662  0.67233292  0.62380037  1
  O  O148  1  0.30169089  0.98964285  0.12381181  1
  O  O149  1  0.31902579  0.97956690  0.62396263  1
  O  O150  1  0.64159298  0.31894127  0.12399785  1
  O  O151  1  0.63042216  0.32686022  0.62467430  1
  O  O152  1  0.63808687  0.67117348  0.12807249  1
  O  O153  1  0.64945791  0.65628789  0.61925902  1
  O  O154  1  0.65811323  0.97707604  0.12417696  1
  O  O155  1  0.63610686  0.99108364  0.63244245  1
  O  O156  1  0.96084768  0.32601546  0.13166784  1
  O  O157  1  0.98105278  0.32304972  0.63191023  1
  O  O158  1  0.97408483  0.65991668  0.12415030  1
  O  O159  1  0.98096093  0.67398117  0.63068401  1
  O  O160  1  0.96202660  0.99728845  0.12054982  1
  O  O161  1  0.97774196  0.97885743  0.62253059  1
  O  O162  1  0.19661775  0.15737174  0.12007280  1
  O  O163  1  0.20202301  0.16836339  0.62216399  1
  O  O164  1  0.18387928  0.50313662  0.12761560  1
  O  O165  1  0.17886235  0.50393844  0.63101492  1
  O  O166  1  0.20041860  0.81438692  0.12527777  1
  O  O167  1  0.19408569  0.81661449  0.61579560  1
  O  O168  1  0.53361844  0.16365237  0.12272247  1
  O  O169  1  0.52295598  0.15054661  0.62596092  1
  O  O170  1  0.52015359  0.50377342  0.11797088  1
  O  O171  1  0.53446154  0.48990103  0.62742554  1
  O  O172  1  0.53298615  0.82479155  0.12558939  1
  O  O173  1  0.53727043  0.83826200  0.62742192  1
  O  O174  1  0.85125105  0.15027269  0.12988535  1
  O  O175  1  0.86833113  0.16397399  0.63369451  1
  O  O176  1  0.86612481  0.48799840  0.12569138  1
  O  O177  1  0.84901345  0.50152443  0.61507265  1
  O  O178  1  0.85240041  0.83393824  0.12623162  1
  O  O179  1  0.86378008  0.82643891  0.62445635  1
  O  O180  1  0.14883496  0.17313224  0.38218768  1
  O  O181  1  0.15244212  0.17527165  0.87974178  1
  O  O182  1  0.13931270  0.52509244  0.37203365  1
  O  O183  1  0.14505075  0.49717421  0.86912373  1
  O  O184  1  0.13306960  0.83771108  0.37615498  1
  O  O185  1  0.15235560  0.83978769  0.87654883  1
  O  O186  1  0.47891091  0.16680033  0.37589859  1
  O  O187  1  0.47833759  0.18223448  0.87400508  1
  O  O188  1  0.48944402  0.50343155  0.38178748  1
  O  O189  1  0.47948897  0.49700246  0.87326708  1
  O  O190  1  0.47067965  0.83324425  0.38420296  1
  O  O191  1  0.46684232  0.84406691  0.86847611  1
  O  O192  1  0.79665775  0.17836691  0.36516067  1
  O  O193  1  0.79756052  0.17549939  0.87195773  1
  O  O194  1  0.79820747  0.50969385  0.37540378  1
  O  O195  1  0.81765780  0.51641743  0.87483843  1
  O  O196  1  0.80888085  0.84159821  0.37589547  1
  O  O197  1  0.81170736  0.84193809  0.87531712  1
  O  O198  1  0.01513347  -0.01085544  0.37414174  1
  O  O199  1  0.01478544  -0.00224906  0.88108142  1
  O  O200  1  0.03235243  0.33333627  0.36723287  1
  O  O201  1  0.03051935  0.33483463  0.87215130  1
  O  O202  1  0.02904254  0.68046385  0.36716253  1
  O  O203  1  0.01803920  0.66560642  0.87780732  1
  O  O204  1  0.35139238  -0.00136794  0.36821720  1
  O  O205  1  0.36955786  0.00765642  0.88419495  1
  O  O206  1  0.35399613  0.32639952  0.37718325  1
  O  O207  1  0.36716357  0.33418185  0.86989842  1
  O  O208  1  0.35830295  0.68543223  0.37006363  1
  O  O209  1  0.35913778  0.68316876  0.87316521  1
  O  O210  1  0.70264168  0.00986172  0.37563733  1
  O  O211  1  0.70257003  0.01162931  0.87110313  1
  O  O212  1  0.69672464  0.34527088  0.36670044  1
  O  O213  1  0.69764140  0.33421670  0.88178937  1
  O  O214  1  0.69835627  0.67124235  0.37496396  1
  O  O215  1  0.69776432  0.66912456  0.88258363  1
  O  O216  1  0.07629561  0.08605627  0.02470180  1
  O  O217  1  0.07239907  0.10103762  0.52756032  1
  O  O218  1  0.06122369  0.43339582  0.02535313  1
  O  O219  1  0.06702254  0.43052717  0.51215560  1
  O  O220  1  0.07571312  0.75034115  0.01958033  1
  O  O221  1  0.06399054  0.77414814  0.51589135  1
  O  O222  1  0.40436261  0.10076766  0.02849969  1
  O  O223  1  0.40830769  0.09669123  0.52710131  1
  O  O224  1  0.41350178  0.43308298  0.01110808  1
  O  O225  1  0.41904222  0.42680153  0.52292694  1
  O  O226  1  0.41053282  0.75960965  0.03693355  1
  O  O227  1  0.40583140  0.77067800  0.52388417  1
  O  O228  1  0.72818747  0.10072336  0.02513020  1
  O  O229  1  0.73733977  0.09466361  0.51649196  1
  O  O230  1  0.73509966  0.41967195  0.02519842  1
  O  O231  1  0.72983587  0.44141344  0.51588395  1
  O  O232  1  0.73321584  0.76755370  0.02524192  1
  O  O233  1  0.73315328  0.76363450  0.52638984  1
  O  O234  1  0.09568877  0.25305239  0.01391969  1
  O  O235  1  0.09438885  0.25390051  0.52015567  1
  O  O236  1  0.08680459  0.59729894  0.02477797  1
  O  O237  1  0.10010943  0.60931587  0.52079609  1
  O  O238  1  0.09299152  0.93324826  0.02650216  1
  O  O239  1  0.09929374  0.92103834  0.51931279  1
  O  O240  1  0.42874384  0.25369591  0.01612684  1
  O  O241  1  0.43346648  0.25552710  0.53136394  1
  O  O242  1  0.44032642  0.59731859  0.01960290  1
  O  O243  1  0.43267149  0.58865656  0.51741885  1
  O  O244  1  0.42243429  0.93117047  0.02425547  1
  O  O245  1  0.43667623  0.92658697  0.52585542  1
  O  O246  1  0.75691398  0.26394948  0.02741697  1
  O  O247  1  0.76227043  0.26457927  0.50676691  1
  O  O248  1  0.75668422  0.59719929  0.01830527  1
  O  O249  1  0.76296232  0.60187003  0.51087585  1
  O  O250  1  0.77153323  0.93005309  0.01361189  1
  O  O251  1  0.76008675  0.91605128  0.52305609  1
  O  O252  1  0.24354042  0.06660247  0.25624686  1
  O  O253  1  0.24322821  0.07318245  0.76645136  1
  O  O254  1  0.22997978  0.40172452  0.27924954  1
  O  O255  1  0.23496509  0.40161515  0.77292345  1
  O  O256  1  0.24131220  0.73986380  0.28029980  1
  O  O257  1  0.24306373  0.74150989  0.76583833  1
  O  O258  1  0.57942104  0.08088976  0.27067134  1
  O  O259  1  0.57204513  0.07195448  0.78005186  1
  O  O260  1  0.58683347  0.40919504  0.26539041  1
  O  O261  1  0.56200592  0.39848002  0.77097319  1
  O  O262  1  0.57532588  0.73360384  0.26199952  1
  O  O263  1  0.57013701  0.74797329  0.76492222  1
  O  O264  1  0.89042446  0.06763127  0.27115322  1
  O  O265  1  0.89564486  0.07154427  0.77748189  1
  O  O266  1  0.90070068  0.39547810  0.27613206  1
  O  O267  1  0.90421365  0.39816472  0.77313036  1
  O  O268  1  0.90444707  0.73824475  0.27958736  1
  O  O269  1  0.90032725  0.73643539  0.77634810  1
  O  O270  1  0.25200358  0.24355870  0.26458327  1
  O  O271  1  0.26184391  0.24954666  0.76945274  1
  O  O272  1  0.26146934  0.58507719  0.27405785  1
  O  O273  1  0.25134236  0.57062110  0.76192698  1
  O  O274  1  0.27210547  0.90105306  0.26587096  1
  O  O275  1  0.27521005  0.89713348  0.76463249  1
  O  O276  1  0.60348449  0.23299826  0.27044287  1
  O  O277  1  0.59310332  0.23498861  0.77880074  1
  O  O278  1  0.60354730  0.57291204  0.27401548  1
  O  O279  1  0.58983093  0.56819824  0.76085712  1
  O  O280  1  0.59285100  0.90730488  0.26785315  1
  O  O281  1  0.59606881  0.91037159  0.77598627  1
  O  O282  1  0.91931234  0.23901331  0.27728054  1
  O  O283  1  0.92533143  0.23922928  0.77769934  1
  O  O284  1  0.92510769  0.58309896  0.26857047  1
  O  O285  1  0.92312034  0.58271314  0.76602781  1
  O  O286  1  0.92763783  0.89575654  0.27443862  1
  O  O287  1  0.91825176  0.90569739  0.76744708  1
  O  O288  1  0.25628819  0.23844594  0.48534770  1
  O  O289  1  0.25562343  0.23715489  0.98547771  1
  O  O290  1  0.25781078  0.57952389  0.47928614  1
  O  O291  1  0.25805813  0.57532582  0.98593486  1
  O  O292  1  0.26424920  0.89314291  0.47857299  1
  O  O293  1  0.27386970  0.90991379  0.98173567  1
  O  O294  1  0.59424818  0.23210874  0.47269773  1
  O  O295  1  0.59785180  0.23580559  0.97263822  1
  O  O296  1  0.60543101  0.56753972  0.48071673  1
  O  O297  1  0.60006192  0.57240257  0.98367948  1
  O  O298  1  0.59146795  0.90392955  0.48783595  1
  O  O299  1  0.58448245  0.91565427  0.97210467  1
  O  O300  1  0.92323692  0.24401585  0.48078749  1
  O  O301  1  0.91851829  0.24021695  0.97907779  1
  O  O302  1  0.91699864  0.57573244  0.47472290  1
  O  O303  1  0.92484827  0.58107367  0.98738196  1
  O  O304  1  0.92422739  0.89392251  0.47782139  1
  O  O305  1  0.92624005  0.90372388  0.97701685  1
  O  O306  1  0.23738779  0.07624016  0.48612429  1
  O  O307  1  0.24186685  0.06962674  0.98805190  1
  O  O308  1  0.23597928  0.40323824  0.47868846  1
  O  O309  1  0.23264801  0.39710862  0.97375605  1
  O  O310  1  0.23168146  0.74220878  0.46967894  1
  O  O311  1  0.25117444  0.75082110  0.97770456  1
  O  O312  1  0.57198085  0.07592159  0.48235013  1
  O  O313  1  0.56931749  0.07701542  0.96890316  1
  O  O314  1  0.57423198  0.41171500  0.47966892  1
  O  O315  1  0.57019714  0.39914609  0.97587518  1
  O  O316  1  0.57271448  0.73806698  0.48877333  1
  O  O317  1  0.57706316  0.73576907  0.98758566  1
  O  O318  1  0.89923301  0.06481923  0.47300143  1
  O  O319  1  0.89683569  0.05953423  0.98098167  1
  O  O320  1  0.88882408  0.40757875  0.47338039  1
  O  O321  1  0.89377698  0.39590396  0.97550785  1
  O  O322  1  0.90037741  0.73900130  0.46901300  1
  O  O323  1  0.89943991  0.73575205  0.97836414  1
  O  O324  1  0.08249800  0.26169043  0.23186774  1
  O  O325  1  0.08927334  0.26036155  0.73404398  1
  O  O326  1  0.08728420  0.59889551  0.22011584  1
  O  O327  1  0.09501721  0.59889759  0.72955822  1
  O  O328  1  0.09933008  0.93010645  0.21771460  1
  O  O329  1  0.08674530  0.91998548  0.72840165  1
  O  O330  1  0.42601269  0.24728527  0.22829771  1
  O  O331  1  0.43419192  0.26346421  0.72344624  1
  O  O332  1  0.42841908  0.60780777  0.22676341  1
  O  O333  1  0.42883999  0.58516816  0.73280124  1
  O  O334  1  0.42104437  0.92731071  0.22605916  1
  O  O335  1  0.44673849  0.94039681  0.73351889  1
  O  O336  1  0.76409500  0.26119332  0.21979786  1
  O  O337  1  0.76499558  0.25732714  0.73503595  1
  O  O338  1  0.75946574  0.59920992  0.24024818  1
  O  O339  1  0.75317413  0.59048132  0.73370378  1
  O  O340  1  0.77374694  0.92786257  0.23352698  1
  O  O341  1  0.75646461  0.92414868  0.72654619  1
  O  O342  1  0.07599683  0.08841592  0.22979774  1
  O  O343  1  0.06615519  0.10097344  0.72638370  1
  O  O344  1  0.05490927  0.42643520  0.22467441  1
  O  O345  1  0.06906379  0.42490309  0.73197520  1
  O  O346  1  0.07568356  0.75216974  0.22518967  1
  O  O347  1  0.07130838  0.75553428  0.72589421  1
  O  O348  1  0.40270573  0.09575505  0.22310967  1
  O  O349  1  0.40921760  0.10021529  0.72242694  1
  O  O350  1  0.41146401  0.42794915  0.23872177  1
  O  O351  1  0.41105183  0.42261065  0.72439197  1
  O  O352  1  0.39846869  0.76480225  0.22433621  1
  O  O353  1  0.40909356  0.77720232  0.72389392  1
  O  O354  1  0.73699735  0.09982573  0.22190419  1
  O  O355  1  0.73654681  0.09721269  0.73346801  1
  O  O356  1  0.74357100  0.41753937  0.22213257  1
  O  O357  1  0.73202241  0.42996188  0.72260263  1
  O  O358  1  0.73391096  0.76680886  0.23135901  1
  O  O359  1  0.73838653  0.76693210  0.72781878  1
