# generated using pymatgen
data_BaLaInIrO6
_symmetry_space_group_name_H-M   'P 1'
_cell_length_a   17.53165107
_cell_length_b   17.54121148
_cell_length_c   16.50115293
_cell_angle_alpha   90.01574719
_cell_angle_beta   90.04075599
_cell_angle_gamma   89.94358832
_symmetry_Int_Tables_number   1
_chemical_formula_structural   BaLaInIrO6
_chemical_formula_sum   'Ba36 La36 In36 Ir36 O216'
_cell_volume   5074.53620331
_cell_formula_units_Z   36
loop_
 _symmetry_equiv_pos_site_id
 _symmetry_equiv_pos_as_xyz
  1  'x, y, z'
loop_
 _atom_site_type_symbol
 _atom_site_label
 _atom_site_symmetry_multiplicity
 _atom_site_fract_x
 _atom_site_fract_y
 _atom_site_fract_z
 _atom_site_occupancy
  Ba  Ba0  1  0.50150459  0.67481643  0.62282380  1
  Ba  Ba1  1  0.33240059  0.49171303  0.87863634  1
  Ba  Ba2  1  1.00369628  0.17420827  0.12708804  1
  Ba  Ba3  1  0.99739754  0.50987695  0.12706581  1
  Ba  Ba4  1  0.83553951  0.67376038  0.12023463  1
  Ba  Ba5  1  0.83155054  0.32685925  0.87684956  1
  Ba  Ba6  1  -0.00205473  0.82664724  0.87499142  1
  Ba  Ba7  1  0.33345303  0.49011781  0.37681278  1
  Ba  Ba8  1  0.83130088  0.34303548  0.12739236  1
  Ba  Ba9  1  0.32947496  0.82218786  0.37074775  1
  Ba  Ba10  1  0.49852845  0.34476957  0.12378186  1
  Ba  Ba11  1  0.66112477  0.49188999  0.37785130  1
  Ba  Ba12  1  0.83715648  0.99155178  0.37595179  1
  Ba  Ba13  1  0.16816774  0.00309953  0.62525269  1
  Ba  Ba14  1  0.66200190  0.15993283  0.87782796  1
  Ba  Ba15  1  0.33493119  0.50959451  0.62700622  1
  Ba  Ba16  1  0.49954245  0.00410766  0.62538224  1
  Ba  Ba17  1  0.49830724  0.65471795  0.37631652  1
  Ba  Ba18  1  0.66990340  0.50844205  0.12485085  1
  Ba  Ba19  1  0.50132487  0.32725963  0.87619465  1
  Ba  Ba20  1  0.66460872  0.82445648  0.87542731  1
  Ba  Ba21  1  0.83649724  0.33893243  0.62772466  1
  Ba  Ba22  1  0.32929908  0.82795383  0.87204727  1
  Ba  Ba23  1  0.50113815  0.66232605  0.87890369  1
  Ba  Ba24  1  0.83638121  0.66097178  0.87519437  1
  Ba  Ba25  1  0.16074961  0.34157496  0.62626123  1
  Ba  Ba26  1  -0.00314129  0.49470296  0.87570004  1
  Ba  Ba27  1  0.33622329  0.18304940  0.12815619  1
  Ba  Ba28  1  0.66298803  0.49146386  0.87512588  1
  Ba  Ba29  1  0.00359811  0.15670347  0.37477754  1
  Ba  Ba30  1  0.17064184  0.65867101  0.87951447  1
  Ba  Ba31  1  0.50205112  0.99050867  0.87549536  1
  Ba  Ba32  1  1.00355216  0.51062905  0.62576816  1
  Ba  Ba33  1  0.99992249  0.17330039  0.61974329  1
  Ba  Ba34  1  0.66533195  0.17623585  0.62618884  1
  Ba  Ba35  1  0.33276443  0.83897544  0.12456757  1
  La  La36  1  1.00064871  0.84393728  0.62701434  1
  La  La37  1  0.83284612  0.98953643  0.87382729  1
  La  La38  1  0.66231352  0.81488106  0.37294740  1
  La  La39  1  0.16850721  0.67086428  0.62822589  1
  La  La40  1  0.17280713  0.31374375  0.37353222  1
  La  La41  1  0.83432533  0.31795568  0.37714053  1
  La  La42  1  0.66796355  0.83850815  0.62775032  1
  La  La43  1  0.66310297  0.15220409  0.37099822  1
  La  La44  1  -0.00197378  0.48664338  0.37498877  1
  La  La45  1  0.33669732  0.84176211  0.62303685  1
  La  La46  1  0.49770550  0.67677640  0.12824701  1
  La  La47  1  0.50146297  0.31943491  0.37202778  1
  La  La48  1  0.17374549  0.65215438  0.37473196  1
  La  La49  1  1.00136408  0.84696035  0.12292045  1
  La  La50  1  0.66444056  0.50308858  0.63284781  1
  La  La51  1  0.33911522  0.51378728  0.12658029  1
  La  La52  1  0.16389440  0.01293239  0.12104366  1
  La  La53  1  0.82877288  0.67589581  0.62665558  1
  La  La54  1  0.49673145  0.34547270  0.62683183  1
  La  La55  1  0.16269789  0.35165884  0.13035892  1
  La  La56  1  0.00504364  0.16740156  0.86066386  1
  La  La57  1  0.17463348  0.32158409  0.87777728  1
  La  La58  1  0.67200857  0.18279703  0.12303009  1
  La  La59  1  0.33144729  0.15508776  0.87932601  1
  La  La60  1  0.67026234  0.84322907  0.12078244  1
  La  La61  1  0.16889523  0.98654291  0.87644562  1
  La  La62  1  0.50489029  0.98006257  0.37105499  1
  La  La63  1  0.34699125  0.18329422  0.61882272  1
  La  La64  1  0.16022725  0.68447583  0.12991409  1
  La  La65  1  0.83271870  0.01115694  0.12046550  1
  La  La66  1  0.16832888  0.98912515  0.36894916  1
  La  La67  1  0.83603892  0.65177909  0.37148218  1
  La  La68  1  0.49671949  0.01995238  0.12318749  1
  La  La69  1  0.32899436  0.14937577  0.37209074  1
  La  La70  1  0.82679472  0.01695894  0.62453448  1
  La  La71  1  -0.00358115  0.82008055  0.37592365  1
  In  In72  1  0.17192388  0.16283445  0.74800302  1
  In  In73  1  0.33188119  0.66849666  0.00236315  1
  In  In74  1  0.66639852  0.33456060  0.25391366  1
  In  In75  1  0.49824032  0.49926199  0.25216813  1
  In  In76  1  0.00198435  0.66999788  0.74824554  1
  In  In77  1  0.66669175  0.66811928  0.75023551  1
  In  In78  1  0.16700199  0.49814854  0.49697105  1
  In  In79  1  0.83352103  0.16395107  0.25033594  1
  In  In80  1  0.33177761  0.00131823  0.74815346  1
  In  In81  1  0.33328954  0.33214838  0.75191284  1
  In  In82  1  0.33374446  0.00135432  0.00273167  1
  In  In83  1  0.00219123  0.33326832  0.49573246  1
  In  In84  1  0.83515716  0.16513722  -0.00399768  1
  In  In85  1  0.49710515  0.50282991  0.75320499  1
  In  In86  1  0.83403106  0.83321803  0.24934133  1
  In  In87  1  0.16319938  0.83122054  0.49917421  1
  In  In88  1  0.33542951  -0.00460206  0.24796257  1
  In  In89  1  -0.00128454  0.00359708  -0.00358788  1
  In  In90  1  0.16865777  0.50156908  0.75229578  1
  In  In91  1  0.66776184  -0.00477016  0.49665154  1
  In  In92  1  0.33387435  0.66659107  0.49937948  1
  In  In93  1  0.66553928  -0.00183309  0.75158936  1
  In  In94  1  0.49774170  0.16622693  0.74977715  1
  In  In95  1  0.50085294  0.83544925  0.00355970  1
  In  In96  1  0.83245019  0.49945374  -0.00107750  1
  In  In97  1  0.00142080  0.33296371  0.25063081  1
  In  In98  1  0.17328043  0.16246157  0.50159180  1
  In  In99  1  0.00378681  0.33020859  -0.00008414  1
  In  In100  1  0.66583159  -0.00158903  0.24634819  1
  In  In101  1  0.66798834  0.66634519  0.49934144  1
  In  In102  1  0.00360266  0.66829636  0.00199057  1
  In  In103  1  0.00227808  0.33424929  0.75044197  1
  In  In104  1  0.83238177  0.49819545  0.49885864  1
  In  In105  1  -0.00151692  -0.00182027  0.50152102  1
  In  In106  1  0.83404678  0.49971057  0.74851157  1
  In  In107  1  0.50052874  0.16308974  0.49406039  1
  Ir  Ir108  1  0.83253193  0.83650827  -0.00010935  1
  Ir  Ir109  1  0.66419648  0.66791665  0.00447816  1
  Ir  Ir110  1  0.33160128  0.67233327  0.75012897  1
  Ir  Ir111  1  0.33057468  0.33411225  0.25175795  1
  Ir  Ir112  1  0.50131942  0.49232786  0.50163530  1
  Ir  Ir113  1  0.66209301  0.33209165  -0.00033228  1
  Ir  Ir114  1  0.00407193  0.66954289  0.25535150  1
  Ir  Ir115  1  0.33767352  0.33123922  0.49370882  1
  Ir  Ir116  1  0.16605672  0.83255500  0.74654822  1
  Ir  Ir117  1  0.49992958  0.83362660  0.49575291  1
  Ir  Ir118  1  0.33551466  -0.00394887  0.49443972  1
  Ir  Ir119  1  0.83157115  0.16367067  0.75039339  1
  Ir  Ir120  1  0.00456889  -0.00377156  0.24853131  1
  Ir  Ir121  1  0.66364686  0.32994889  0.74841240  1
  Ir  Ir122  1  0.50465523  0.82869482  0.25161104  1
  Ir  Ir123  1  0.16934960  0.16863109  0.00408570  1
  Ir  Ir124  1  0.83665828  0.83870979  0.74585906  1
  Ir  Ir125  1  0.16472475  0.83661291  0.00261967  1
  Ir  Ir126  1  -0.00352084  -0.00079986  0.75025544  1
  Ir  Ir127  1  -0.00314727  0.67224089  0.49490559  1
  Ir  Ir128  1  0.83224630  0.50517743  0.25434063  1
  Ir  Ir129  1  0.17281458  0.49865806  0.00842907  1
  Ir  Ir130  1  0.82753337  0.16803539  0.50141477  1
  Ir  Ir131  1  0.49840068  0.83132401  0.74601445  1
  Ir  Ir132  1  0.49920546  0.16945921  0.00553966  1
  Ir  Ir133  1  0.49647923  0.16722490  0.25165091  1
  Ir  Ir134  1  0.16821137  0.50403030  0.24925501  1
  Ir  Ir135  1  0.83351624  0.83236769  0.49881998  1
  Ir  Ir136  1  0.66416075  -0.00032561  0.00541500  1
  Ir  Ir137  1  0.17173685  0.16388573  0.24785362  1
  Ir  Ir138  1  0.33099593  0.33343504  0.00593550  1
  Ir  Ir139  1  0.66678484  0.66887525  0.24800377  1
  Ir  Ir140  1  0.32860117  0.66810652  0.24856293  1
  Ir  Ir141  1  0.66560341  0.33188630  0.50046216  1
  Ir  Ir142  1  0.50076969  0.50229620  0.00593688  1
  Ir  Ir143  1  0.16063489  0.83484747  0.24830310  1
  O  O144  1  0.29912342  0.33386032  0.13007231  1
  O  O145  1  0.31185051  0.32099685  0.61322289  1
  O  O146  1  0.29829276  0.66109878  0.13082242  1
  O  O147  1  0.30654438  0.67336367  0.62870346  1
  O  O148  1  0.29977774  0.99808926  0.12623352  1
  O  O149  1  0.31772681  0.98264394  0.61594928  1
  O  O150  1  0.64847764  0.32489803  0.12149371  1
  O  O151  1  0.63373456  0.32966079  0.62329298  1
  O  O152  1  0.63469107  0.66696710  0.12757992  1
  O  O153  1  0.65256082  0.68405035  0.62262710  1
  O  O154  1  0.62903722  0.98587236  0.12329674  1
  O  O155  1  0.65034122  0.98251211  0.62185849  1
  O  O156  1  0.98551719  0.32915942  0.12699296  1
  O  O157  1  0.98796994  0.32855893  0.62122536  1
  O  O158  1  0.98725075  0.67121883  0.13575235  1
  O  O159  1  0.96387092  0.66988786  0.61173381  1
  O  O160  1  0.97256313  0.98888038  0.12779366  1
  O  O161  1  0.96189535  0.98712763  0.63115520  1
  O  O162  1  0.19228739  0.14861007  0.12512966  1
  O  O163  1  0.21245229  0.16093084  0.62366311  1
  O  O164  1  0.20395215  0.48896828  0.13017887  1
  O  O165  1  0.18602076  0.50511209  0.62226548  1
  O  O166  1  0.18629238  0.82309652  0.12594151  1
  O  O167  1  0.19882701  0.81920673  0.62766068  1
  O  O168  1  0.53278074  0.15926541  0.12985777  1
  O  O169  1  0.51374697  0.16041104  0.61921117  1
  O  O170  1  0.51805921  0.50250890  0.12524702  1
  O  O171  1  0.52496671  0.48371025  0.62044878  1
  O  O172  1  0.53538419  0.81880799  0.13404663  1
  O  O173  1  0.52939975  0.83294666  0.61938714  1
  O  O174  1  0.85325290  0.15260509  0.12346383  1
  O  O175  1  0.85236862  0.15949953  0.62570121  1
  O  O176  1  0.84597304  0.50140662  0.13514347  1
  O  O177  1  0.85404024  0.49448615  0.62077743  1
  O  O178  1  0.86404500  0.83169046  0.12049327  1
  O  O179  1  0.86430986  0.82105955  0.62116981  1
  O  O180  1  0.15478743  0.17111307  0.36758091  1
  O  O181  1  0.14087310  0.17928931  0.88616987  1
  O  O182  1  0.13518472  0.51735665  0.36682395  1
  O  O183  1  0.15215435  0.50365165  0.88959694  1
  O  O184  1  0.13231497  0.84919078  0.36847282  1
  O  O185  1  0.14393631  0.84970240  0.87529659  1
  O  O186  1  0.46346222  0.17861269  0.36969636  1
  O  O187  1  0.46856576  0.17031660  0.88412830  1
  O  O188  1  0.48467525  0.49693911  0.38153583  1
  O  O189  1  0.48407003  0.50340929  0.88514113  1
  O  O190  1  0.47555450  0.84148363  0.37338593  1
  O  O191  1  0.48143154  0.83246571  0.86862361  1
  O  O192  1  0.79898386  0.17025201  0.38085703  1
  O  O193  1  0.81030331  0.15709308  0.86869023  1
  O  O194  1  0.80993417  0.51624054  0.37196599  1
  O  O195  1  0.81029748  0.50691552  0.87418347  1
  O  O196  1  0.80057543  0.83892684  0.37878784  1
  O  O197  1  0.81055318  0.85168488  0.87133713  1
  O  O198  1  0.03212880  -0.00153524  0.36917714  1
  O  O199  1  0.03059375  0.01315441  0.87042252  1
  O  O200  1  0.03768254  0.34318323  0.36984780  1
  O  O201  1  0.03804167  0.32083934  0.87784687  1
  O  O202  1  0.03533694  0.68201238  0.37526098  1
  O  O203  1  0.02203556  0.67412408  0.87657338  1
  O  O204  1  0.36707326  0.00552171  0.37453473  1
  O  O205  1  0.35337764  0.01056415  0.87693618  1
  O  O206  1  0.36673227  0.33644060  0.37239214  1
  O  O207  1  0.35189558  0.33455396  0.88741696  1
  O  O208  1  0.35000329  0.66969475  0.36794013  1
  O  O209  1  0.34901183  0.67208873  0.87218687  1
  O  O210  1  0.68966777  0.01150919  0.37137199  1
  O  O211  1  0.69537317  0.00179307  0.88396127  1
  O  O212  1  0.69726343  0.33726214  0.38275394  1
  O  O213  1  0.68240306  0.33152774  0.87196929  1
  O  O214  1  0.69550290  0.67661314  0.36999579  1
  O  O215  1  0.68308672  0.66963313  0.88192404  1
  O  O216  1  0.08167060  0.09325169  0.02142111  1
  O  O217  1  0.07891039  0.08688641  0.51348379  1
  O  O218  1  0.08564392  0.42868192  0.02615114  1
  O  O219  1  0.06374107  0.44048020  0.50034180  1
  O  O220  1  0.07459609  0.76653511  0.02942798  1
  O  O221  1  0.05367283  0.76899069  0.51619478  1
  O  O222  1  0.41230197  0.09725588  0.02457363  1
  O  O223  1  0.39417684  0.09475033  0.51236333  1
  O  O224  1  0.40035026  0.43355059  0.02871016  1
  O  O225  1  0.40750155  0.42155081  0.52209581  1
  O  O226  1  0.41546619  0.75234366  0.02693566  1
  O  O227  1  0.40447968  0.76790999  0.52015721  1
  O  O228  1  0.73040352  0.08985674  0.03164539  1
  O  O229  1  0.74147099  0.09408463  0.51853109  1
  O  O230  1  0.73611830  0.41708897  0.01352730  1
  O  O231  1  0.72540805  0.42889892  0.52425230  1
  O  O232  1  0.73328637  0.76479239  0.02474180  1
  O  O233  1  0.73735754  0.77432773  0.51775207  1
  O  O234  1  0.11153295  0.26313500  0.03001407  1
  O  O235  1  0.10326020  0.26078871  0.50138985  1
  O  O236  1  0.10910168  0.59428381  0.03089355  1
  O  O237  1  0.09394357  0.61533837  0.51759200  1
  O  O238  1  0.09283363  0.92719278  0.02402311  1
  O  O239  1  0.08587399  0.91823262  0.52882822  1
  O  O240  1  0.42800544  0.26243377  0.02179750  1
  O  O241  1  0.43215147  0.26730568  0.51665692  1
  O  O242  1  0.42993125  0.59208998  0.03052048  1
  O  O243  1  0.42943666  0.58437377  0.51619723  1
  O  O244  1  0.43248436  0.93213874  0.02949878  1
  O  O245  1  0.43002318  0.92693469  0.51289057  1
  O  O246  1  0.74928905  0.25460899  0.01688809  1
  O  O247  1  0.76267965  0.26778761  0.51325285  1
  O  O248  1  0.75046292  0.59618070  0.01722370  1
  O  O249  1  0.77402921  0.60746233  0.51230133  1
  O  O250  1  0.75981998  0.93206018  0.02840901  1
  O  O251  1  0.77282556  0.92663251  0.52677249  1
  O  O252  1  0.23979361  0.07136296  0.27591968  1
  O  O253  1  0.23050078  0.06445583  0.78148252  1
  O  O254  1  0.23156073  0.40004210  0.27248811  1
  O  O255  1  0.23661733  0.40045526  0.77364920  1
  O  O256  1  0.22788498  0.73632813  0.27024693  1
  O  O257  1  0.23670420  0.74232173  0.76880179  1
  O  O258  1  0.56065055  0.07045700  0.27227921  1
  O  O259  1  0.57433268  0.07426195  0.76677030  1
  O  O260  1  0.56668491  0.39948872  0.27286384  1
  O  O261  1  0.57505155  0.40030692  0.75655861  1
  O  O262  1  0.57407204  0.73688416  0.27451031  1
  O  O263  1  0.56992058  0.74469703  0.76157978  1
  O  O264  1  0.91405701  0.06720876  0.26495564  1
  O  O265  1  0.90555291  0.07169801  0.77821524  1
  O  O266  1  0.90364765  0.41585879  0.27810308  1
  O  O267  1  0.90716049  0.40484259  0.77119116  1
  O  O268  1  0.90945584  0.73708264  0.28087225  1
  O  O269  1  0.90763120  0.75202604  0.75971575  1
  O  O270  1  0.26518148  0.23634868  0.27720951  1
  O  O271  1  0.26618016  0.23432013  0.78457542  1
  O  O272  1  0.25790123  0.57728551  0.27323870  1
  O  O273  1  0.26440288  0.58156964  0.76602290  1
  O  O274  1  0.24938211  0.90769460  0.27131174  1
  O  O275  1  0.25078111  0.90793533  0.76376911  1
  O  O276  1  0.58973545  0.23237324  0.27785593  1
  O  O277  1  0.59352907  0.24268370  0.76428727  1
  O  O278  1  0.59497798  0.57925289  0.26482127  1
  O  O279  1  0.59497401  0.56985561  0.74893353  1
  O  O280  1  0.59580963  0.89760561  0.27746579  1
  O  O281  1  0.59152666  0.89885563  0.75883142  1
  O  O282  1  0.91779050  0.24713953  0.27886185  1
  O  O283  1  0.92252512  0.23209806  0.76962417  1
  O  O284  1  0.93280570  0.57569272  0.28012948  1
  O  O285  1  0.92264757  0.58318217  0.76077177  1
  O  O286  1  0.93906615  0.90094695  0.26989168  1
  O  O287  1  0.92140128  0.91536349  0.77566145  1
  O  O288  1  0.27535495  0.23625522  0.46877925  1
  O  O289  1  0.26436847  0.23670348  0.97763752  1
  O  O290  1  0.25452549  0.57779128  0.47696272  1
  O  O291  1  0.26589091  0.56460045  0.99761379  1
  O  O292  1  0.26095940  0.90933672  0.47849448  1
  O  O293  1  0.24900073  0.91248970  0.98055923  1
  O  O294  1  0.60124625  0.23767229  0.46833545  1
  O  O295  1  0.59114150  0.23850817  0.99141536  1
  O  O296  1  0.59419075  0.56437056  0.49859334  1
  O  O297  1  0.59316120  0.57400528  0.98496547  1
  O  O298  1  0.59367037  0.89904503  0.46840106  1
  O  O299  1  0.60009528  0.90651177  0.98809353  1
  O  O300  1  0.91557183  0.23953855  0.47594794  1
  O  O301  1  0.93851117  0.22495929  0.97321644  1
  O  O302  1  0.93667465  0.57781150  0.46590436  1
  O  O303  1  0.92366253  0.58075325  0.99607611  1
  O  O304  1  0.92888668  0.89499660  0.47611133  1
  O  O305  1  0.92210409  0.90589710  0.98335531  1
  O  O306  1  0.24454284  0.06362206  0.46461108  1
  O  O307  1  0.23502993  0.07715351  0.97475424  1
  O  O308  1  0.24045089  0.39473870  0.47161284  1
  O  O309  1  0.23338829  0.39640570  0.98701871  1
  O  O310  1  0.23059433  0.73529256  0.47713601  1
  O  O311  1  0.23692080  0.74759724  0.99054838  1
  O  O312  1  0.57048876  0.06862199  0.46403183  1
  O  O313  1  0.56664849  0.06880124  0.99203078  1
  O  O314  1  0.56542765  0.39155133  0.48157817  1
  O  O315  1  0.57246851  0.40833420  0.98490818  1
  O  O316  1  0.57310890  0.74590462  0.47470657  1
  O  O317  1  0.57624393  0.73835584  0.99332494  1
  O  O318  1  0.89910476  0.07498050  0.49256916  1
  O  O319  1  0.89094649  0.05654631  0.98578377  1
  O  O320  1  0.90285858  0.40427087  0.46178352  1
  O  O321  1  0.91089283  0.40674763  0.98900822  1
  O  O322  1  0.89821567  0.73623325  0.46741785  1
  O  O323  1  0.90429391  0.75007130  0.98407581  1
  O  O324  1  0.10738915  0.25940920  0.23058650  1
  O  O325  1  0.09097206  0.24808187  0.73822170  1
  O  O326  1  0.10436421  0.60434487  0.23089203  1
  O  O327  1  0.10147001  0.60313857  0.72766862  1
  O  O328  1  0.09693428  0.92916396  0.21791804  1
  O  O329  1  0.08317708  0.91971837  0.72268003  1
  O  O330  1  0.43005589  0.26756354  0.23653590  1
  O  O331  1  0.42809076  0.26269185  0.71958196  1
  O  O332  1  0.41970928  0.59656970  0.22501889  1
  O  O333  1  0.42124244  0.60233653  0.73517736  1
  O  O334  1  0.43994961  0.92587419  0.23008401  1
  O  O335  1  0.42292460  0.91694431  0.73006475  1
  O  O336  1  0.75271929  0.25515133  0.23373732  1
  O  O337  1  0.76002616  0.25503917  0.73243243  1
  O  O338  1  0.76493710  0.60466017  0.23749184  1
  O  O339  1  0.75527651  0.59196675  0.71349544  1
  O  O340  1  0.76292888  0.92795807  0.21585673  1
  O  O341  1  0.76622393  0.92707427  0.72494500  1
  O  O342  1  0.08292911  0.08499378  0.22318872  1
  O  O343  1  0.06791224  0.08551946  0.73087282  1
  O  O344  1  0.08148205  0.43253475  0.23030215  1
  O  O345  1  0.07496241  0.42968964  0.74058924  1
  O  O346  1  0.06549675  0.76866395  0.22709344  1
  O  O347  1  0.07859730  0.76285214  0.71434761  1
  O  O348  1  0.40958315  0.09421608  0.23003135  1
  O  O349  1  0.39199057  0.10399526  0.73030978  1
  O  O350  1  0.39380730  0.43008145  0.22965521  1
  O  O351  1  0.41121288  0.42321144  0.73355317  1
  O  O352  1  0.41164989  0.75377766  0.22365694  1
  O  O353  1  0.39961804  0.76664961  0.72430311  1
  O  O354  1  0.73133016  0.09741979  0.22459258  1
  O  O355  1  0.74834355  0.08741618  0.72703803  1
  O  O356  1  0.74437902  0.43205759  0.24061830  1
  O  O357  1  0.72982637  0.42213290  0.72697904  1
  O  O358  1  0.72985272  0.76588653  0.22950156  1
  O  O359  1  0.74760802  0.76641758  0.72427969  1
