# generated using pymatgen
data_BaLaInIrO6
_symmetry_space_group_name_H-M   'P 1'
_cell_length_a   17.52026926
_cell_length_b   17.54607200
_cell_length_c   16.47865652
_cell_angle_alpha   90.05419911
_cell_angle_beta   89.98899943
_cell_angle_gamma   90.05784110
_symmetry_Int_Tables_number   1
_chemical_formula_structural   BaLaInIrO6
_chemical_formula_sum   'Ba36 La36 In36 Ir36 O216'
_cell_volume   5065.73026895
_cell_formula_units_Z   36
loop_
 _symmetry_equiv_pos_site_id
 _symmetry_equiv_pos_as_xyz
  1  'x, y, z'
loop_
 _atom_site_type_symbol
 _atom_site_label
 _atom_site_symmetry_multiplicity
 _atom_site_fract_x
 _atom_site_fract_y
 _atom_site_fract_z
 _atom_site_occupancy
  Ba  Ba0  1  0.33249316  0.82492289  0.87513161  1
  Ba  Ba1  1  0.49836295  0.67276039  0.62259368  1
  Ba  Ba2  1  -0.00277501  0.49438362  0.87608318  1
  Ba  Ba3  1  0.49913700  0.32542162  0.37220555  1
  Ba  Ba4  1  0.33778337  0.83968496  0.12750383  1
  Ba  Ba5  1  0.83357105  0.00952644  0.62341096  1
  Ba  Ba6  1  0.83606238  0.67600077  0.12386283  1
  Ba  Ba7  1  0.16892443  0.98562620  0.37423084  1
  Ba  Ba8  1  0.00007243  0.82520601  0.87508248  1
  Ba  Ba9  1  0.16498871  0.65354571  0.38106575  1
  Ba  Ba10  1  0.66425315  0.15704252  0.87549263  1
  Ba  Ba11  1  0.83345043  0.32290124  0.87616086  1
  Ba  Ba12  1  -0.00293563  0.49492611  0.37664497  1
  Ba  Ba13  1  0.49876510  0.00646341  0.12371555  1
  Ba  Ba14  1  0.49595826  0.34405359  0.62362262  1
  Ba  Ba15  1  0.66890017  0.84238226  0.12406336  1
  Ba  Ba16  1  0.16716817  0.32488108  0.87729637  1
  Ba  Ba17  1  0.82988315  0.32639649  0.37399935  1
  Ba  Ba18  1  0.16299018  0.34034478  0.62809826  1
  Ba  Ba19  1  0.33491054  0.49190559  0.87939445  1
  Ba  Ba20  1  0.83786728  0.65989305  0.37384564  1
  Ba  Ba21  1  0.49577075  0.67156786  0.12535756  1
  Ba  Ba22  1  0.16553219  0.34430943  0.12737724  1
  Ba  Ba23  1  0.00074667  0.82079675  0.37559630  1
  Ba  Ba24  1  0.83622390  0.65646163  0.87578845  1
  Ba  Ba25  1  0.33235648  0.50901821  0.12644031  1
  Ba  Ba26  1  0.33161996  0.18041940  0.62241666  1
  Ba  Ba27  1  0.17144426  0.67203227  0.62579262  1
  Ba  Ba28  1  0.84017504  0.99475496  0.37520342  1
  Ba  Ba29  1  0.99926298  0.17554414  0.62395364  1
  Ba  Ba30  1  -0.00293205  0.15963700  0.87271083  1
  Ba  Ba31  1  0.66363388  0.15876328  0.37589555  1
  Ba  Ba32  1  0.83262519  0.34010308  0.62826072  1
  Ba  Ba33  1  0.67116065  0.84129384  0.62412693  1
  Ba  Ba34  1  0.33468328  0.48950978  0.37138448  1
  Ba  Ba35  1  0.33240613  0.16164037  0.87416790  1
  La  La36  1  0.83120070  0.35432261  0.12540274  1
  La  La37  1  0.33163189  0.15883700  0.37020479  1
  La  La38  1  0.66980939  0.51597123  0.62632605  1
  La  La39  1  1.00252789  0.84399858  0.62195348  1
  La  La40  1  0.16353770  0.01449186  0.12105220  1
  La  La41  1  0.83951342  0.98604534  0.87245710  1
  La  La42  1  0.66005788  0.48556893  0.87220074  1
  La  La43  1  1.00028211  0.50453196  0.62506139  1
  La  La44  1  0.15974316  0.01164779  0.62674252  1
  La  La45  1  0.67411836  0.18428735  0.62467668  1
  La  La46  1  -0.00608967  0.15526668  0.37658432  1
  La  La47  1  0.66721801  0.82242610  0.37282992  1
  La  La48  1  1.00599486  0.85116518  0.13017213  1
  La  La49  1  0.83448750  0.00913030  0.12201915  1
  La  La50  1  0.50373224  0.98714532  0.37165797  1
  La  La51  1  1.00544336  0.51785582  0.12998107  1
  La  La52  1  0.66656782  0.51480875  0.12013700  1
  La  La53  1  0.67127423  0.18521746  0.12907770  1
  La  La54  1  0.16944131  0.98724956  0.87327992  1
  La  La55  1  0.50634017  0.31708328  0.87461016  1
  La  La56  1  1.00038615  0.17920820  0.12790990  1
  La  La57  1  0.32649164  0.81076306  0.37562489  1
  La  La58  1  0.49509372  0.01602108  0.62625594  1
  La  La59  1  0.49686508  0.65310554  0.87430079  1
  La  La60  1  0.66308310  0.81542418  0.87400931  1
  La  La61  1  0.65983281  0.49550689  0.36984311  1
  La  La62  1  0.83212668  0.67801750  0.62532818  1
  La  La63  1  0.33229107  0.50044623  0.62669008  1
  La  La64  1  0.34072977  0.84916074  0.62225087  1
  La  La65  1  0.50070357  0.65127790  0.37062938  1
  La  La66  1  0.50267066  0.98097948  0.87689665  1
  La  La67  1  0.15897607  0.67870739  0.12943779  1
  La  La68  1  0.33502658  0.18445259  0.12290696  1
  La  La69  1  0.49539061  0.34762206  0.12455825  1
  La  La70  1  0.17500513  0.65009100  0.87303649  1
  La  La71  1  0.17315645  0.32100512  0.37363794  1
  In  In72  1  0.82954233  0.49942619  0.49936923  1
  In  In73  1  0.00271916  0.66841048  0.74876237  1
  In  In74  1  0.17031231  0.82884372  0.50228266  1
  In  In75  1  0.83348052  0.83395314  -0.00113389  1
  In  In76  1  0.66344957  0.00004754  0.49940791  1
  In  In77  1  0.33280536  0.00133253  0.24871702  1
  In  In78  1  0.33422146  0.00039971  0.49871817  1
  In  In79  1  -0.00161260  0.33466423  0.75184292  1
  In  In80  1  0.50008436  0.16645925  0.24714998  1
  In  In81  1  0.50284449  0.16280400  0.00193184  1
  In  In82  1  0.66500097  -0.00030368  0.75073830  1
  In  In83  1  0.00024412  0.33556662  0.25243354  1
  In  In84  1  0.50198257  0.82998521  0.00064894  1
  In  In85  1  0.00192966  0.67040129  -0.00055535  1
  In  In86  1  0.83476123  0.83613942  0.50000356  1
  In  In87  1  0.33540151  0.33605042  0.75360526  1
  In  In88  1  0.49987020  0.83104327  0.49759015  1
  In  In89  1  0.33128428  0.33641679  0.49868346  1
  In  In90  1  0.66846518  0.33374068  0.00060199  1
  In  In91  1  0.66752020  0.66513812  0.49878812  1
  In  In92  1  0.50199792  0.83024791  0.74665853  1
  In  In93  1  0.16546941  0.83363881  -0.00067267  1
  In  In94  1  0.83114519  0.16838472  0.49887407  1
  In  In95  1  0.49855041  0.16725620  0.49945718  1
  In  In96  1  -0.00341631  0.33502354  0.00429872  1
  In  In97  1  0.00088486  0.33487492  0.49686281  1
  In  In98  1  0.83548111  0.83759340  0.24803874  1
  In  In99  1  0.32994631  0.66608910  0.00174888  1
  In  In100  1  0.16579538  0.16546488  0.75278078  1
  In  In101  1  0.49841236  0.83201382  0.25287073  1
  In  In102  1  0.16565846  0.49947196  0.00289851  1
  In  In103  1  0.83294966  0.16816746  0.24820055  1
  In  In104  1  0.83130751  0.16358907  0.75238107  1
  In  In105  1  0.33352337  0.00255943  0.74865752  1
  In  In106  1  0.66731850  0.66689765  0.24723476  1
  In  In107  1  0.33299790  0.00276982  0.00028714  1
  Ir  Ir108  1  0.50313154  0.16822853  0.75112965  1
  Ir  Ir109  1  0.33735730  0.33370697  0.00428505  1
  Ir  Ir110  1  0.50254299  0.50457369  0.74996377  1
  Ir  Ir111  1  0.00604484  -0.00089760  0.50064747  1
  Ir  Ir112  1  0.83393398  0.83213098  0.75055613  1
  Ir  Ir113  1  0.66618550  0.66119208  -0.00632156  1
  Ir  Ir114  1  0.50201726  0.50191267  0.50051064  1
  Ir  Ir115  1  0.16781150  0.50334085  0.74625332  1
  Ir  Ir116  1  0.00206409  -0.00654919  0.75091468  1
  Ir  Ir117  1  0.66137399  0.33923137  0.74750069  1
  Ir  Ir118  1  0.66487328  0.34015266  0.24822711  1
  Ir  Ir119  1  0.66084384  0.34063552  0.50034502  1
  Ir  Ir120  1  0.00043953  0.66543819  0.25310362  1
  Ir  Ir121  1  0.16594382  0.50169128  0.25420946  1
  Ir  Ir122  1  0.82952909  0.50172896  0.75217334  1
  Ir  Ir123  1  0.00002495  0.00448912  0.00004089  1
  Ir  Ir124  1  0.16525933  0.16586693  0.00653117  1
  Ir  Ir125  1  0.32827303  0.66238256  0.25379616  1
  Ir  Ir126  1  0.16489561  0.16395367  0.49236228  1
  Ir  Ir127  1  0.33349439  0.66551517  0.74636198  1
  Ir  Ir128  1  0.16545058  0.16598639  0.24881226  1
  Ir  Ir129  1  0.00590463  0.00122695  0.24770200  1
  Ir  Ir130  1  0.16696167  0.50094763  0.50056790  1
  Ir  Ir131  1  0.16907553  0.82899360  0.25117114  1
  Ir  Ir132  1  0.67223640  0.00097120  0.00041043  1
  Ir  Ir133  1  -0.00119361  0.66341259  0.50329450  1
  Ir  Ir134  1  0.33597934  0.65962513  0.50157992  1
  Ir  Ir135  1  0.49936472  0.49746091  0.24845295  1
  Ir  Ir136  1  0.82981946  0.50092453  0.24420671  1
  Ir  Ir137  1  0.50155369  0.49733921  -0.00251135  1
  Ir  Ir138  1  0.33157317  0.33358166  0.24675421  1
  Ir  Ir139  1  0.66944313  0.66275652  0.75380805  1
  Ir  Ir140  1  0.82909928  0.50154676  0.00144127  1
  Ir  Ir141  1  0.16949823  0.83181340  0.74696329  1
  Ir  Ir142  1  0.66852100  0.00142723  0.24540135  1
  Ir  Ir143  1  0.83363173  0.16163315  0.00430071  1
  O  O144  1  0.31108611  0.32761257  0.12561144  1
  O  O145  1  0.31693139  0.34762289  0.62599652  1
  O  O146  1  0.29805550  0.66401463  0.13379064  1
  O  O147  1  0.32015948  0.64004631  0.62347420  1
  O  O148  1  0.29626356  0.99248878  0.12573492  1
  O  O149  1  0.29443414  0.98889777  0.62407687  1
  O  O150  1  0.63635682  0.33047201  0.12865757  1
  O  O151  1  0.64265607  0.32407341  0.62371876  1
  O  O152  1  0.64415153  0.65420738  0.11504149  1
  O  O153  1  0.64729729  0.65645017  0.63399595  1
  O  O154  1  0.64649138  0.99690661  0.12236322  1
  O  O155  1  0.62841889  0.99107705  0.62613231  1
  O  O156  1  0.96569003  0.31950014  0.12853530  1
  O  O157  1  0.98529318  0.34606276  0.62407023  1
  O  O158  1  0.98643568  0.65670761  0.13350079  1
  O  O159  1  0.97159629  0.65491550  0.62269973  1
  O  O160  1  0.97292609  0.99220142  0.12393334  1
  O  O161  1  0.98246632  0.98080747  0.62591722  1
  O  O162  1  0.19871758  0.15490311  0.12867376  1
  O  O163  1  0.18401057  0.15159924  0.61386452  1
  O  O164  1  0.18376440  0.50430442  0.13607823  1
  O  O165  1  0.19710422  0.49874916  0.62256864  1
  O  O166  1  0.18819314  0.82168281  0.13212051  1
  O  O167  1  0.20285435  0.82819356  0.62960262  1
  O  O168  1  0.53930568  0.16323024  0.12560533  1
  O  O169  1  0.53718561  0.15979724  0.63252520  1
  O  O170  1  0.52991531  0.48681178  0.12253189  1
  O  O171  1  0.53135269  0.50093394  0.62491280  1
  O  O172  1  0.52028529  0.82565732  0.12667906  1
  O  O173  1  0.52463467  0.82191530  0.62308285  1
  O  O174  1  0.86278705  0.14962920  0.12280709  1
  O  O175  1  0.84530258  0.17223350  0.62477379  1
  O  O176  1  0.86353933  0.49409396  0.12290529  1
  O  O177  1  0.85877695  0.49670464  0.63401933  1
  O  O178  1  0.86704176  0.84171344  0.12316996  1
  O  O179  1  0.86439847  0.82254905  0.63069052  1
  O  O180  1  0.13198240  0.17739610  0.36930063  1
  O  O181  1  0.14564064  0.16954045  0.88756260  1
  O  O182  1  0.14465470  0.49901013  0.37804942  1
  O  O183  1  0.14746992  0.51067795  0.86791850  1
  O  O184  1  0.14997127  0.82705775  0.37145300  1
  O  O185  1  0.14545253  0.84287992  0.86557972  1
  O  O186  1  0.46792356  0.17206421  0.37074573  1
  O  O187  1  0.48218850  0.17945901  0.87272286  1
  O  O188  1  0.48229163  0.51235892  0.37443064  1
  O  O189  1  0.48234620  0.51531435  0.87344802  1
  O  O190  1  0.45833320  0.84738904  0.37637873  1
  O  O191  1  0.48387654  0.83875820  0.87275281  1
  O  O192  1  0.81493575  0.16072616  0.37220308  1
  O  O193  1  0.81323078  0.16453608  0.88558079  1
  O  O194  1  0.79849151  0.50393378  0.36495524  1
  O  O195  1  0.79641820  0.50272384  0.87786157  1
  O  O196  1  0.80721595  0.83646933  0.37306389  1
  O  O197  1  0.80204690  0.84396070  0.87108230  1
  O  O198  1  0.02560785  0.01804646  0.37406252  1
  O  O199  1  0.03296263  0.00378070  0.87653376  1
  O  O200  1  0.03877113  0.34133167  0.37320796  1
  O  O201  1  0.01489984  0.33915539  0.87980836  1
  O  O202  1  0.01680118  0.66533361  0.37872329  1
  O  O203  1  0.03692549  0.66699621  0.87294362  1
  O  O204  1  0.36656200  0.02145383  0.37428999  1
  O  O205  1  0.36711920  0.00772902  0.87259330  1
  O  O206  1  0.34653063  0.33155996  0.36662438  1
  O  O207  1  0.36791298  0.33550445  0.88371157  1
  O  O208  1  0.36169515  0.67095786  0.37837374  1
  O  O209  1  0.35789920  0.66994355  0.86618852  1
  O  O210  1  0.69116243  0.00551782  0.36130862  1
  O  O211  1  0.70393432  0.00586152  0.88323449  1
  O  O212  1  0.68370964  0.35775042  0.37580401  1
  O  O213  1  0.68196058  0.34788711  0.86928027  1
  O  O214  1  0.68819527  0.64929000  0.37244359  1
  O  O215  1  0.69104545  0.67108245  0.87326376  1
  O  O216  1  0.07069666  0.09751019  0.03249510  1
  O  O217  1  0.07850738  0.08805359  0.51931691  1
  O  O218  1  0.06565579  0.43420170  0.02816048  1
  O  O219  1  0.07438745  0.43802373  0.52319202  1
  O  O220  1  0.06686187  0.77061416  0.03162885  1
  O  O221  1  0.06829780  0.75779428  0.52487877  1
  O  O222  1  0.39896765  0.10434396  0.02706347  1
  O  O223  1  0.41085864  0.08893352  0.53404212  1
  O  O224  1  0.41108523  0.42358560  0.02684793  1
  O  O225  1  0.40452976  0.44011372  0.51841533  1
  O  O226  1  0.40744272  0.75370412  0.01496921  1
  O  O227  1  0.39456556  0.75753140  0.51961898  1
  O  O228  1  0.73539762  0.09845951  0.02974995  1
  O  O229  1  0.72935533  0.10218650  0.52303004  1
  O  O230  1  0.73567615  0.43300676  0.02510722  1
  O  O231  1  0.72301140  0.43574189  0.52052801  1
  O  O232  1  0.73196966  0.75735318  0.00697284  1
  O  O233  1  0.74595505  0.75449048  0.51680333  1
  O  O234  1  0.09140187  0.25170519  0.02942474  1
  O  O235  1  0.09719486  0.25273078  0.51156788  1
  O  O236  1  0.09602079  0.59884700  0.02813162  1
  O  O237  1  0.08948914  0.58957293  0.52542560  1
  O  O238  1  0.09120412  0.93672909  0.02505446  1
  O  O239  1  0.09681025  0.92668502  0.52467175  1
  O  O240  1  0.43035957  0.26718149  0.02616145  1
  O  O241  1  0.42139266  0.25981779  0.51374168  1
  O  O242  1  0.43136432  0.58782224  0.00921306  1
  O  O243  1  0.43758538  0.59849026  0.50332379  1
  O  O244  1  0.43248670  0.93047733  0.00584215  1
  O  O245  1  0.42908489  0.92722564  0.53410327  1
  O  O246  1  0.76634154  0.25743791  0.03201572  1
  O  O247  1  0.75024534  0.27046929  0.51204385  1
  O  O248  1  0.75678240  0.59002570  0.02153428  1
  O  O249  1  0.76194841  0.59257669  0.53570334  1
  O  O250  1  0.76823610  0.93923106  0.02099235  1
  O  O251  1  0.76020896  0.92882490  0.51600143  1
  O  O252  1  0.23594663  0.08040589  0.27332644  1
  O  O253  1  0.23036470  0.06517673  0.77208353  1
  O  O254  1  0.23210871  0.40272722  0.27231991  1
  O  O255  1  0.23951080  0.41736629  0.76625500  1
  O  O256  1  0.23701154  0.73432963  0.27507837  1
  O  O257  1  0.23365607  0.73165254  0.77050496  1
  O  O258  1  0.57098159  0.06283899  0.27053374  1
  O  O259  1  0.56111023  0.07086011  0.77593192  1
  O  O260  1  0.57386005  0.41113105  0.27032741  1
  O  O261  1  0.56694168  0.40893886  0.77546480  1
  O  O262  1  0.57337426  0.73966214  0.28310154  1
  O  O263  1  0.57646114  0.72969444  0.77940946  1
  O  O264  1  0.91788938  0.07268064  0.26207964  1
  O  O265  1  0.90765733  0.06119115  0.77250884  1
  O  O266  1  0.89720647  0.40867861  0.25828796  1
  O  O267  1  0.89820269  0.41525923  0.77104655  1
  O  O268  1  0.91340837  0.73923087  0.26295842  1
  O  O269  1  0.90393616  0.74268703  0.76486853  1
  O  O270  1  0.25876604  0.23842386  0.27320846  1
  O  O271  1  0.25876879  0.24381116  0.76326808  1
  O  O272  1  0.25801936  0.57195921  0.27257336  1
  O  O273  1  0.26174858  0.57472603  0.76790700  1
  O  O274  1  0.26283446  0.89488718  0.27600261  1
  O  O275  1  0.25710305  0.90199999  0.76758640  1
  O  O276  1  0.59864753  0.24673527  0.26464987  1
  O  O277  1  0.59089092  0.24746497  0.77385293  1
  O  O278  1  0.58907309  0.56905804  0.26458157  1
  O  O279  1  0.60168579  0.56863536  0.77531806  1
  O  O280  1  0.60603266  0.90447748  0.27349240  1
  O  O281  1  0.59880220  0.90331456  0.78359880  1
  O  O282  1  0.93467338  0.23276305  0.27094078  1
  O  O283  1  0.91796875  0.24373665  0.76429338  1
  O  O284  1  0.92777626  0.56763836  0.26140022  1
  O  O285  1  0.92065315  0.57148278  0.76489158  1
  O  O286  1  0.93844134  0.91037471  0.26526775  1
  O  O287  1  0.92468301  0.90466473  0.77187966  1
  O  O288  1  0.25261450  0.23766430  0.46791173  1
  O  O289  1  0.26404567  0.23486661  0.99177244  1
  O  O290  1  0.26808502  0.56363187  0.48813821  1
  O  O291  1  0.25583994  0.57529600  0.97906964  1
  O  O292  1  0.27043124  0.89553110  0.47650243  1
  O  O293  1  0.25019764  0.91469882  0.97375973  1
  O  O294  1  0.59541001  0.24701087  0.48674550  1
  O  O295  1  0.59221163  0.24403737  0.98258393  1
  O  O296  1  0.59779073  0.56335370  0.48183501  1
  O  O297  1  0.59979263  0.56288983  0.97608548  1
  O  O298  1  0.59508590  0.90247303  0.45820006  1
  O  O299  1  0.60997590  0.90446109  0.97375174  1
  O  O300  1  0.93109520  0.23666017  0.47333987  1
  O  O301  1  0.92573608  0.22811340  0.99361419  1
  O  O302  1  0.92812175  0.57537288  0.48987036  1
  O  O303  1  0.92209725  0.56984309  0.99090997  1
  O  O304  1  0.93759412  0.90731189  0.48921267  1
  O  O305  1  0.92800883  0.91827090  0.97535785  1
  O  O306  1  0.24139383  0.08227052  0.47059167  1
  O  O307  1  0.22576469  0.07104319  0.98292506  1
  O  O308  1  0.22953707  0.40550630  0.47785235  1
  O  O309  1  0.24546773  0.40341829  0.98848460  1
  O  O310  1  0.24569249  0.72908304  0.48702543  1
  O  O311  1  0.22784176  0.73209675  0.97751147  1
  O  O312  1  0.56333912  0.06613443  0.47253601  1
  O  O313  1  0.57337561  0.06017305  0.97404169  1
  O  O314  1  0.56736405  0.40893771  0.48247021  1
  O  O315  1  0.56820953  0.40586646  0.97549541  1
  O  O316  1  0.57158916  0.73443132  0.46548557  1
  O  O317  1  0.57552437  0.72904679  0.96827141  1
  O  O318  1  0.91971081  0.07406684  0.48661472  1
  O  O319  1  0.89802467  0.06613305  0.97957612  1
  O  O320  1  0.90364083  0.40912731  0.48103695  1
  O  O321  1  0.89143899  0.40597158  0.99416949  1
  O  O322  1  0.91112172  0.73566451  0.49283904  1
  O  O323  1  0.90743314  0.74191859  0.98266826  1
  O  O324  1  0.09399251  0.25166667  0.22630728  1
  O  O325  1  0.08863564  0.25379334  0.73729011  1
  O  O326  1  0.09765153  0.59633913  0.23004959  1
  O  O327  1  0.09389073  0.58764682  0.72727774  1
  O  O328  1  0.10060529  0.92533300  0.22162995  1
  O  O329  1  0.10097260  0.92589495  0.72434105  1
  O  O330  1  0.42453512  0.26744128  0.21860709  1
  O  O331  1  0.43600314  0.26130014  0.74003207  1
  O  O332  1  0.42661457  0.59136345  0.23743766  1
  O  O333  1  0.43496921  0.60263728  0.74023918  1
  O  O334  1  0.43075770  0.93155370  0.23717882  1
  O  O335  1  0.42865132  0.92883230  0.72160935  1
  O  O336  1  0.75827657  0.27046797  0.22144697  1
  O  O337  1  0.74563612  0.26341479  0.73536849  1
  O  O338  1  0.75630241  0.58375946  0.21876917  1
  O  O339  1  0.76298603  0.59420263  0.72415060  1
  O  O340  1  0.76580915  0.94086804  0.22372739  1
  O  O341  1  0.76639468  0.92288777  0.73463940  1
  O  O342  1  0.07613065  0.09435029  0.21793403  1
  O  O343  1  0.07240319  0.07978351  0.72793558  1
  O  O344  1  0.07104658  0.43726468  0.22829834  1
  O  O345  1  0.07497361  0.43661335  0.72863141  1
  O  O346  1  0.07132306  0.75988041  0.22457872  1
  O  O347  1  0.07371831  0.76859260  0.72166176  1
  O  O348  1  0.39427408  0.10724903  0.22372172  1
  O  O349  1  0.41402697  0.09920428  0.72525794  1
  O  O350  1  0.40974287  0.42137242  0.22424191  1
  O  O351  1  0.40839346  0.43990188  0.73133665  1
  O  O352  1  0.39960653  0.75028591  0.24247010  1
  O  O353  1  0.39465113  0.76009578  0.72309172  1
  O  O354  1  0.73198352  0.09783285  0.21947628  1
  O  O355  1  0.73104743  0.09864800  0.72811074  1
  O  O356  1  0.73474201  0.43334216  0.21781769  1
  O  O357  1  0.72748108  0.43755037  0.73030129  1
  O  O358  1  0.74073712  0.76129944  0.23546537  1
  O  O359  1  0.74432088  0.75469221  0.72855971  1
