# generated using pymatgen
data_BaLaInIrO6
_symmetry_space_group_name_H-M   'P 1'
_cell_length_a   17.54095810
_cell_length_b   17.57305286
_cell_length_c   16.52126631
_cell_angle_alpha   90.02565763
_cell_angle_beta   89.99782781
_cell_angle_gamma   89.94860039
_symmetry_Int_Tables_number   1
_chemical_formula_structural   BaLaInIrO6
_chemical_formula_sum   'Ba36 La36 In36 Ir36 O216'
_cell_volume   5092.64776997
_cell_formula_units_Z   36
loop_
 _symmetry_equiv_pos_site_id
 _symmetry_equiv_pos_as_xyz
  1  'x, y, z'
loop_
 _atom_site_type_symbol
 _atom_site_label
 _atom_site_symmetry_multiplicity
 _atom_site_fract_x
 _atom_site_fract_y
 _atom_site_fract_z
 _atom_site_occupancy
  Ba  Ba0  1  0.16322002  0.67254415  0.12579917  1
  Ba  Ba1  1  0.66713942  0.48892576  0.87452768  1
  Ba  Ba2  1  0.16619121  0.65928640  0.37387578  1
  Ba  Ba3  1  0.16601433  0.66036349  0.87304976  1
  Ba  Ba4  1  0.33544439  0.49320141  0.37103951  1
  Ba  Ba5  1  0.50129331  0.65462308  0.37333814  1
  Ba  Ba6  1  0.83689150  0.00756278  0.12391627  1
  Ba  Ba7  1  0.83775620  0.99319743  0.87264276  1
  Ba  Ba8  1  0.17159180  0.98379620  0.37974932  1
  Ba  Ba9  1  0.33030496  0.82176531  0.37623787  1
  Ba  Ba10  1  1.00186980  0.51460113  0.62840667  1
  Ba  Ba11  1  -0.00099203  0.82452433  0.87247043  1
  Ba  Ba12  1  -0.00064026  0.15901679  0.87612348  1
  Ba  Ba13  1  1.00347061  0.51346345  0.12355155  1
  Ba  Ba14  1  0.99973394  0.83904166  0.62403720  1
  Ba  Ba15  1  0.33486374  0.17145542  0.12990641  1
  Ba  Ba16  1  0.66527217  0.17435110  0.12391912  1
  Ba  Ba17  1  0.16097488  0.00416217  0.12744280  1
  Ba  Ba18  1  0.66771850  0.17812376  0.62805246  1
  Ba  Ba19  1  0.16229413  0.32682388  0.87334482  1
  Ba  Ba20  1  0.83727515  0.65346841  0.37815844  1
  Ba  Ba21  1  0.83145884  0.67745121  0.12858779  1
  Ba  Ba22  1  0.16606235  0.99049454  0.87200527  1
  Ba  Ba23  1  0.16339585  0.34300864  0.12089855  1
  Ba  Ba24  1  0.66709281  0.49149596  0.37415009  1
  Ba  Ba25  1  1.00061040  0.83589518  0.12283478  1
  Ba  Ba26  1  0.83860300  0.65559402  0.87723563  1
  Ba  Ba27  1  0.33560047  0.17615606  0.62632523  1
  Ba  Ba28  1  0.49618785  0.67201997  0.12567194  1
  Ba  Ba29  1  0.17040152  0.00920839  0.62578797  1
  Ba  Ba30  1  0.32864363  0.83315390  0.12423745  1
  Ba  Ba31  1  0.67184410  0.15836222  0.87074591  1
  Ba  Ba32  1  0.32979569  0.82330447  0.87078110  1
  Ba  Ba33  1  0.32963217  0.50677488  0.12275964  1
  Ba  Ba34  1  -0.00216228  0.81914976  0.37931059  1
  Ba  Ba35  1  0.49628496  0.01782824  0.62268093  1
  La  La36  1  -0.00178012  0.49525216  0.87474393  1
  La  La37  1  -0.00145492  0.15303482  0.37643010  1
  La  La38  1  0.66018308  0.81666011  0.37608419  1
  La  La39  1  1.00721394  0.17728779  0.11982248  1
  La  La40  1  0.15837976  0.68047369  0.62230659  1
  La  La41  1  0.50762121  0.98726385  0.87303074  1
  La  La42  1  -0.00381566  0.49509053  0.37194268  1
  La  La43  1  0.83079348  0.34924404  0.62731266  1
  La  La44  1  0.83792305  0.98623764  0.37987923  1
  La  La45  1  0.83146158  0.01758781  0.62527345  1
  La  La46  1  0.32785812  0.15260991  0.87440958  1
  La  La47  1  0.16077793  0.34659137  0.62623130  1
  La  La48  1  0.67889815  0.84853666  0.13053603  1
  La  La49  1  0.67123656  0.51473180  0.62526294  1
  La  La50  1  0.32952865  0.48828571  0.87514731  1
  La  La51  1  0.84223052  0.32419825  0.87149528  1
  La  La52  1  0.50364017  0.31947766  0.87439480  1
  La  La53  1  0.50205629  0.65232512  0.88046107  1
  La  La54  1  0.67146458  0.51428899  0.12735859  1
  La  La55  1  0.50376488  0.31853089  0.37379142  1
  La  La56  1  0.17018132  0.32453215  0.37375875  1
  La  La57  1  0.33396224  0.85121231  0.62144682  1
  La  La58  1  0.33075569  0.15187521  0.37856232  1
  La  La59  1  0.65908161  0.82288270  0.87107603  1
  La  La60  1  0.49547412  0.98808190  0.37373671  1
  La  La61  1  0.50102290  0.34058717  0.62260708  1
  La  La62  1  0.33187103  0.51378260  0.62596168  1
  La  La63  1  0.83771169  0.32505325  0.37483882  1
  La  La64  1  0.83418423  0.34192906  0.12059870  1
  La  La65  1  0.67063242  0.85123596  0.61882237  1
  La  La66  1  1.00778361  0.18332885  0.62831598  1
  La  La67  1  0.83389777  0.68461944  0.62665902  1
  La  La68  1  0.49525151  0.68198454  0.62556190  1
  La  La69  1  0.66188796  0.14822804  0.37616305  1
  La  La70  1  0.49797500  0.00715962  0.12547595  1
  La  La71  1  0.49541619  0.34591731  0.12436142  1
  In  In72  1  0.33300229  0.33359719  0.50081782  1
  In  In73  1  0.50196119  0.49660424  -0.00284707  1
  In  In74  1  0.50126791  0.16664526  -0.00059320  1
  In  In75  1  0.16435512  0.50004559  0.50008862  1
  In  In76  1  0.66868023  0.33060759  0.24714632  1
  In  In77  1  0.50216822  0.83368361  -0.00026485  1
  In  In78  1  -0.00002840  -0.00026552  -0.00073813  1
  In  In79  1  0.66916640  0.33230963  0.49996532  1
  In  In80  1  0.50147967  0.49578670  0.50458691  1
  In  In81  1  0.33308936  0.66596445  -0.00359093  1
  In  In82  1  0.33478730  0.33083669  -0.00058806  1
  In  In83  1  0.83032443  0.83267969  -0.00348032  1
  In  In84  1  0.83296935  0.16803298  0.25183852  1
  In  In85  1  0.16982028  0.16722604  0.00008193  1
  In  In86  1  0.49900916  0.83379235  0.50158358  1
  In  In87  1  0.66789705  0.66545950  0.50402005  1
  In  In88  1  0.50182837  0.83512586  0.24780438  1
  In  In89  1  0.83086946  0.50346743  0.75010398  1
  In  In90  1  0.66687742  0.00275157  0.74550801  1
  In  In91  1  0.00134750  0.00037571  0.74588513  1
  In  In92  1  0.33303393  0.66387696  0.24981951  1
  In  In93  1  0.66691033  0.66718395  -0.00355526  1
  In  In94  1  0.33047921  0.00017045  0.24797197  1
  In  In95  1  0.33691312  0.00023189  0.75122172  1
  In  In96  1  0.16377353  0.49636319  0.25033017  1
  In  In97  1  0.50240768  0.49358698  0.25071520  1
  In  In98  1  0.16636177  0.16995334  0.50054507  1
  In  In99  1  0.00051112  0.00041345  0.50250134  1
  In  In100  1  -0.00154421  0.00089228  0.25489162  1
  In  In101  1  0.83385210  0.16893849  0.00213107  1
  In  In102  1  0.66786753  0.66598750  0.25103908  1
  In  In103  1  0.83263126  0.17107730  0.49869089  1
  In  In104  1  0.66615522  0.00053365  -0.00222336  1
  In  In105  1  0.16670706  0.83223803  -0.00195295  1
  In  In106  1  0.83485362  0.49706944  0.24828691  1
  In  In107  1  0.49949391  0.49846854  0.74768623  1
  Ir  Ir108  1  0.66572304  0.33222772  0.75177180  1
  Ir  Ir109  1  0.82935794  0.83686553  0.25765918  1
  Ir  Ir110  1  0.16961148  0.17331268  0.74887514  1
  Ir  Ir111  1  -0.00083287  0.33572427  0.50028383  1
  Ir  Ir112  1  0.66875539  -0.00016581  0.49791168  1
  Ir  Ir113  1  0.82783167  0.83113154  0.74310010  1
  Ir  Ir114  1  0.49967542  0.83046668  0.74679791  1
  Ir  Ir115  1  -0.00166960  0.66773833  0.25278092  1
  Ir  Ir116  1  0.83288176  0.49395001  -0.00024729  1
  Ir  Ir117  1  0.16376206  0.17397788  0.25433611  1
  Ir  Ir118  1  0.33797803  0.00266808  -0.00112002  1
  Ir  Ir119  1  0.83830519  0.17369856  0.74530162  1
  Ir  Ir120  1  0.50094968  0.16564315  0.49814577  1
  Ir  Ir121  1  0.33526584  0.00170240  0.50093636  1
  Ir  Ir122  1  0.16239774  0.49857703  -0.00774676  1
  Ir  Ir123  1  0.17069879  0.49913011  0.75050706  1
  Ir  Ir124  1  0.00165338  0.33153216  0.25669580  1
  Ir  Ir125  1  0.66781254  0.33337690  -0.00415704  1
  Ir  Ir126  1  0.66570560  0.00032049  0.25850737  1
  Ir  Ir127  1  0.00106645  0.66489630  0.74856894  1
  Ir  Ir128  1  0.66252134  0.67110057  0.74785275  1
  Ir  Ir129  1  -0.00248978  0.33747464  -0.00113441  1
  Ir  Ir130  1  -0.00107366  0.66036985  -0.00270631  1
  Ir  Ir131  1  0.33100275  0.66571570  0.50887787  1
  Ir  Ir132  1  0.83670360  0.49821736  0.50437916  1
  Ir  Ir133  1  -0.00098688  0.33618621  0.74722544  1
  Ir  Ir134  1  0.49661147  0.17359530  0.74886489  1
  Ir  Ir135  1  0.16385026  0.83108898  0.25513598  1
  Ir  Ir136  1  0.33241752  0.33599118  0.74838105  1
  Ir  Ir137  1  0.82937835  0.83530116  0.50255564  1
  Ir  Ir138  1  -0.00226142  0.66520896  0.50214006  1
  Ir  Ir139  1  0.16975900  0.82837581  0.74327507  1
  Ir  Ir140  1  0.16995411  0.82903365  0.50269471  1
  Ir  Ir141  1  0.50001278  0.16370660  0.25709091  1
  Ir  Ir142  1  0.33416912  0.66680479  0.74230472  1
  Ir  Ir143  1  0.33655872  0.32673660  0.25194169  1
  O  O144  1  0.31279230  0.32323958  0.13304928  1
  O  O145  1  0.29674235  0.32835177  0.63222790  1
  O  O146  1  0.31355358  0.66220422  0.12265585  1
  O  O147  1  0.29721154  0.65609915  0.62642789  1
  O  O148  1  0.31596376  1.00543660  0.11927200  1
  O  O149  1  0.32082534  1.00020287  0.62250503  1
  O  O150  1  0.63381930  0.32885965  0.11319499  1
  O  O151  1  0.63628669  0.33008963  0.63254311  1
  O  O152  1  0.64953265  0.65462706  0.12277091  1
  O  O153  1  0.63232980  0.65852412  0.63170174  1
  O  O154  1  0.63332555  0.99061675  0.13848947  1
  O  O155  1  0.64329841  0.99108753  0.61895946  1
  O  O156  1  0.97314653  0.31741151  0.12936048  1
  O  O157  1  0.96830781  0.32035446  0.62275473  1
  O  O158  1  0.98026212  0.67349258  0.12751663  1
  O  O159  1  0.97155231  0.67064293  0.62558645  1
  O  O160  1  0.98838018  1.00220783  0.13047332  1
  O  O161  1  0.96620991  0.99805812  0.62485600  1
  O  O162  1  0.18195940  0.17221693  0.13474733  1
  O  O163  1  0.18550598  0.18093800  0.62966311  1
  O  O164  1  0.17696562  0.49797419  0.11461900  1
  O  O165  1  0.19670958  0.48705826  0.63054193  1
  O  O166  1  0.17399920  0.83275529  0.13461883  1
  O  O167  1  0.19824007  0.81953174  0.62295051  1
  O  O168  1  0.51629333  0.14491588  0.13563542  1
  O  O169  1  0.52108017  0.17050391  0.62390492  1
  O  O170  1  0.53653232  0.48063109  0.12156152  1
  O  O171  1  0.53761358  0.47938316  0.62972827  1
  O  O172  1  0.54145883  0.84093937  0.12414521  1
  O  O173  1  0.53267625  0.82103156  0.62938523  1
  O  O174  1  0.87104647  0.16860989  0.12858233  1
  O  O175  1  0.86783228  0.16209751  0.62576699  1
  O  O176  1  0.85627168  0.48218608  0.11801120  1
  O  O177  1  0.85445468  0.48846177  0.62376606  1
  O  O178  1  0.84776701  0.83603273  0.13886614  1
  O  O179  1  0.85329759  0.82101700  0.62295093  1
  O  O180  1  0.13420635  0.18294360  0.37335065  1
  O  O181  1  0.15165289  0.16746132  0.86676434  1
  O  O182  1  0.13079574  0.49810647  0.37670045  1
  O  O183  1  0.13520463  0.50155690  0.86957647  1
  O  O184  1  0.14830986  0.82716201  0.38054692  1
  O  O185  1  0.15278826  0.83178248  0.86173059  1
  O  O186  1  0.47027549  0.17887749  0.37836309  1
  O  O187  1  0.46667348  0.18313331  0.86808975  1
  O  O188  1  0.48555873  0.49416971  0.37973665  1
  O  O189  1  0.46648038  0.50612942  0.86781829  1
  O  O190  1  0.48019908  0.85264936  0.37769130  1
  O  O191  1  0.47709309  0.84746140  0.86276334  1
  O  O192  1  0.79504273  0.18925868  0.37622556  1
  O  O193  1  0.81901203  0.18638065  0.86592447  1
  O  O194  1  0.82171080  0.49301878  0.38373398  1
  O  O195  1  0.81714162  0.49435418  0.87832016  1
  O  O196  1  0.79663046  0.84481205  0.38191964  1
  O  O197  1  0.79753302  0.83462752  0.86183755  1
  O  O198  1  0.02572531  0.01650763  0.37889170  1
  O  O199  1  0.01659398  0.00221088  0.86837409  1
  O  O200  1  0.03084929  0.35117967  0.37872178  1
  O  O201  1  0.01482659  0.35558678  0.87222095  1
  O  O202  1  0.01615605  0.65362712  0.37909572  1
  O  O203  1  0.01655370  0.64761284  0.87387372  1
  O  O204  1  0.35547831  0.00323401  0.37917476  1
  O  O205  1  0.36748216  0.00524307  0.87721788  1
  O  O206  1  0.36750506  0.33386985  0.37057395  1
  O  O207  1  0.36594138  0.34641638  0.86615119  1
  O  O208  1  0.35159346  0.66716672  0.39034394  1
  O  O209  1  0.36588863  0.66801204  0.85951166  1
  O  O210  1  0.70150146  0.01152441  0.37827807  1
  O  O211  1  0.68614947  -0.00037878  0.86775245  1
  O  O212  1  0.70184730  0.33878762  0.37514286  1
  O  O213  1  0.70285941  0.33370378  0.87349895  1
  O  O214  1  0.68896750  0.67629398  0.37975871  1
  O  O215  1  0.69194456  0.68205903  0.86348013  1
  O  O216  1  0.07433969  0.09983444  0.02179760  1
  O  O217  1  0.06479609  0.10648612  0.52283009  1
  O  O218  1  0.06572702  0.43102313  0.00670523  1
  O  O219  1  0.06754201  0.42299923  0.52558315  1
  O  O220  1  0.07002344  0.74899487  0.00524382  1
  O  O221  1  0.07446951  0.75696369  0.52168764  1
  O  O222  1  0.40149476  0.09509577  0.00941102  1
  O  O223  1  0.40037721  0.10103664  0.50528759  1
  O  O224  1  0.40882532  0.42225184  0.01808778  1
  O  O225  1  0.40100443  0.42854727  0.53603377  1
  O  O226  1  0.41043425  0.76098613  0.01056210  1
  O  O227  1  0.39936419  0.75896851  0.53255135  1
  O  O228  1  0.73806311  0.09631732  0.01467220  1
  O  O229  1  0.73698657  0.09035618  0.51913909  1
  O  O230  1  0.73545379  0.42777643  0.02459242  1
  O  O231  1  0.73997659  0.43530215  0.52971932  1
  O  O232  1  0.73418698  0.76459600  0.02140023  1
  O  O233  1  0.73704383  0.76752021  0.52793631  1
  O  O234  1  0.08447704  0.26272330  0.01423482  1
  O  O235  1  0.09316175  0.27153144  0.52397040  1
  O  O236  1  0.09155600  0.59003180  0.01074173  1
  O  O237  1  0.09323016  0.60033785  0.52403655  1
  O  O238  1  0.09556641  0.92438585  0.00751450  1
  O  O239  1  0.09932469  0.92107154  0.51759072  1
  O  O240  1  0.43902579  0.26613272  0.02013251  1
  O  O241  1  0.43735455  0.26227745  0.51993973  1
  O  O242  1  0.42974003  0.59435874  0.00330701  1
  O  O243  1  0.42562767  0.59982223  0.53300606  1
  O  O244  1  0.43396763  0.93959565  0.01900609  1
  O  O245  1  0.42382192  0.92869087  0.52113931  1
  O  O246  1  0.76423829  0.27263548  0.01914678  1
  O  O247  1  0.76962267  0.27050795  0.53046271  1
  O  O248  1  0.76204313  0.58232303  0.01780055  1
  O  O249  1  0.77230346  0.59386508  0.53184522  1
  O  O250  1  0.74964942  0.92059464  0.02919798  1
  O  O251  1  0.76611986  0.93452962  0.52562302  1
  O  O252  1  0.23640525  0.08429968  0.27392471  1
  O  O253  1  0.24463625  0.08436387  0.76624142  1
  O  O254  1  0.24197587  0.39383226  0.27382064  1
  O  O255  1  0.24455046  0.41001168  0.77820029  1
  O  O256  1  0.23667552  0.74517839  0.26420827  1
  O  O257  1  0.24101670  0.73461031  0.76046073  1
  O  O258  1  0.56803292  0.06700639  0.28436763  1
  O  O259  1  0.56416551  0.07780413  0.77010371  1
  O  O260  1  0.56435973  0.38690880  0.26806978  1
  O  O261  1  0.57099396  0.39533918  0.77566584  1
  O  O262  1  0.58109359  0.74804238  0.27691682  1
  O  O263  1  0.56627471  0.73689161  0.77474305  1
  O  O264  1  0.90250142  0.07552489  0.28886357  1
  O  O265  1  0.90552120  0.08374582  0.76047533  1
  O  O266  1  0.90645049  0.39717308  0.27323238  1
  O  O267  1  0.90421083  0.40240071  0.76462362  1
  O  O268  1  0.90007746  0.74408176  0.27361985  1
  O  O269  1  0.89888495  0.73199255  0.75966025  1
  O  O270  1  0.26313060  0.23748551  0.28315248  1
  O  O271  1  0.26701803  0.24054366  0.77700330  1
  O  O272  1  0.25273439  0.57244521  0.26685643  1
  O  O273  1  0.27074922  0.56612061  0.76870691  1
  O  O274  1  0.25371855  0.90428582  0.26447806  1
  O  O275  1  0.25968439  0.90231074  0.75054345  1
  O  O276  1  0.59603755  0.22642570  0.27743733  1
  O  O277  1  0.58911806  0.24361509  0.77413569  1
  O  O278  1  0.59902543  0.56582566  0.25785308  1
  O  O279  1  0.59245799  0.58197770  0.77173467  1
  O  O280  1  0.60167933  0.91125892  0.28679124  1
  O  O281  1  0.59275413  0.89861284  0.76647872  1
  O  O282  1  0.93456785  0.24264051  0.28722086  1
  O  O283  1  0.92777968  0.24735701  0.77014811  1
  O  O284  1  0.93309276  0.57113054  0.26761586  1
  O  O285  1  0.93244317  0.57164103  0.76692403  1
  O  O286  1  0.91459505  0.91017726  0.28166489  1
  O  O287  1  0.91613201  0.90080974  0.76116954  1
  O  O288  1  0.26227703  0.23891682  0.46847757  1
  O  O289  1  0.26672037  0.23575703  0.97494644  1
  O  O290  1  0.26749857  0.56950558  0.49443015  1
  O  O291  1  0.25648181  0.56407880  0.96991537  1
  O  O292  1  0.26908833  0.89927845  0.49721567  1
  O  O293  1  0.26953341  0.91454652  0.98524163  1
  O  O294  1  0.59821668  0.22592868  0.47664417  1
  O  O295  1  0.59971084  0.24289853  0.97441387  1
  O  O296  1  0.60431370  0.56223832  0.50001728  1
  O  O297  1  0.59019298  0.57630593  0.97196328  1
  O  O298  1  0.60630419  0.90404578  0.48161946  1
  O  O299  1  0.59179928  0.90748533  0.96185701  1
  O  O300  1  0.93567539  0.24289136  0.47241062  1
  O  O301  1  0.92612535  0.25205106  0.98184249  1
  O  O302  1  0.93451280  0.56411157  0.48183066  1
  O  O303  1  0.92964277  0.55983709  0.97916608  1
  O  O304  1  0.91735755  0.90718722  0.47987975  1
  O  O305  1  0.92145948  0.90554075  0.98446212  1
  O  O306  1  0.24605911  0.07529219  0.48234989  1
  O  O307  1  0.24925883  0.07341220  0.97458142  1
  O  O308  1  0.22972596  0.39786545  0.48011405  1
  O  O309  1  0.23843824  0.41272682  0.97746764  1
  O  O310  1  0.23569585  0.73103698  0.49227289  1
  O  O311  1  0.24121640  0.74278406  0.98319053  1
  O  O312  1  0.57069912  0.06537887  0.47050914  1
  O  O313  1  0.56301397  0.06622063  0.97954748  1
  O  O314  1  0.56201953  0.38542161  0.48630608  1
  O  O315  1  0.57395878  0.39555574  0.96873785  1
  O  O316  1  0.57161438  0.73963140  0.48617978  1
  O  O317  1  0.57338800  0.74062730  0.95999847  1
  O  O318  1  0.89906577  0.07240722  0.47568663  1
  O  O319  1  0.90934087  0.07938262  0.98242742  1
  O  O320  1  0.90061171  0.39854733  0.48095684  1
  O  O321  1  0.89935336  0.40113147  0.97788314  1
  O  O322  1  0.89643240  0.73526407  0.49199787  1
  O  O323  1  0.91065766  0.73287805  0.98703925  1
  O  O324  1  0.09831653  0.26905132  0.23851253  1
  O  O325  1  0.09346686  0.26556852  0.72337005  1
  O  O326  1  0.08457960  0.59571088  0.23802754  1
  O  O327  1  0.10096079  0.59602187  0.72528207  1
  O  O328  1  0.09248244  0.91957619  0.24816123  1
  O  O329  1  0.09823767  0.91735784  0.72731302  1
  O  O330  1  0.43671868  0.26072413  0.22955091  1
  O  O331  1  0.42965469  0.27102589  0.72427459  1
  O  O332  1  0.42372357  0.58329516  0.23669303  1
  O  O333  1  0.42396905  0.59800533  0.71451289  1
  O  O334  1  0.43708197  0.94069837  0.23391433  1
  O  O335  1  0.42906871  0.91934578  0.72340116  1
  O  O336  1  0.76945747  0.26795031  0.22055618  1
  O  O337  1  0.76696227  0.27001323  0.72649147  1
  O  O338  1  0.76184934  0.58951275  0.23422180  1
  O  O339  1  0.75447206  0.60001009  0.72099011  1
  O  O340  1  0.75833570  0.93118017  0.23464618  1
  O  O341  1  0.76247286  0.92349896  0.71279073  1
  O  O342  1  0.06581805  0.11418258  0.23657942  1
  O  O343  1  0.07716826  0.10471087  0.72357291  1
  O  O344  1  0.06601396  0.42312386  0.23445778  1
  O  O345  1  0.07919121  0.42302155  0.72472887  1
  O  O346  1  0.06813440  0.76095178  0.24255817  1
  O  O347  1  0.07850249  0.75248356  0.72475464  1
  O  O348  1  0.40520320  0.10026339  0.25143536  1
  O  O349  1  0.40838283  0.10157059  0.73980225  1
  O  O350  1  0.40615607  0.41236903  0.22450232  1
  O  O351  1  0.39737252  0.42747174  0.72025503  1
  O  O352  1  0.40907120  0.75914548  0.23838256  1
  O  O353  1  0.40385745  0.76035960  0.71440599  1
  O  O354  1  0.73070216  0.09245757  0.23936495  1
  O  O355  1  0.75321363  0.09483985  0.72467633  1
  O  O356  1  0.73725696  0.42829422  0.21863756  1
  O  O357  1  0.73371417  0.42510301  0.72482161  1
  O  O358  1  0.73675359  0.77264404  0.23750473  1
  O  O359  1  0.73077046  0.76390856  0.71659651  1
