# generated using pymatgen
data_BaLaInIrO6
_symmetry_space_group_name_H-M   'P 1'
_cell_length_a   17.51756436
_cell_length_b   17.54723819
_cell_length_c   16.48669971
_cell_angle_alpha   89.94657650
_cell_angle_beta   90.01255410
_cell_angle_gamma   89.95631707
_symmetry_Int_Tables_number   1
_chemical_formula_structural   BaLaInIrO6
_chemical_formula_sum   'Ba36 La36 In36 Ir36 O216'
_cell_volume   5067.75831817
_cell_formula_units_Z   36
loop_
 _symmetry_equiv_pos_site_id
 _symmetry_equiv_pos_as_xyz
  1  'x, y, z'
loop_
 _atom_site_type_symbol
 _atom_site_label
 _atom_site_symmetry_multiplicity
 _atom_site_fract_x
 _atom_site_fract_y
 _atom_site_fract_z
 _atom_site_occupancy
  Ba  Ba0  1  0.66626848  0.15717032  0.87519541  1
  Ba  Ba1  1  1.00463187  0.51202910  0.62427267  1
  Ba  Ba2  1  0.50060211  0.00595650  0.12560165  1
  Ba  Ba3  1  0.00113515  0.16236579  0.37499561  1
  Ba  Ba4  1  0.33342349  0.49339133  0.87469666  1
  Ba  Ba5  1  0.16513562  0.00713065  0.62759635  1
  Ba  Ba6  1  0.83428957  0.00575330  0.62832575  1
  Ba  Ba7  1  -0.00256674  0.49270682  0.37718305  1
  Ba  Ba8  1  0.66485710  0.17959315  0.62558401  1
  Ba  Ba9  1  0.66164794  0.49347475  0.87558436  1
  Ba  Ba10  1  0.99800991  0.17613225  0.12631680  1
  Ba  Ba11  1  0.66583144  0.83801437  0.12518012  1
  Ba  Ba12  1  0.17008470  0.34580995  0.62856615  1
  Ba  Ba13  1  0.33626354  0.51340160  0.62411906  1
  Ba  Ba14  1  0.00018782  0.82115033  0.86734667  1
  Ba  Ba15  1  0.49562441  0.00658793  0.62805197  1
  Ba  Ba16  1  0.16730160  0.65844506  0.87207709  1
  Ba  Ba17  1  0.16551849  0.32445672  0.37855946  1
  Ba  Ba18  1  0.83036667  0.34201736  0.12732367  1
  Ba  Ba19  1  0.16058252  0.34543894  0.12598202  1
  Ba  Ba20  1  0.16950205  0.67634340  0.62540555  1
  Ba  Ba21  1  0.66975384  0.50985247  0.12214359  1
  Ba  Ba22  1  0.66496915  0.49432881  0.37519470  1
  Ba  Ba23  1  0.49261084  0.34276730  0.62815441  1
  Ba  Ba24  1  0.16769887  0.98510287  0.87544078  1
  Ba  Ba25  1  0.82940646  0.00556265  0.12799378  1
  Ba  Ba26  1  0.83759123  0.65779230  0.86997950  1
  Ba  Ba27  1  0.83208892  0.99321797  0.37844407  1
  Ba  Ba28  1  0.66662440  0.82803225  0.37006319  1
  Ba  Ba29  1  0.50013736  0.67806184  0.12050780  1
  Ba  Ba30  1  0.83509362  0.67309176  0.62024309  1
  Ba  Ba31  1  0.50642903  0.65931279  0.37394289  1
  Ba  Ba32  1  0.33780208  0.17850864  0.62860327  1
  Ba  Ba33  1  0.83312579  0.66138978  0.37011247  1
  Ba  Ba34  1  0.99978878  0.50778910  0.12607601  1
  Ba  Ba35  1  0.66775541  0.82396685  0.87290359  1
  La  La36  1  0.32570865  0.81713313  0.87611570  1
  La  La37  1  0.34342106  0.84716422  0.12277508  1
  La  La38  1  0.50300765  0.31884709  0.87361786  1
  La  La39  1  0.17119994  0.98052577  0.37750405  1
  La  La40  1  0.33893605  0.18234107  0.12600634  1
  La  La41  1  1.00772465  0.18426660  0.62376414  1
  La  La42  1  0.16779060  0.68006034  0.12160535  1
  La  La43  1  0.49589223  0.68197296  0.62226439  1
  La  La44  1  0.83022786  0.32559802  0.87037078  1
  La  La45  1  1.00451798  0.84056225  0.62747082  1
  La  La46  1  0.17066374  0.32224615  0.87623307  1
  La  La47  1  0.17159705  0.65542698  0.37695101  1
  La  La48  1  0.00009500  0.49245885  0.87141242  1
  La  La49  1  0.33478157  0.84123988  0.62662199  1
  La  La50  1  0.32978174  0.15499041  0.86899855  1
  La  La51  1  -0.00464154  0.82472427  0.37728777  1
  La  La52  1  0.66534011  0.51342575  0.62267144  1
  La  La53  1  0.50066060  0.31862878  0.38113504  1
  La  La54  1  0.84431152  0.97989095  0.88053129  1
  La  La55  1  0.49404048  0.34935722  0.12473433  1
  La  La56  1  0.50129871  0.97845675  0.87346768  1
  La  La57  1  0.50122866  0.65538049  0.87327409  1
  La  La58  1  0.50402078  0.98309678  0.37984923  1
  La  La59  1  0.66871214  0.84615409  0.62104287  1
  La  La60  1  0.33868348  0.51872793  0.12777885  1
  La  La61  1  1.00035775  0.83595309  0.11769966  1
  La  La62  1  0.33138804  0.81502446  0.37577179  1
  La  La63  1  0.82479469  0.67067858  0.12263705  1
  La  La64  1  -0.00608704  0.15138242  0.87772924  1
  La  La65  1  0.67646250  0.17733567  0.12686346  1
  La  La66  1  0.32371916  0.14646073  0.38053779  1
  La  La67  1  0.66406733  0.15256093  0.37758352  1
  La  La68  1  0.82993380  0.34773389  0.62277140  1
  La  La69  1  0.32921289  0.48613451  0.37714408  1
  La  La70  1  0.15961309  0.01029717  0.12605629  1
  La  La71  1  0.83665921  0.32731511  0.37524314  1
  In  In72  1  0.66818314  -0.00013721  0.75141631  1
  In  In73  1  0.00234888  0.00117250  0.49986965  1
  In  In74  1  0.49582910  0.50099241  -0.00133531  1
  In  In75  1  0.00048449  -0.00027844  0.75073657  1
  In  In76  1  0.16986709  0.16535784  -0.00173712  1
  In  In77  1  0.00258041  0.33287790  -0.00497063  1
  In  In78  1  0.00170779  0.66295699  -0.00116615  1
  In  In79  1  0.33463326  0.33190225  0.25140565  1
  In  In80  1  0.33182829  -0.00284302  0.75050842  1
  In  In81  1  0.66121446  0.33288786  0.00063120  1
  In  In82  1  0.16622658  0.50163673  0.50236454  1
  In  In83  1  0.83408551  0.49739226  -0.00541882  1
  In  In84  1  0.83192920  0.16636555  0.00017483  1
  In  In85  1  0.16965743  0.50323731  0.24866673  1
  In  In86  1  0.33438705  0.33260621  0.50104117  1
  In  In87  1  0.33237867  0.00202242  0.00222617  1
  In  In88  1  0.49789734  0.16331181  0.49893737  1
  In  In89  1  0.17206375  0.83225588  0.24696068  1
  In  In90  1  0.83346381  0.50360641  0.50172561  1
  In  In91  1  0.83710439  0.83384832  0.24982724  1
  In  In92  1  0.83230251  0.16686814  0.50333237  1
  In  In93  1  0.00127209  0.33601007  0.75161890  1
  In  In94  1  0.49882650  0.16413199  0.75373699  1
  In  In95  1  0.83136884  0.82800995  0.74576089  1
  In  In96  1  0.66186687  -0.00054351  0.24938059  1
  In  In97  1  0.66522494  0.67072796  0.50209765  1
  In  In98  1  0.00362174  0.66912146  0.24778601  1
  In  In99  1  -0.00011174  0.33473151  0.24967202  1
  In  In100  1  0.65868513  0.33328173  0.25457511  1
  In  In101  1  0.66579244  -0.00181524  -0.00314118  1
  In  In102  1  0.66427503  0.66825158  0.24697365  1
  In  In103  1  0.83464022  0.16779460  0.75061883  1
  In  In104  1  0.17107199  0.16415710  0.25017116  1
  In  In105  1  0.00365670  0.00087913  0.25163117  1
  In  In106  1  0.83261778  0.50006634  0.24989529  1
  In  In107  1  0.49939325  0.16371450  0.00260386  1
  Ir  Ir108  1  0.82732103  0.16828301  0.25377344  1
  Ir  Ir109  1  0.33367565  0.33892750  0.75791515  1
  Ir  Ir110  1  0.66362509  -0.00308742  0.49914991  1
  Ir  Ir111  1  0.33798456  0.66712008  0.74732471  1
  Ir  Ir112  1  0.49892210  0.50127408  0.49889874  1
  Ir  Ir113  1  0.49676104  0.16506203  0.25236711  1
  Ir  Ir114  1  0.66573884  0.67036405  -0.00699753  1
  Ir  Ir115  1  0.33250386  0.33578983  0.00028041  1
  Ir  Ir116  1  0.00205798  -0.00729787  0.00178495  1
  Ir  Ir117  1  0.83673211  0.82898786  -0.00140965  1
  Ir  Ir118  1  0.17060563  0.82761899  0.75002543  1
  Ir  Ir119  1  0.66551943  0.33628059  0.50282053  1
  Ir  Ir120  1  0.33116495  0.66788665  0.00114110  1
  Ir  Ir121  1  0.49659354  0.83530147  0.50199849  1
  Ir  Ir122  1  0.83594279  0.83384656  0.50125867  1
  Ir  Ir123  1  0.33268939  -0.00585869  0.49571109  1
  Ir  Ir124  1  0.82933265  0.49985246  0.74703201  1
  Ir  Ir125  1  0.17318273  0.50299834  -0.00126516  1
  Ir  Ir126  1  0.49356182  0.50086026  0.25173177  1
  Ir  Ir127  1  0.00279203  0.66338216  0.74554191  1
  Ir  Ir128  1  0.16777466  0.50396023  0.75359059  1
  Ir  Ir129  1  0.66008083  0.66245068  0.74856494  1
  Ir  Ir130  1  0.17280993  0.83028231  -0.00027710  1
  Ir  Ir131  1  0.16704049  0.16404740  0.50421162  1
  Ir  Ir132  1  0.49746159  0.82629394  0.75008282  1
  Ir  Ir133  1  0.49054674  0.83523481  0.24937111  1
  Ir  Ir134  1  0.66573093  0.34029837  0.74571468  1
  Ir  Ir135  1  0.17028394  0.83110638  0.50001163  1
  Ir  Ir136  1  0.33392926  -0.00280248  0.25426109  1
  Ir  Ir137  1  0.33570321  0.66628460  0.25195506  1
  Ir  Ir138  1  -0.00198617  0.33124721  0.50170740  1
  Ir  Ir139  1  0.00535729  0.67517330  0.50165154  1
  Ir  Ir140  1  0.49391760  0.82931278  -0.00310619  1
  Ir  Ir141  1  0.33869032  0.66947371  0.49834203  1
  Ir  Ir142  1  0.16421747  0.17004020  0.74815828  1
  Ir  Ir143  1  0.49991291  0.50129877  0.74651058  1
  O  O144  1  0.30879728  0.32216722  0.11979759  1
  O  O145  1  0.31918583  0.33602111  0.63542479  1
  O  O146  1  0.30353454  0.65825165  0.12720953  1
  O  O147  1  0.31658402  0.67072868  0.62230425  1
  O  O148  1  0.29873942  0.98454770  0.13344964  1
  O  O149  1  0.31370460  0.97956206  0.61785058  1
  O  O150  1  0.62534225  0.31654608  0.12963665  1
  O  O151  1  0.63968695  0.33828669  0.62407105  1
  O  O152  1  0.64933514  0.67243172  0.11212641  1
  O  O153  1  0.63072652  0.65917906  0.63034277  1
  O  O154  1  0.64873218  0.99583982  0.12373551  1
  O  O155  1  0.64277007  0.98761214  0.61825625  1
  O  O156  1  0.98347860  0.33645063  0.12072579  1
  O  O157  1  0.97114770  0.32629449  0.62355316  1
  O  O158  1  0.96569243  0.66999267  0.12169716  1
  O  O159  1  0.98362956  0.67243388  0.62352624  1
  O  O160  1  0.98346424  0.97734525  0.12075382  1
  O  O161  1  0.98781028  0.97966526  0.62508034  1
  O  O162  1  0.20625411  0.14850557  0.12319551  1
  O  O163  1  0.18993754  0.16758210  0.62505920  1
  O  O164  1  0.20396683  0.49925897  0.11797369  1
  O  O165  1  0.18609300  0.50507173  0.63183916  1
  O  O166  1  0.20774973  0.82277430  0.11801489  1
  O  O167  1  0.20068384  0.83058219  0.62572118  1
  O  O168  1  0.53599828  0.15985552  0.13588118  1
  O  O169  1  0.51386996  0.16423429  0.62608239  1
  O  O170  1  0.51566590  0.49118328  0.13055552  1
  O  O171  1  0.52787725  0.49512014  0.62156214  1
  O  O172  1  0.51385038  0.83321292  0.12329936  1
  O  O173  1  0.52891487  0.82436529  0.62665421  1
  O  O174  1  0.84690127  0.16290764  0.13373721  1
  O  O175  1  0.86985303  0.16955318  0.62717186  1
  O  O176  1  0.85006872  0.50652788  0.12046227  1
  O  O177  1  0.85493158  0.48828010  0.62869347  1
  O  O178  1  0.86457449  0.82189717  0.11859399  1
  O  O179  1  0.86639767  0.83261828  0.61865855  1
  O  O180  1  0.15321761  0.16018977  0.38553406  1
  O  O181  1  0.13380370  0.17669763  0.86624523  1
  O  O182  1  0.15152959  0.52107474  0.37724078  1
  O  O183  1  0.13976357  0.50597952  0.87642260  1
  O  O184  1  0.14076847  0.83462743  0.37932184  1
  O  O185  1  0.14792941  0.82732939  0.87479345  1
  O  O186  1  0.46015208  0.17490392  0.36819869  1
  O  O187  1  0.46255120  0.18144262  0.87751742  1
  O  O188  1  0.46542723  0.50787035  0.37607868  1
  O  O189  1  0.48248071  0.51658850  0.86766906  1
  O  O190  1  0.46470374  0.84314813  0.37615974  1
  O  O191  1  0.46304943  0.83102255  0.87330211  1
  O  O192  1  0.79970765  0.18111521  0.37521985  1
  O  O193  1  0.81000496  0.18981213  0.87471722  1
  O  O194  1  0.81491243  0.49902148  0.37918850  1
  O  O195  1  0.80947677  0.50453590  0.86371404  1
  O  O196  1  0.81513834  0.83278891  0.38453656  1
  O  O197  1  0.81731306  0.83573697  0.87694801  1
  O  O198  1  0.03844319  0.00262288  0.37733532  1
  O  O199  1  0.02124797  0.00344943  0.88177961  1
  O  O200  1  0.01639402  0.33058775  0.38342365  1
  O  O201  1  0.03863139  0.35347432  0.87212444  1
  O  O202  1  0.03712289  0.68576998  0.38328683  1
  O  O203  1  0.01774350  0.66161314  0.86601849  1
  O  O204  1  0.36692427  0.00810701  0.37383457  1
  O  O205  1  0.36602887  0.00525486  0.87624773  1
  O  O206  1  0.36837387  0.34735356  0.37410108  1
  O  O207  1  0.36491081  0.34159277  0.88103065  1
  O  O208  1  0.36171613  0.67955810  0.37467459  1
  O  O209  1  0.36472532  0.67614185  0.87410177  1
  O  O210  1  0.67957784  0.00511961  0.37940731  1
  O  O211  1  0.70729124  -0.00615847  0.87509922  1
  O  O212  1  0.69528913  0.33695566  0.38537283  1
  O  O213  1  0.69366378  0.34003673  0.86380062  1
  O  O214  1  0.67567581  0.67096702  0.37572188  1
  O  O215  1  0.68518856  0.66539833  0.87095156  1
  O  O216  1  0.07490286  0.08138583  0.02119751  1
  O  O217  1  0.07288476  0.10139319  0.52932771  1
  O  O218  1  0.08269796  0.43924261  0.01162679  1
  O  O219  1  0.07220555  0.41866084  0.51626176  1
  O  O220  1  0.08133350  0.75993575  0.02430163  1
  O  O221  1  0.07177562  0.77067547  0.52507912  1
  O  O222  1  0.39952073  0.10030692  0.03252937  1
  O  O223  1  0.39659302  0.08834398  0.51070007  1
  O  O224  1  0.39477977  0.42994114  0.02844363  1
  O  O225  1  0.40825055  0.43619504  0.51068636  1
  O  O226  1  0.39615412  0.76379788  0.01995751  1
  O  O227  1  0.40171267  0.76811694  0.52473096  1
  O  O228  1  0.73496035  0.09601742  0.02347625  1
  O  O229  1  0.72999658  0.09214440  0.51007991  1
  O  O230  1  0.73773647  0.42454054  0.01081992  1
  O  O231  1  0.73277609  0.42554764  0.52956868  1
  O  O232  1  0.74781170  0.75593152  0.02037503  1
  O  O233  1  0.74070365  0.76751316  0.52647127  1
  O  O234  1  0.10344666  0.26286824  0.00667891  1
  O  O235  1  0.09216959  0.25666752  0.52731141  1
  O  O236  1  0.10883517  0.59763280  0.02436953  1
  O  O237  1  0.09467425  0.60431342  0.51201378  1
  O  O238  1  0.09912908  0.92018765  0.02951640  1
  O  O239  1  0.10376912  0.92198124  0.51540742  1
  O  O240  1  0.42559708  0.27084523  0.02709580  1
  O  O241  1  0.43161605  0.26334682  0.50675730  1
  O  O242  1  0.41865032  0.59435443  0.01799666  1
  O  O243  1  0.43563049  0.60145822  0.52237022  1
  O  O244  1  0.42351191  0.91910568  0.01834505  1
  O  O245  1  0.42829549  0.92867259  0.51374117  1
  O  O246  1  0.75082992  0.25511675  0.02636434  1
  O  O247  1  0.76026306  0.27131865  0.52524467  1
  O  O248  1  0.75793957  0.60279897  0.01246280  1
  O  O249  1  0.74876814  0.58705681  0.52694861  1
  O  O250  1  0.76621797  0.91684898  0.01428070  1
  O  O251  1  0.75683553  0.92173549  0.52500686  1
  O  O252  1  0.24367804  0.06185658  0.28342412  1
  O  O253  1  0.23704295  0.08189665  0.76862487  1
  O  O254  1  0.24637726  0.41139238  0.27533581  1
  O  O255  1  0.23401086  0.40743942  0.77658068  1
  O  O256  1  0.24213767  0.73282644  0.27624321  1
  O  O257  1  0.25097797  0.74312643  0.77299399  1
  O  O258  1  0.56185913  0.07500608  0.28413998  1
  O  O259  1  0.56687958  0.06410714  0.77816016  1
  O  O260  1  0.55314886  0.40306195  0.27436194  1
  O  O261  1  0.56605388  0.40487479  0.77276170  1
  O  O262  1  0.56781925  0.75100393  0.25970767  1
  O  O263  1  0.56317165  0.72784937  0.77103315  1
  O  O264  1  0.90308880  0.08071229  0.26826574  1
  O  O265  1  0.90764107  0.07277892  0.78735550  1
  O  O266  1  0.90064367  0.39986427  0.27598534  1
  O  O267  1  0.89565698  0.40616409  0.76838660  1
  O  O268  1  0.92176037  0.75136053  0.28105002  1
  O  O269  1  0.91251670  0.73450200  0.75682085  1
  O  O270  1  0.27402242  0.22720556  0.27105969  1
  O  O271  1  0.25971812  0.24403202  0.78068701  1
  O  O272  1  0.27647305  0.57108236  0.27246022  1
  O  O273  1  0.26329831  0.57748545  0.76834164  1
  O  O274  1  0.27085301  0.90291673  0.28349512  1
  O  O275  1  0.26281313  0.89706940  0.77150296  1
  O  O276  1  0.58602720  0.23263251  0.28742381  1
  O  O277  1  0.59330827  0.25149518  0.76899095  1
  O  O278  1  0.58353765  0.57064520  0.26126438  1
  O  O279  1  0.59354369  0.56745573  0.76062662  1
  O  O280  1  0.57438210  0.91242979  0.27298335  1
  O  O281  1  0.58146818  0.90161598  0.77055740  1
  O  O282  1  0.91173064  0.24221749  0.27146237  1
  O  O283  1  0.93436294  0.23957343  0.78221896  1
  O  O284  1  0.93065211  0.57602425  0.26847736  1
  O  O285  1  0.93134382  0.56456510  0.76710430  1
  O  O286  1  0.93679804  0.90414109  0.26989026  1
  O  O287  1  0.91725405  0.91170428  0.76823879  1
  O  O288  1  0.26234241  0.23055179  0.48013599  1
  O  O289  1  0.27148204  0.24174469  0.97174495  1
  O  O290  1  0.27105065  0.57909459  0.47372604  1
  O  O291  1  0.26441327  0.57284240  0.98549684  1
  O  O292  1  0.26670948  0.89687634  0.47293496  1
  O  O293  1  0.26415593  0.89876818  0.97706775  1
  O  O294  1  0.59900398  0.24128111  0.47343664  1
  O  O295  1  0.58381080  0.24361827  0.97045613  1
  O  O296  1  0.58894575  0.56866308  0.49124074  1
  O  O297  1  0.58695701  0.58589431  0.98053463  1
  O  O298  1  0.59077411  0.90425917  0.47931430  1
  O  O299  1  0.58128645  0.90142319  0.97450354  1
  O  O300  1  0.92488552  0.24688556  0.48237415  1
  O  O301  1  0.93462002  0.23071979  0.97583276  1
  O  O302  1  0.93073530  0.58806116  0.48826049  1
  O  O303  1  0.93533860  0.56541086  0.97221268  1
  O  O304  1  0.93018365  0.89945709  0.47907953  1
  O  O305  1  0.92763692  0.90308013  0.97672219  1
  O  O306  1  0.23590220  0.06349074  0.47700504  1
  O  O307  1  0.24570343  0.07883716  0.96512539  1
  O  O308  1  0.24683799  0.41310660  0.48159324  1
  O  O309  1  0.23559677  0.40191847  0.97398846  1
  O  O310  1  0.24168469  0.73736725  0.47326734  1
  O  O311  1  0.24342087  0.74066489  0.97555799  1
  O  O312  1  0.57230329  0.06791551  0.47347921  1
  O  O313  1  0.56159726  0.06203041  0.96972902  1
  O  O314  1  0.56512849  0.40289337  0.47609145  1
  O  O315  1  0.55807142  0.40100747  0.98169535  1
  O  O316  1  0.56433051  0.74377728  0.49439189  1
  O  O317  1  0.56534773  0.73755735  0.97064620  1
  O  O318  1  0.90766682  0.07486968  0.48410200  1
  O  O319  1  0.91002554  0.06347432  0.97947074  1
  O  O320  1  0.90377469  0.39847270  0.48571667  1
  O  O321  1  0.90734603  0.40308129  0.95943498  1
  O  O322  1  0.91290616  0.74696948  0.47700005  1
  O  O323  1  0.90894006  0.74386125  0.98063143  1
  O  O324  1  0.09207156  0.25454537  0.24057793  1
  O  O325  1  0.09511048  0.25822266  0.72767410  1
  O  O326  1  0.11201610  0.61040825  0.23103823  1
  O  O327  1  0.09737293  0.59539742  0.73318866  1
  O  O328  1  0.11285357  0.93474863  0.23371216  1
  O  O329  1  0.09306690  0.91212740  0.73456190  1
  O  O330  1  0.43507381  0.25937205  0.22055414  1
  O  O331  1  0.42202640  0.26898225  0.74626011  1
  O  O332  1  0.42625810  0.59488100  0.22545886  1
  O  O333  1  0.43654800  0.60175344  0.72634131  1
  O  O334  1  0.41911164  0.92470262  0.22757867  1
  O  O335  1  0.42425534  0.91312342  0.73045427  1
  O  O336  1  0.75112996  0.25163658  0.23257638  1
  O  O337  1  0.76318802  0.27819910  0.72632718  1
  O  O338  1  0.75917708  0.59623127  0.22582615  1
  O  O339  1  0.75313091  0.59087202  0.72136925  1
  O  O340  1  0.75507542  0.92251720  0.24132686  1
  O  O341  1  0.74638851  0.91096353  0.72076566  1
  O  O342  1  0.08186308  0.08712180  0.21913494  1
  O  O343  1  0.07058492  0.10271538  0.72755072  1
  O  O344  1  0.07486147  0.43099235  0.24063489  1
  O  O345  1  0.07662253  0.43605320  0.73659672  1
  O  O346  1  0.07764381  0.76556317  0.21058176  1
  O  O347  1  0.07170078  0.75963671  0.72513583  1
  O  O348  1  0.39900034  0.09763867  0.22631978  1
  O  O349  1  0.39983626  0.09394517  0.73915335  1
  O  O350  1  0.40347833  0.43436360  0.22499056  1
  O  O351  1  0.40489559  0.43343822  0.73679183  1
  O  O352  1  0.39460486  0.76671336  0.22953418  1
  O  O353  1  0.40685487  0.75728922  0.71898195  1
  O  O354  1  0.73134200  0.10204029  0.24156621  1
  O  O355  1  0.74001346  0.09495175  0.72830005  1
  O  O356  1  0.73371696  0.42327143  0.23477025  1
  O  O357  1  0.73444949  0.43407820  0.71977980  1
  O  O358  1  0.75135757  0.75177111  0.22655702  1
  O  O359  1  0.72729907  0.75352054  0.72494928  1
