# generated using pymatgen
data_BaLaInIrO6
_symmetry_space_group_name_H-M   'P 1'
_cell_length_a   17.50544084
_cell_length_b   17.52886254
_cell_length_c   16.48268078
_cell_angle_alpha   90.05593259
_cell_angle_beta   89.97055253
_cell_angle_gamma   89.94241127
_symmetry_Int_Tables_number   1
_chemical_formula_structural   BaLaInIrO6
_chemical_formula_sum   'Ba36 La36 In36 Ir36 O216'
_cell_volume   5057.71264521
_cell_formula_units_Z   36
loop_
 _symmetry_equiv_pos_site_id
 _symmetry_equiv_pos_as_xyz
  1  'x, y, z'
loop_
 _atom_site_type_symbol
 _atom_site_label
 _atom_site_symmetry_multiplicity
 _atom_site_fract_x
 _atom_site_fract_y
 _atom_site_fract_z
 _atom_site_occupancy
  Ba  Ba0  1  0.16491517  0.34202777  0.12638256  1
  Ba  Ba1  1  0.16999081  0.65671629  0.87102161  1
  Ba  Ba2  1  0.66538684  0.51553149  0.12198667  1
  Ba  Ba3  1  -0.00458467  0.48817608  0.37852472  1
  Ba  Ba4  1  0.16563978  0.67467461  0.62316849  1
  Ba  Ba5  1  1.00110197  0.50876618  0.62879211  1
  Ba  Ba6  1  0.16405752  0.99347420  0.37133450  1
  Ba  Ba7  1  0.00346328  0.49374324  0.87242822  1
  Ba  Ba8  1  1.00227454  0.17629065  0.12633507  1
  Ba  Ba9  1  0.49735239  0.67575901  0.12647526  1
  Ba  Ba10  1  1.00609292  0.17459633  0.62000845  1
  Ba  Ba11  1  0.50015903  0.32744924  0.37569083  1
  Ba  Ba12  1  0.00034772  0.15526778  0.37365274  1
  Ba  Ba13  1  0.49928572  0.34138573  0.12787218  1
  Ba  Ba14  1  0.33390888  0.17380263  0.12463231  1
  Ba  Ba15  1  0.82949409  0.34060079  0.12301309  1
  Ba  Ba16  1  0.83534686  0.32127246  0.87445256  1
  Ba  Ba17  1  0.33551070  0.17546039  0.62442457  1
  Ba  Ba18  1  0.50176506  0.32195053  0.87482407  1
  Ba  Ba19  1  0.83623980  0.34005850  0.62498376  1
  Ba  Ba20  1  0.83209315  0.67209691  0.62551204  1
  Ba  Ba21  1  0.16416348  0.65805596  0.37569187  1
  Ba  Ba22  1  -0.00193075  0.15663917  0.87138507  1
  Ba  Ba23  1  -0.00105587  0.82589337  0.87163053  1
  Ba  Ba24  1  0.16869419  0.00590468  0.62069113  1
  Ba  Ba25  1  0.66648361  0.82342222  0.87733508  1
  Ba  Ba26  1  0.66846109  0.15952588  0.37525613  1
  Ba  Ba27  1  0.49713909  0.01215874  0.62938062  1
  Ba  Ba28  1  0.33364673  0.51296272  0.62827246  1
  Ba  Ba29  1  0.33051261  0.48950100  0.37607234  1
  Ba  Ba30  1  0.83419874  0.65703860  0.37395650  1
  Ba  Ba31  1  0.83526505  0.00533924  0.12583368  1
  Ba  Ba32  1  0.33944849  0.50912170  0.12739790  1
  Ba  Ba33  1  0.50222013  0.99360803  0.38008704  1
  Ba  Ba34  1  0.83578798  0.98929422  0.37568299  1
  Ba  Ba35  1  0.66661005  0.49482569  0.37503580  1
  La  La36  1  0.50454077  0.65437369  0.37225651  1
  La  La37  1  0.17172070  0.98364649  0.86716465  1
  La  La38  1  0.66697345  0.18125431  0.61965890  1
  La  La39  1  0.33097216  0.82537190  0.37801327  1
  La  La40  1  0.50414550  0.65161351  0.87448202  1
  La  La41  1  0.32802819  0.15206155  0.86983518  1
  La  La42  1  0.32992531  0.81873299  0.87407251  1
  La  La43  1  0.49535808  0.01232020  0.13014150  1
  La  La44  1  0.82988174  0.01511660  0.62924022  1
  La  La45  1  0.15824892  0.34853377  0.62468749  1
  La  La46  1  0.16915170  0.32478260  0.38073946  1
  La  La47  1  0.82736669  0.68113437  0.12225646  1
  La  La48  1  0.66387613  0.48407358  0.87574989  1
  La  La49  1  0.67218999  0.51373979  0.62315244  1
  La  La50  1  0.33744128  0.84605826  0.12881226  1
  La  La51  1  0.67612671  0.17866108  0.12778154  1
  La  La52  1  0.32762560  0.48470139  0.87561579  1
  La  La53  1  0.66252793  0.15319660  0.87370179  1
  La  La54  1  0.84067953  0.65322344  0.87458372  1
  La  La55  1  0.83292710  0.98911695  0.87014344  1
  La  La56  1  0.17126257  0.32197134  0.87138483  1
  La  La57  1  0.84087542  0.31778611  0.37428367  1
  La  La58  1  0.33553697  0.84750464  0.62742299  1
  La  La59  1  -0.00910841  0.82335536  0.37806600  1
  La  La60  1  0.15521715  0.01312865  0.12370258  1
  La  La61  1  1.00344841  0.84204362  0.62690779  1
  La  La62  1  0.66934764  0.84929122  0.62612424  1
  La  La63  1  0.66237347  0.82757360  0.37164395  1
  La  La64  1  0.32880854  0.15317122  0.37370173  1
  La  La65  1  0.49361095  0.68349648  0.62425487  1
  La  La66  1  0.16582041  0.67601061  0.12733739  1
  La  La67  1  0.49920979  0.34856437  0.62260673  1
  La  La68  1  1.00108763  0.84509038  0.12813482  1
  La  La69  1  0.50149365  0.98799399  0.87671732  1
  La  La70  1  0.66421027  0.84216799  0.12499716  1
  La  La71  1  1.00408199  0.51205730  0.12613564  1
  In  In72  1  -0.00165761  -0.00133427  0.50167748  1
  In  In73  1  0.66890460  -0.00064903  0.50120669  1
  In  In74  1  -0.00104905  0.66975042  0.00073161  1
  In  In75  1  0.16575492  0.16509159  -0.00480672  1
  In  In76  1  0.33410398  0.33078113  0.00013401  1
  In  In77  1  0.50010281  0.50150740  0.25058780  1
  In  In78  1  0.50210868  0.83325763  0.75353808  1
  In  In79  1  0.66983487  0.33529948  0.49855328  1
  In  In80  1  0.16707719  0.16559847  0.74548006  1
  In  In81  1  0.16447694  0.83418720  0.49739303  1
  In  In82  1  0.82923254  0.49863658  0.75012606  1
  In  In83  1  0.16769865  0.49876900  0.24971679  1
  In  In84  1  0.66862978  0.33546493  0.25173946  1
  In  In85  1  0.50074639  0.16807834  0.50008454  1
  In  In86  1  0.83471305  0.50064714  -0.00055132  1
  In  In87  1  0.83511892  0.49998866  0.24830393  1
  In  In88  1  0.66416961  -0.00155563  0.00123190  1
  In  In89  1  0.16963214  0.83249134  0.00295930  1
  In  In90  1  -0.00234483  0.66811032  0.24966462  1
  In  In91  1  -0.00013101  -0.00257655  -0.00507654  1
  In  In92  1  0.66566013  0.67339235  0.50147826  1
  In  In93  1  0.33300792  0.33223344  0.50541730  1
  In  In94  1  0.33243657  -0.00333227  0.00146918  1
  In  In95  1  0.83366361  0.16292227  -0.00164076  1
  In  In96  1  0.66576309  -0.00049740  0.24956840  1
  In  In97  1  0.33471664  0.67044199  0.50013747  1
  In  In98  1  -0.00019579  0.33118930  0.75242487  1
  In  In99  1  0.16966844  0.50016184  0.00125611  1
  In  In100  1  0.33375668  0.67070669  0.25126245  1
  In  In101  1  0.50027821  0.16405137  -0.00012784  1
  In  In102  1  0.16695773  0.16660196  0.24947199  1
  In  In103  1  0.50100888  0.50422325  0.50394966  1
  In  In104  1  0.49754911  0.50136598  -0.00379606  1
  In  In105  1  0.16459610  0.50075252  0.49888601  1
  In  In106  1  0.83075043  0.83023908  0.74855559  1
  In  In107  1  0.66632067  0.33107250  -0.00159509  1
  Ir  Ir108  1  0.33794464  0.66986923  0.75138626  1
  Ir  Ir109  1  0.00004111  -0.00626159  0.24938266  1
  Ir  Ir110  1  -0.00120284  0.33221279  0.24950295  1
  Ir  Ir111  1  0.00193472  0.33463514  0.00252155  1
  Ir  Ir112  1  0.66146481  0.66534335  0.75331116  1
  Ir  Ir113  1  0.83336598  0.50062224  0.50235865  1
  Ir  Ir114  1  0.33525965  -0.00031626  0.49835007  1
  Ir  Ir115  1  0.83157278  0.83299938  0.00173519  1
  Ir  Ir116  1  0.66790235  0.67349350  -0.00392730  1
  Ir  Ir117  1  0.49794354  0.16321045  0.25020506  1
  Ir  Ir118  1  -0.00578073  0.67001170  0.50433625  1
  Ir  Ir119  1  0.83164442  0.83304177  0.24914381  1
  Ir  Ir120  1  0.66545257  0.00306674  0.75043723  1
  Ir  Ir121  1  0.16975513  0.83393844  0.74927280  1
  Ir  Ir122  1  0.33436394  0.32676687  0.25425670  1
  Ir  Ir123  1  0.49873984  0.83490074  0.49891469  1
  Ir  Ir124  1  0.00176764  0.66819117  0.74901936  1
  Ir  Ir125  1  0.33718426  -0.00000619  0.75045847  1
  Ir  Ir126  1  0.00051473  0.33107755  0.49809786  1
  Ir  Ir127  1  0.17025316  0.16600020  0.49759195  1
  Ir  Ir128  1  0.83762463  0.16372171  0.25107939  1
  Ir  Ir129  1  0.33188633  -0.00406505  0.25148851  1
  Ir  Ir130  1  0.49948514  0.16679276  0.75254013  1
  Ir  Ir131  1  0.17130220  0.50043835  0.75116405  1
  Ir  Ir132  1  0.83623920  0.16662843  0.50332083  1
  Ir  Ir133  1  -0.00152738  -0.00360210  0.74850468  1
  Ir  Ir134  1  0.33616634  0.67036171  -0.00362913  1
  Ir  Ir135  1  0.66177053  0.33072848  0.74824564  1
  Ir  Ir136  1  0.66607433  0.67736970  0.24627440  1
  Ir  Ir137  1  0.33692639  0.33403122  0.74801251  1
  Ir  Ir138  1  0.49714031  0.83134384  0.00391847  1
  Ir  Ir139  1  0.82670648  0.16339453  0.74581461  1
  Ir  Ir140  1  0.49747983  0.83513546  0.25100623  1
  Ir  Ir141  1  0.83274547  0.83316618  0.50238244  1
  Ir  Ir142  1  0.16694145  0.83495533  0.24968805  1
  Ir  Ir143  1  0.50229161  0.50166885  0.75007732  1
  O  O144  1  0.31716218  0.33145225  0.13436768  1
  O  O145  1  0.29750618  0.32944634  0.63349298  1
  O  O146  1  0.30531024  0.66813420  0.11663483  1
  O  O147  1  0.31660036  0.67338477  0.63322319  1
  O  O148  1  0.29576435  0.98432222  0.13158643  1
  O  O149  1  0.31498902  0.98547807  0.62411460  1
  O  O150  1  0.64961250  0.31293685  0.12629381  1
  O  O151  1  0.63511407  0.32084624  0.63066462  1
  O  O152  1  0.64456820  0.68122085  0.12050493  1
  O  O153  1  0.62988355  0.65811682  0.63335055  1
  O  O154  1  0.63181624  0.98324509  0.12618361  1
  O  O155  1  0.64511116  0.98639059  0.63126376  1
  O  O156  1  0.97561866  0.33161689  0.12676443  1
  O  O157  1  0.98608426  0.33025042  0.61913765  1
  O  O158  1  0.96207280  0.66022310  0.12439652  1
  O  O159  1  0.97951443  0.67125151  0.62853158  1
  O  O160  1  0.98631802  0.98870905  0.12851748  1
  O  O161  1  0.96598282  0.98945781  0.62939850  1
  O  O162  1  0.18332338  0.15137290  0.12356311  1
  O  O163  1  0.18590092  0.16208656  0.61771225  1
  O  O164  1  0.19158964  0.49501155  0.12535275  1
  O  O165  1  0.18359753  0.49136263  0.62998630  1
  O  O166  1  0.20198334  0.82378261  0.13223107  1
  O  O167  1  0.19880211  0.83225766  0.62961806  1
  O  O168  1  0.53386322  0.15285442  0.12986968  1
  O  O169  1  0.53077987  0.16545694  0.63566218  1
  O  O170  1  0.51202281  0.50452026  0.12234641  1
  O  O171  1  0.53727948  0.49313336  0.63425755  1
  O  O172  1  0.52933221  0.82890715  0.12803780  1
  O  O173  1  0.53203497  0.82509520  0.62128005  1
  O  O174  1  0.85394422  0.16080600  0.13142113  1
  O  O175  1  0.85773879  0.15457366  0.62493193  1
  O  O176  1  0.86933200  0.50296305  0.12241336  1
  O  O177  1  0.84795575  0.50352359  0.62190272  1
  O  O178  1  0.86271187  0.82082481  0.12597600  1
  O  O179  1  0.86446144  0.82997107  0.62151828  1
  O  O180  1  0.15136742  0.17695647  0.37812664  1
  O  O181  1  0.14631405  0.18235063  0.86922679  1
  O  O182  1  0.14646671  0.48925517  0.37369602  1
  O  O183  1  0.15586146  0.50251105  0.87052522  1
  O  O184  1  0.12889062  0.83875232  0.36732508  1
  O  O185  1  0.14916998  0.84244350  0.87005454  1
  O  O186  1  0.46630617  0.16676539  0.36972827  1
  O  O187  1  0.46422121  0.16474120  0.86863463  1
  O  O188  1  0.48146342  0.51768346  0.37759622  1
  O  O189  1  0.46524895  0.51338075  0.86566672  1
  O  O190  1  0.46633600  0.84098892  0.37500424  1
  O  O191  1  0.46734704  0.84368483  0.88317415  1
  O  O192  1  0.81715474  0.17547843  0.37849384  1
  O  O193  1  0.79953639  0.16128733  0.86506041  1
  O  O194  1  0.81817717  0.49733955  0.38346606  1
  O  O195  1  0.79888373  0.51601493  0.87267993  1
  O  O196  1  0.80010979  0.83641708  0.37508390  1
  O  O197  1  0.81529408  0.84830616  0.87923905  1
  O  O198  1  0.01169069  -0.01097717  0.37067351  1
  O  O199  1  0.03302684  -0.00598609  0.86666915  1
  O  O200  1  0.02940084  0.33127060  0.37246605  1
  O  O201  1  0.03146403  0.33532732  0.88235349  1
  O  O202  1  0.01364723  0.68293433  0.38281744  1
  O  O203  1  0.02050618  0.67217524  0.86805896  1
  O  O204  1  0.35639998  0.01187172  0.37452455  1
  O  O205  1  0.36655865  0.00883522  0.87027098  1
  O  O206  1  0.34972591  0.32287130  0.37333048  1
  O  O207  1  0.35573806  0.34462719  0.86483490  1
  O  O208  1  0.37013373  0.69048824  0.37704983  1
  O  O209  1  0.36731327  0.68177639  0.87334231  1
  O  O210  1  0.68527631  -0.00892674  0.37496721  1
  O  O211  1  0.69787803  0.01105565  0.86941016  1
  O  O212  1  0.70505639  0.33326975  0.37561922  1
  O  O213  1  0.68628485  0.34023163  0.86482498  1
  O  O214  1  0.68465732  0.68765324  0.36784537  1
  O  O215  1  0.70066606  0.67166313  0.87442084  1
  O  O216  1  0.07343290  0.08918675  0.01662682  1
  O  O217  1  0.08083491  0.09162582  0.50883251  1
  O  O218  1  0.06398659  0.43149745  0.02327337  1
  O  O219  1  0.07115301  0.41789239  0.51990258  1
  O  O220  1  0.07315268  0.76293238  0.03342293  1
  O  O221  1  0.06149630  0.76250762  0.52158604  1
  O  O222  1  0.41290177  0.08134690  0.02714611  1
  O  O223  1  0.40335414  0.09034905  0.51193336  1
  O  O224  1  0.39669756  0.43468416  -0.00007069  1
  O  O225  1  0.40912301  0.42560710  0.52314949  1
  O  O226  1  0.39761482  0.76948985  0.02221532  1
  O  O227  1  0.40578248  0.77349784  0.52926018  1
  O  O228  1  0.73080483  0.09627501  0.02548725  1
  O  O229  1  0.74640274  0.09510764  0.52915483  1
  O  O230  1  0.73708013  0.43164704  0.00679384  1
  O  O231  1  0.74123181  0.43398979  0.52669233  1
  O  O232  1  0.73436367  0.76897832  0.02421662  1
  O  O233  1  0.73350043  0.77236401  0.52493326  1
  O  O234  1  0.09222859  0.26678321  0.01478927  1
  O  O235  1  0.10364477  0.26473186  0.51745859  1
  O  O236  1  0.09703103  0.59793346  0.02775032  1
  O  O237  1  0.08230521  0.59675052  0.51426321  1
  O  O238  1  0.10143902  0.92999992  0.02202757  1
  O  O239  1  0.08409085  0.91787817  0.52759818  1
  O  O240  1  0.42922406  0.25864730  0.01665411  1
  O  O241  1  0.43269733  0.26475367  0.52951604  1
  O  O242  1  0.43084368  0.60881585  0.00266804  1
  O  O243  1  0.43508661  0.60658453  0.52723199  1
  O  O244  1  0.43146238  0.92252953  0.03327644  1
  O  O245  1  0.42544292  0.92578320  0.52418242  1
  O  O246  1  0.75975387  0.25447957  0.01370482  1
  O  O247  1  0.76384877  0.25345672  0.52040771  1
  O  O248  1  0.76289270  0.61153578  0.01889837  1
  O  O249  1  0.75893164  0.58932708  0.51677608  1
  O  O250  1  0.76092343  0.92218196  0.01684657  1
  O  O251  1  0.76749066  0.92596979  0.53227392  1
  O  O252  1  0.24750016  0.07222880  0.26882092  1
  O  O253  1  0.24458878  0.06959921  0.77479985  1
  O  O254  1  0.24041141  0.39165785  0.27516962  1
  O  O255  1  0.24151397  0.40396389  0.77457206  1
  O  O256  1  0.23811725  0.74975309  0.27486176  1
  O  O257  1  0.24864002  0.74760603  0.77766124  1
  O  O258  1  0.56612687  0.07315106  0.26492664  1
  O  O259  1  0.56913848  0.07250484  0.78120354  1
  O  O260  1  0.57585304  0.41040545  0.26876070  1
  O  O261  1  0.57371566  0.40876046  0.77466487  1
  O  O262  1  0.56786825  0.74394488  0.27779446  1
  O  O263  1  0.56902711  0.73267516  0.77607375  1
  O  O264  1  0.90953877  0.06849468  0.26868135  1
  O  O265  1  0.89707510  0.06497967  0.76928234  1
  O  O266  1  0.90533106  0.39435543  0.27246384  1
  O  O267  1  0.90979628  0.40983190  0.76507073  1
  O  O268  1  0.90684890  0.74971004  0.27107585  1
  O  O269  1  0.90637414  0.73569277  0.77110170  1
  O  O270  1  0.26626526  0.23456457  0.27116894  1
  O  O271  1  0.26949166  0.24230572  0.77528772  1
  O  O272  1  0.25814644  0.57937614  0.26857641  1
  O  O273  1  0.27058442  0.57195869  0.77377251  1
  O  O274  1  0.26354751  0.90214753  0.27841049  1
  O  O275  1  0.26444492  0.90670285  0.77734556  1
  O  O276  1  0.58601333  0.23407536  0.26760207  1
  O  O277  1  0.59821172  0.23032034  0.77353567  1
  O  O278  1  0.59726284  0.58960845  0.26679844  1
  O  O279  1  0.59365126  0.57146023  0.78399402  1
  O  O280  1  0.59303450  0.89653270  0.27066663  1
  O  O281  1  0.59168705  0.91494685  0.77512531  1
  O  O282  1  0.92690260  0.23914946  0.27303242  1
  O  O283  1  0.91776473  0.23436920  0.76247917  1
  O  O284  1  0.92816555  0.57215441  0.26856957  1
  O  O285  1  0.92283964  0.58385305  0.76792785  1
  O  O286  1  0.93289110  0.89579192  0.26533732  1
  O  O287  1  0.92297782  0.91214804  0.76749826  1
  O  O288  1  0.26239040  0.23201329  0.47658337  1
  O  O289  1  0.26587558  0.23296358  0.97100630  1
  O  O290  1  0.25772305  0.57782984  0.48868116  1
  O  O291  1  0.27420098  0.57399927  0.97378424  1
  O  O292  1  0.26591737  0.90890132  0.48053690  1
  O  O293  1  0.26941919  0.89787909  0.97303822  1
  O  O294  1  0.60039895  0.23619651  0.49118449  1
  O  O295  1  0.60100611  0.22796446  0.97382950  1
  O  O296  1  0.59470874  0.58128956  0.48385345  1
  O  O297  1  0.60081308  0.58066291  0.96886617  1
  O  O298  1  0.59869021  0.89312316  0.48327433  1
  O  O299  1  0.58578846  0.90164171  0.98133405  1
  O  O300  1  0.92564930  0.24240366  0.47754165  1
  O  O301  1  0.93300103  0.24122084  0.98501791  1
  O  O302  1  0.92466365  0.57525452  0.48661203  1
  O  O303  1  0.92160303  0.58060409  0.96867052  1
  O  O304  1  0.92632897  0.89627161  0.47990641  1
  O  O305  1  0.92801049  0.89660546  0.99347512  1
  O  O306  1  0.24353699  0.07470691  0.47341233  1
  O  O307  1  0.23686032  0.06411416  0.96442641  1
  O  O308  1  0.23055139  0.39517116  0.48770735  1
  O  O309  1  0.23412661  0.39905276  0.97215880  1
  O  O310  1  0.24479533  0.74994910  0.47450824  1
  O  O311  1  0.24410829  0.73592533  0.98116103  1
  O  O312  1  0.57664094  0.07427447  0.49213532  1
  O  O313  1  0.56903898  0.06592964  0.96560951  1
  O  O314  1  0.57372715  0.40681658  0.49413775  1
  O  O315  1  0.57817613  0.41389571  0.97485042  1
  O  O316  1  0.56140603  0.74173360  0.47539649  1
  O  O317  1  0.56588677  0.73692120  0.97412846  1
  O  O318  1  0.90361078  0.07451168  0.49122182  1
  O  O319  1  0.89842017  0.06230938  0.97127722  1
  O  O320  1  0.90162551  0.39853893  0.47971282  1
  O  O321  1  0.91340256  0.40256837  0.98235998  1
  O  O322  1  0.90272586  0.74310480  0.47992844  1
  O  O323  1  0.89267544  0.73862407  0.97951527  1
  O  O324  1  0.09052840  0.26336877  0.23828056  1
  O  O325  1  0.09993785  0.26625140  0.72782687  1
  O  O326  1  0.09361760  0.59777962  0.21951205  1
  O  O327  1  0.09757497  0.59391449  0.73147158  1
  O  O328  1  0.09431923  0.92385928  0.21853986  1
  O  O329  1  0.08889319  0.92167862  0.72264382  1
  O  O330  1  0.42674642  0.25384120  0.23183472  1
  O  O331  1  0.43329900  0.26520100  0.72430507  1
  O  O332  1  0.43036991  0.60107708  0.24337296  1
  O  O333  1  0.43719877  0.60233996  0.72733594  1
  O  O334  1  0.42693947  0.92739729  0.22231355  1
  O  O335  1  0.42239984  0.92387068  0.73272404  1
  O  O336  1  0.76335528  0.24864662  0.23571108  1
  O  O337  1  0.74978264  0.25270480  0.71899370  1
  O  O338  1  0.75918474  0.61017505  0.22517012  1
  O  O339  1  0.74596048  0.59232127  0.72737035  1
  O  O340  1  0.75652586  0.91704435  0.22419097  1
  O  O341  1  0.75858856  0.93225578  0.72737273  1
  O  O342  1  0.07719294  0.08014821  0.23532747  1
  O  O343  1  0.07217337  0.08302375  0.73193892  1
  O  O344  1  0.06078160  0.42733886  0.22637654  1
  O  O345  1  0.08483533  0.42560698  0.73443687  1
  O  O346  1  0.07766953  0.76445951  0.21998167  1
  O  O347  1  0.07406525  0.76508298  0.72431018  1
  O  O348  1  0.40857679  0.08452660  0.22397073  1
  O  O349  1  0.40365004  0.09723618  0.73268852  1
  O  O350  1  0.40333968  0.41758466  0.24388813  1
  O  O351  1  0.41433965  0.42352492  0.72058970  1
  O  O352  1  0.40075165  0.77509756  0.22918815  1
  O  O353  1  0.40483280  0.76309227  0.72674888  1
  O  O354  1  0.74306038  0.09525334  0.22976370  1
  O  O355  1  0.73290174  0.09448369  0.71957712  1
  O  O356  1  0.74102963  0.43131736  0.22800519  1
  O  O357  1  0.72522902  0.42733406  0.72658154  1
  O  O358  1  0.73430763  0.76985198  0.22362772  1
  O  O359  1  0.72677626  0.76168313  0.72503246  1
