# generated using pymatgen
data_BaLaInIrO6
_symmetry_space_group_name_H-M   'P 1'
_cell_length_a   17.50906018
_cell_length_b   17.53132382
_cell_length_c   16.47638171
_cell_angle_alpha   90.00604120
_cell_angle_beta   90.02719325
_cell_angle_gamma   90.03933820
_symmetry_Int_Tables_number   1
_chemical_formula_structural   BaLaInIrO6
_chemical_formula_sum   'Ba36 La36 In36 Ir36 O216'
_cell_volume   5057.53897176
_cell_formula_units_Z   36
loop_
 _symmetry_equiv_pos_site_id
 _symmetry_equiv_pos_as_xyz
  1  'x, y, z'
loop_
 _atom_site_type_symbol
 _atom_site_label
 _atom_site_symmetry_multiplicity
 _atom_site_fract_x
 _atom_site_fract_y
 _atom_site_fract_z
 _atom_site_occupancy
  Ba  Ba0  1  0.66122169  0.16083455  0.37640668  1
  Ba  Ba1  1  0.50022319  0.99148294  0.87673301  1
  Ba  Ba2  1  0.83086254  0.65726438  0.87976741  1
  Ba  Ba3  1  0.66279634  0.82271873  0.37202539  1
  Ba  Ba4  1  0.33110803  0.82330565  0.87549576  1
  Ba  Ba5  1  0.16814355  0.65725367  0.87297102  1
  Ba  Ba6  1  0.66408472  0.82339438  0.87573111  1
  Ba  Ba7  1  0.00353504  0.49339766  0.88078917  1
  Ba  Ba8  1  0.83480722  0.32831371  0.87454537  1
  Ba  Ba9  1  0.33726534  0.17575405  0.62152732  1
  Ba  Ba10  1  0.83603818  0.34262828  0.62423512  1
  Ba  Ba11  1  0.50237810  0.32535202  0.37275978  1
  Ba  Ba12  1  0.50188927  0.00381208  0.62409365  1
  Ba  Ba13  1  0.66855243  0.50598094  0.62236787  1
  Ba  Ba14  1  0.16916222  0.32659722  0.87538708  1
  Ba  Ba15  1  0.99987209  0.50494019  0.12152661  1
  Ba  Ba16  1  -0.00378220  0.16065297  0.87725682  1
  Ba  Ba17  1  0.16475380  0.67070547  0.12081343  1
  Ba  Ba18  1  0.33986503  0.50902082  0.62764124  1
  Ba  Ba19  1  0.16804542  0.33490477  0.12447609  1
  Ba  Ba20  1  0.50235574  0.32673042  0.87352292  1
  Ba  Ba21  1  0.33404015  0.83943551  0.62746192  1
  Ba  Ba22  1  0.33554027  0.17844724  0.12052803  1
  Ba  Ba23  1  -0.00091573  0.15815363  0.37540450  1
  Ba  Ba24  1  0.33087931  0.82553354  0.37882707  1
  Ba  Ba25  1  0.16450416  0.99298052  0.88021425  1
  Ba  Ba26  1  0.66186660  0.50641371  0.12755584  1
  Ba  Ba27  1  0.33428956  0.15882969  0.37373636  1
  Ba  Ba28  1  0.99963722  0.17000743  0.12068257  1
  Ba  Ba29  1  0.16521181  0.00685191  0.12427661  1
  Ba  Ba30  1  0.33199747  0.48911435  0.87204346  1
  Ba  Ba31  1  0.66586780  0.84411528  0.12347415  1
  Ba  Ba32  1  0.83079715  0.01298704  0.12244344  1
  Ba  Ba33  1  0.49928408  0.67497215  0.62490540  1
  Ba  Ba34  1  0.49989360  0.99170931  0.37583739  1
  Ba  Ba35  1  0.66435958  0.84010942  0.62232999  1
  La  La36  1  0.82688120  0.67578677  0.62496757  1
  La  La37  1  0.33435691  0.85055312  0.12623551  1
  La  La38  1  0.67284603  0.18421522  0.12565535  1
  La  La39  1  0.66334849  0.48614108  0.37477177  1
  La  La40  1  0.83599366  0.97837316  0.37445617  1
  La  La41  1  0.49635093  0.01951463  0.12650460  1
  La  La42  1  0.50321891  0.65565968  0.37890173  1
  La  La43  1  0.49726025  0.34333371  0.12256817  1
  La  La44  1  0.17153369  0.31625033  0.37464802  1
  La  La45  1  0.66166281  0.15350866  0.87566429  1
  La  La46  1  0.83690595  0.98599613  0.87634267  1
  La  La47  1  0.17707133  0.98767705  0.37646152  1
  La  La48  1  1.00589731  0.84787019  0.11898584  1
  La  La49  1  0.16831585  0.67905835  0.63074315  1
  La  La50  1  0.83255303  0.34493080  0.12333505  1
  La  La51  1  0.32944660  0.48122783  0.37829088  1
  La  La52  1  0.16413406  0.35435241  0.62485034  1
  La  La53  1  0.82796573  0.32847878  0.36808042  1
  La  La54  1  0.34044837  0.50959494  0.11770796  1
  La  La55  1  -0.00468006  0.81537150  0.87831681  1
  La  La56  1  0.82304868  0.01720148  0.62441634  1
  La  La57  1  0.82948498  0.67620734  0.12310888  1
  La  La58  1  0.32925628  0.15840632  0.87189075  1
  La  La59  1  0.50392163  0.65524169  0.86896720  1
  La  La60  1  -0.00389374  0.81589428  0.36904700  1
  La  La61  1  0.66864826  0.18051109  0.62342693  1
  La  La62  1  0.66360796  0.49356512  0.87174279  1
  La  La63  1  1.00160946  0.51327869  0.63171128  1
  La  La64  1  0.48806399  0.68490733  0.12441409  1
  La  La65  1  0.49662318  0.34637564  0.61984100  1
  La  La66  1  0.16455863  0.01584476  0.62662016  1
  La  La67  1  0.00149689  0.48943135  0.36836971  1
  La  La68  1  0.82833647  0.65945165  0.36815103  1
  La  La69  1  0.17246568  0.64921858  0.38021944  1
  La  La70  1  1.00748850  0.84783555  0.62862172  1
  La  La71  1  1.00398174  0.18679148  0.62682810  1
  In  In72  1  0.00193465  0.33621077  0.75185178  1
  In  In73  1  -0.00347002  0.00242749  0.74727112  1
  In  In74  1  -0.00062369  -0.00057595  0.49980779  1
  In  In75  1  0.66852744  -0.00017348  0.75204687  1
  In  In76  1  0.50023297  0.50024123  -0.00207605  1
  In  In77  1  0.83147983  0.83467169  0.00235711  1
  In  In78  1  0.66895698  0.00071482  0.49899152  1
  In  In79  1  0.33473905  0.00073754  0.24995180  1
  In  In80  1  0.33437859  0.33038332  0.74805822  1
  In  In81  1  0.00217629  -0.00189080  0.25459525  1
  In  In82  1  0.16623538  0.16466023  0.24826867  1
  In  In83  1  0.83269352  0.83116179  0.24682676  1
  In  In84  1  0.33240342  0.66606016  0.25371470  1
  In  In85  1  -0.00092912  0.33233117  0.00152285  1
  In  In86  1  0.66787543  0.66609407  0.74819955  1
  In  In87  1  0.00142294  0.33397484  0.25123400  1
  In  In88  1  0.66832613  0.33366761  0.75064627  1
  In  In89  1  0.16183139  0.83226907  0.50194670  1
  In  In90  1  0.00142573  0.33752922  0.49908913  1
  In  In91  1  0.66231416  0.66484258  0.00449934  1
  In  In92  1  -0.00003595  0.66284777  0.49973880  1
  In  In93  1  0.16423425  0.82692170  0.24901997  1
  In  In94  1  0.83484929  0.16735398  0.49851236  1
  In  In95  1  0.49763279  0.50282829  0.25189131  1
  In  In96  1  0.16690993  0.83672889  0.75277533  1
  In  In97  1  0.49735679  0.83315220  0.75224542  1
  In  In98  1  0.33264497  -0.00083059  0.50291515  1
  In  In99  1  0.83855276  0.82853857  0.49997391  1
  In  In100  1  0.33515765  0.00029932  -0.00241128  1
  In  In101  1  0.83646089  0.50106036  0.49727828  1
  In  In102  1  0.17152379  0.49917601  0.00086355  1
  In  In103  1  0.16959844  0.49809033  0.25015686  1
  In  In104  1  0.83860237  0.83370599  0.74681199  1
  In  In105  1  0.49966197  0.16809439  0.50118228  1
  In  In106  1  0.83170809  0.16652353  0.25262049  1
  In  In107  1  0.66654773  0.00309264  0.24695073  1
  Ir  Ir108  1  0.33529341  0.66970336  -0.00010388  1
  Ir  Ir109  1  0.16956840  0.50391054  0.74486698  1
  Ir  Ir110  1  0.33476578  0.33568859  0.25028769  1
  Ir  Ir111  1  0.66577183  0.33686306  0.24654808  1
  Ir  Ir112  1  0.16841237  0.16580381  -0.00598671  1
  Ir  Ir113  1  0.83022833  0.49966443  0.00514042  1
  Ir  Ir114  1  0.32956476  0.33551415  0.49843107  1
  Ir  Ir115  1  0.49858879  0.83358218  0.00514379  1
  Ir  Ir116  1  0.49809279  0.50069375  0.49862551  1
  Ir  Ir117  1  -0.00010676  -0.00109064  -0.00416407  1
  Ir  Ir118  1  0.50527605  0.17106317  -0.00204394  1
  Ir  Ir119  1  0.16879510  0.16701731  0.74731275  1
  Ir  Ir120  1  0.33532686  0.66141493  0.50011801  1
  Ir  Ir121  1  0.50065773  0.49932412  0.74769034  1
  Ir  Ir122  1  0.66376417  0.33811137  0.49975092  1
  Ir  Ir123  1  0.82908272  0.50424330  0.25097671  1
  Ir  Ir124  1  -0.00346984  0.66324837  0.75108227  1
  Ir  Ir125  1  0.66751490  0.66447422  0.49624504  1
  Ir  Ir126  1  0.66838354  0.33398971  0.00070678  1
  Ir  Ir127  1  0.83616850  0.50270360  0.75236003  1
  Ir  Ir128  1  0.66246858  0.66382568  0.25055851  1
  Ir  Ir129  1  0.33625795  0.32990112  0.00173406  1
  Ir  Ir130  1  0.16643884  0.17094719  0.50738299  1
  Ir  Ir131  1  0.50173730  0.16770146  0.75358677  1
  Ir  Ir132  1  0.16631321  0.82864692  0.00023264  1
  Ir  Ir133  1  0.49833525  0.82628065  0.49571216  1
  Ir  Ir134  1  0.66344453  0.00463564  -0.00036597  1
  Ir  Ir135  1  0.16819162  0.50430940  0.50383487  1
  Ir  Ir136  1  0.50335357  0.17251345  0.24313265  1
  Ir  Ir137  1  0.49937245  0.83102158  0.24832736  1
  Ir  Ir138  1  0.33390185  0.66358327  0.75077251  1
  Ir  Ir139  1  0.33208708  0.00524209  0.75137225  1
  Ir  Ir140  1  -0.00339609  0.66515050  0.00163987  1
  Ir  Ir141  1  -0.00242314  0.66310028  0.24791436  1
  Ir  Ir142  1  0.83143689  0.16592904  0.75084639  1
  Ir  Ir143  1  0.82682803  0.16701638  -0.00289569  1
  O  O144  1  0.31799283  0.34436059  0.12735701  1
  O  O145  1  0.30135798  0.33363329  0.61842965  1
  O  O146  1  0.31730973  0.65640290  0.12061317  1
  O  O147  1  0.30416476  0.66150668  0.62553099  1
  O  O148  1  0.31980555  0.99345409  0.12288634  1
  O  O149  1  0.30366305  1.00074838  0.63214505  1
  O  O150  1  0.63495991  0.32561149  0.12320859  1
  O  O151  1  0.63570586  0.33162520  0.62174114  1
  O  O152  1  0.62583820  0.65943433  0.13287193  1
  O  O153  1  0.64901027  0.66009928  0.61619980  1
  O  O154  1  0.63102322  1.00139200  0.11716374  1
  O  O155  1  0.65333080  0.99708098  0.62623014  1
  O  O156  1  0.96863279  0.32942537  0.12618397  1
  O  O157  1  0.98793964  0.33271810  0.62666511  1
  O  O158  1  0.96432433  0.65720683  0.12531010  1
  O  O159  1  0.96636982  0.65000846  0.63156214  1
  O  O160  1  0.97939558  0.99101271  0.11618641  1
  O  O161  1  0.95705034  0.98656842  0.62499106  1
  O  O162  1  0.18585855  0.16806205  0.11450112  1
  O  O163  1  0.19143269  0.15661269  0.62811427  1
  O  O164  1  0.20657040  0.50239216  0.12688274  1
  O  O165  1  0.19273361  0.49566104  0.62327567  1
  O  O166  1  0.19770541  0.82344252  0.11803836  1
  O  O167  1  0.18502189  0.81375067  0.62791884  1
  O  O168  1  0.53507602  0.16689504  0.11947404  1
  O  O169  1  0.53166386  0.16553517  0.63445824  1
  O  O170  1  0.50851292  0.48388525  0.12540204  1
  O  O171  1  0.52096430  0.48497011  0.62265761  1
  O  O172  1  0.52067599  0.81983015  0.12776356  1
  O  O173  1  0.51259822  0.82995031  0.61694919  1
  O  O174  1  0.84705732  0.16875198  0.11745657  1
  O  O175  1  0.86539998  0.15477792  0.63300903  1
  O  O176  1  0.85280507  0.48587849  0.12862331  1
  O  O177  1  0.86285522  0.50051765  0.63053000  1
  O  O178  1  0.86799413  0.82113100  0.12452281  1
  O  O179  1  0.87368430  0.81003128  0.62300234  1
  O  O180  1  0.14925869  0.17983824  0.38784172  1
  O  O181  1  0.14690483  0.16872063  0.86828111  1
  O  O182  1  0.13712982  0.51265417  0.38533024  1
  O  O183  1  0.15602098  0.50050047  0.86620921  1
  O  O184  1  0.13180056  0.84407202  0.37604692  1
  O  O185  1  0.13470114  0.83128457  0.87972293  1
  O  O186  1  0.48497708  0.17405431  0.36408421  1
  O  O187  1  0.46901709  0.17259627  0.87616825  1
  O  O188  1  0.46657080  0.51089337  0.37942375  1
  O  O189  1  0.48211460  0.50872945  0.86874055  1
  O  O190  1  0.47963817  0.82082879  0.36919860  1
  O  O191  1  0.47991301  0.83431072  0.88628021  1
  O  O192  1  0.80701803  0.19344611  0.37694404  1
  O  O193  1  0.79762982  0.17179219  0.87349541  1
  O  O194  1  0.79967468  0.51920530  0.36947714  1
  O  O195  1  0.80073674  0.50361763  0.87931253  1
  O  O196  1  0.81232929  0.83264155  0.37338335  1
  O  O197  1  0.81604886  0.84433294  0.87598363  1
  O  O198  1  0.04632193  0.00584004  0.37967814  1
  O  O199  1  0.01494255  0.00497256  0.87652428  1
  O  O200  1  0.03699049  0.35269634  0.37938038  1
  O  O201  1  0.01563680  0.33188559  0.87510758  1
  O  O202  1  0.03261709  0.67315349  0.36750999  1
  O  O203  1  0.02195510  0.67680468  0.87662612  1
  O  O204  1  0.34751429  -0.00014594  0.37523929  1
  O  O205  1  0.35230731  0.01536087  0.87174814  1
  O  O206  1  0.35525727  0.34039372  0.37446599  1
  O  O207  1  0.35197250  0.32398755  0.88054841  1
  O  O208  1  0.36640744  0.66619003  0.38204099  1
  O  O209  1  0.36625016  0.66767821  0.87467572  1
  O  O210  1  0.69995129  0.00388864  0.37321920  1
  O  O211  1  0.69869883  0.01327785  0.88032229  1
  O  O212  1  0.69210037  0.34566902  0.37231208  1
  O  O213  1  0.68629130  0.35114681  0.88033568  1
  O  O214  1  0.69420215  0.66744175  0.37312718  1
  O  O215  1  0.67960992  0.66083158  0.87614127  1
  O  O216  1  0.07752857  0.08989033  0.01334422  1
  O  O217  1  0.07246501  0.10555468  0.53409253  1
  O  O218  1  0.08220127  0.42053573  0.01712963  1
  O  O219  1  0.07418553  0.44008483  0.53093980  1
  O  O220  1  0.06672719  0.76115145  0.02192267  1
  O  O221  1  0.06367802  0.76134843  0.52735471  1
  O  O222  1  0.42118827  0.09406266  0.01968774  1
  O  O223  1  0.40833546  0.09148759  0.51466720  1
  O  O224  1  0.40459948  0.42338782  0.01967834  1
  O  O225  1  0.40743477  0.42449941  0.52079924  1
  O  O226  1  0.40172304  0.76786628  0.02940490  1
  O  O227  1  0.40446584  0.75349763  0.51867817  1
  O  O228  1  0.72688265  0.10282129  0.01798237  1
  O  O229  1  0.73896251  0.10180001  0.53363341  1
  O  O230  1  0.74339049  0.42113670  0.03116959  1
  O  O231  1  0.73512440  0.42847790  0.50470850  1
  O  O232  1  0.74531073  0.75109023  0.02437438  1
  O  O233  1  0.73866002  0.75157399  0.51893238  1
  O  O234  1  0.09246186  0.24874081  0.00978922  1
  O  O235  1  0.10629520  0.26802153  0.52688179  1
  O  O236  1  0.08534420  0.59116489  0.01098953  1
  O  O237  1  0.10836966  0.60148382  0.52612435  1
  O  O238  1  0.09020812  0.91867820  0.02263389  1
  O  O239  1  0.09427272  0.93164876  0.54193622  1
  O  O240  1  0.43618427  0.26477121  0.02374531  1
  O  O241  1  0.42582050  0.26934443  0.52176837  1
  O  O242  1  0.42844867  0.60186965  0.01975589  1
  O  O243  1  0.42918995  0.59205130  0.51886960  1
  O  O244  1  0.43366530  0.92665545  0.02808220  1
  O  O245  1  0.42574923  0.91340951  0.50930094  1
  O  O246  1  0.75972421  0.26266357  0.02649682  1
  O  O247  1  0.74912817  0.26478798  0.52404770  1
  O  O248  1  0.76371329  0.59096882  0.02995275  1
  O  O249  1  0.76625128  0.60133933  0.51525562  1
  O  O250  1  0.75389229  0.93389496  0.01405794  1
  O  O251  1  0.77324902  0.93191972  0.51865152  1
  O  O252  1  0.23548194  0.06994960  0.27383128  1
  O  O253  1  0.23977910  0.07607014  0.77231755  1
  O  O254  1  0.24102352  0.39943537  0.28152025  1
  O  O255  1  0.23820950  0.40962178  0.75610419  1
  O  O256  1  0.22973718  0.72730462  0.27682233  1
  O  O257  1  0.24277811  0.73438691  0.76220234  1
  O  O258  1  0.56570463  0.07663631  0.25635933  1
  O  O259  1  0.57439742  0.08233269  0.77682426  1
  O  O260  1  0.57746242  0.41038906  0.26740512  1
  O  O261  1  0.57478122  0.41329483  0.76368038  1
  O  O262  1  0.56337901  0.72849056  0.27075706  1
  O  O263  1  0.56719877  0.73401491  0.77118409  1
  O  O264  1  0.89730406  0.06489239  0.27586381  1
  O  O265  1  0.89282501  0.07008781  0.77526402  1
  O  O266  1  0.89799797  0.41412416  0.27760000  1
  O  O267  1  0.90687903  0.41540921  0.76647049  1
  O  O268  1  0.90560877  0.72835175  0.27085245  1
  O  O269  1  0.91115610  0.73242773  0.77378194  1
  O  O270  1  0.26636025  0.24436459  0.26281204  1
  O  O271  1  0.26395444  0.23199605  0.76951025  1
  O  O272  1  0.26323465  0.56763119  0.28735593  1
  O  O273  1  0.26210221  0.57411037  0.76508625  1
  O  O274  1  0.26131186  0.90091020  0.25758974  1
  O  O275  1  0.26171664  0.91576333  0.76949299  1
  O  O276  1  0.59934338  0.24172626  0.25807483  1
  O  O277  1  0.59591028  0.23431068  0.77416661  1
  O  O278  1  0.59563329  0.57429163  0.28270530  1
  O  O279  1  0.59222440  0.56809067  0.76868610  1
  O  O280  1  0.58771863  0.90262714  0.26250420  1
  O  O281  1  0.59173710  0.90715801  0.76571198  1
  O  O282  1  0.91771274  0.25113156  0.27637808  1
  O  O283  1  0.92361268  0.23449597  0.75825436  1
  O  O284  1  0.92456194  0.57117261  0.27969968  1
  O  O285  1  0.93200544  0.56887107  0.77011405  1
  O  O286  1  0.92944692  0.90176057  0.28069405  1
  O  O287  1  0.94376191  0.89294426  0.77181124  1
  O  O288  1  0.25869611  0.24450474  0.47708736  1
  O  O289  1  0.26490120  0.23492910  0.97590176  1
  O  O290  1  0.26661719  0.56756342  0.47383837  1
  O  O291  1  0.27044339  0.57500740  0.98539713  1
  O  O292  1  0.25054800  0.91179633  0.48129882  1
  O  O293  1  0.25626482  0.90208816  0.98796284  1
  O  O294  1  0.59242173  0.24978068  0.49092663  1
  O  O295  1  0.60142412  0.24003238  0.97401233  1
  O  O296  1  0.59289188  0.57126346  0.46897543  1
  O  O297  1  0.59672067  0.56650135  0.97468794  1
  O  O298  1  0.58637343  0.89888454  0.48274290  1
  O  O299  1  0.59447971  0.90498152  0.98322662  1
  O  O300  1  0.93589180  0.23455152  0.50062899  1
  O  O301  1  0.91495801  0.23734878  0.98341067  1
  O  O302  1  0.94608380  0.55547755  0.48340609  1
  O  O303  1  0.92159110  0.57303845  0.98161644  1
  O  O304  1  0.94120902  0.89193610  0.47028692  1
  O  O305  1  0.93089558  0.90812024  0.97540722  1
  O  O306  1  0.22511150  0.07239528  0.48718323  1
  O  O307  1  0.24674062  0.08397752  0.97840227  1
  O  O308  1  0.23314458  0.40561291  0.47494611  1
  O  O309  1  0.24958652  0.40141089  0.98619783  1
  O  O310  1  0.23857722  0.72540520  0.48114007  1
  O  O311  1  0.24056445  0.73839364  0.97963972  1
  O  O312  1  0.57572243  0.07693044  0.48363010  1
  O  O313  1  0.57658249  0.08073269  0.97300576  1
  O  O314  1  0.57421491  0.41488484  0.47477317  1
  O  O315  1  0.57958361  0.40494327  0.98545611  1
  O  O316  1  0.56907597  0.72988378  0.47606253  1
  O  O317  1  0.55767794  0.73406379  0.98598509  1
  O  O318  1  0.89637774  0.06197903  0.47109193  1
  O  O319  1  0.89734184  0.06950207  0.97396811  1
  O  O320  1  0.89902176  0.40069718  0.46716223  1
  O  O321  1  0.90086050  0.41119694  0.99012699  1
  O  O322  1  0.89930976  0.72256427  0.46895667  1
  O  O323  1  0.91361516  0.74097020  0.98348734  1
  O  O324  1  0.10064249  0.26458205  0.24889685  1
  O  O325  1  0.10337915  0.26050974  0.72059362  1
  O  O326  1  0.08857598  0.59643554  0.23637818  1
  O  O327  1  0.09410217  0.59549063  0.72125731  1
  O  O328  1  0.08566599  0.91421725  0.21928024  1
  O  O329  1  0.09694369  0.93252323  0.72219226  1
  O  O330  1  0.43448862  0.27211644  0.22409903  1
  O  O331  1  0.43714894  0.26129362  0.72446750  1
  O  O332  1  0.43167704  0.60103291  0.22530030  1
  O  O333  1  0.43199613  0.59415648  0.73873932  1
  O  O334  1  0.43537275  0.92491955  0.22128501  1
  O  O335  1  0.41870467  0.93115804  0.73745727  1
  O  O336  1  0.75849663  0.27177241  0.22189831  1
  O  O337  1  0.76010786  0.25523489  0.72503766  1
  O  O338  1  0.76216787  0.59968309  0.22490374  1
  O  O339  1  0.76908434  0.59309907  0.72801541  1
  O  O340  1  0.75893165  0.92617365  0.23054597  1
  O  O341  1  0.77679253  0.93965411  0.73599013  1
  O  O342  1  0.07045975  0.09427046  0.23167296  1
  O  O343  1  0.07257138  0.10079544  0.72268653  1
  O  O344  1  0.06955271  0.43430206  0.23951915  1
  O  O345  1  0.07917661  0.43403786  0.72350764  1
  O  O346  1  0.05802631  0.75744282  0.22146386  1
  O  O347  1  0.06469320  0.75533030  0.72903642  1
  O  O348  1  0.41574812  0.09868158  0.22530030  1
  O  O349  1  0.40428729  0.10072426  0.73793971  1
  O  O350  1  0.39341962  0.43474092  0.23818254  1
  O  O351  1  0.41632189  0.42101965  0.73164538  1
  O  O352  1  0.40236625  0.76735354  0.22472698  1
  O  O353  1  0.40338703  0.75249195  0.73740637  1
  O  O354  1  0.72967905  0.10594898  0.22408701  1
  O  O355  1  0.73736183  0.10394500  0.72807675  1
  O  O356  1  0.73593383  0.43246642  0.23637363  1
  O  O357  1  0.74511492  0.43234151  0.73874878  1
  O  O358  1  0.73901968  0.74675956  0.22555978  1
  O  O359  1  0.74719760  0.75532144  0.72582754  1
