# generated using pymatgen
data_BaLaInIrO6
_symmetry_space_group_name_H-M   'P 1'
_cell_length_a   17.53520713
_cell_length_b   17.55142783
_cell_length_c   16.48853246
_cell_angle_alpha   90.01829211
_cell_angle_beta   89.98462241
_cell_angle_gamma   90.01937029
_symmetry_Int_Tables_number   1
_chemical_formula_structural   BaLaInIrO6
_chemical_formula_sum   'Ba36 La36 In36 Ir36 O216'
_cell_volume   5074.64064634
_cell_formula_units_Z   36
loop_
 _symmetry_equiv_pos_site_id
 _symmetry_equiv_pos_as_xyz
  1  'x, y, z'
loop_
 _atom_site_type_symbol
 _atom_site_label
 _atom_site_symmetry_multiplicity
 _atom_site_fract_x
 _atom_site_fract_y
 _atom_site_fract_z
 _atom_site_occupancy
  Ba  Ba0  1  0.33200473  0.84332604  0.62410516  1
  Ba  Ba1  1  0.16150824  0.67548844  0.62826377  1
  Ba  Ba2  1  0.83045978  0.00783639  0.62649102  1
  Ba  Ba3  1  0.49866984  0.67130391  0.62154484  1
  Ba  Ba4  1  0.33293560  0.81916303  0.37470422  1
  Ba  Ba5  1  0.66576848  0.50518713  0.62200293  1
  Ba  Ba6  1  0.83026198  0.67563903  0.12250991  1
  Ba  Ba7  1  0.83628868  0.32850953  0.37658540  1
  Ba  Ba8  1  0.16451788  0.00748141  0.62697594  1
  Ba  Ba9  1  0.33143699  0.50630141  0.12465373  1
  Ba  Ba10  1  0.66272962  0.15202200  0.87800431  1
  Ba  Ba11  1  0.33417310  0.18449012  0.12138793  1
  Ba  Ba12  1  0.67135535  0.50852137  0.12312809  1
  Ba  Ba13  1  0.16637925  0.34810546  0.12013033  1
  Ba  Ba14  1  0.66681038  0.49536608  0.37347718  1
  Ba  Ba15  1  0.50417946  0.98783498  0.87383360  1
  Ba  Ba16  1  0.83118490  0.98588691  0.37231691  1
  Ba  Ba17  1  0.50377295  0.66000546  0.37321518  1
  Ba  Ba18  1  1.00083914  0.17012868  0.62628475  1
  Ba  Ba19  1  1.00076905  0.50537578  0.12553845  1
  Ba  Ba20  1  0.49893511  0.34642520  0.63167874  1
  Ba  Ba21  1  0.33256436  0.82138469  0.87514435  1
  Ba  Ba22  1  0.16917171  0.33200959  0.37151206  1
  Ba  Ba23  1  0.49411440  0.34851366  0.12193858  1
  Ba  Ba24  1  -0.00242246  0.15760048  0.87434661  1
  Ba  Ba25  1  0.33377708  0.84338644  0.12633684  1
  Ba  Ba26  1  0.83367030  0.65810097  0.37223999  1
  Ba  Ba27  1  1.00196617  0.17661045  0.12409950  1
  Ba  Ba28  1  0.16644634  0.99522614  0.87479226  1
  Ba  Ba29  1  0.83092809  0.65790005  0.87460113  1
  Ba  Ba30  1  0.99766131  0.50364172  0.62680188  1
  Ba  Ba31  1  0.50303772  0.32997105  0.37402162  1
  Ba  Ba32  1  0.83038128  0.00816356  0.12698372  1
  Ba  Ba33  1  0.83097526  0.67326387  0.62487981  1
  Ba  Ba34  1  0.82940032  0.32468827  0.87313849  1
  Ba  Ba35  1  0.83355074  0.33963340  0.12069364  1
  La  La36  1  1.00807524  0.84474904  0.62405678  1
  La  La37  1  0.50503687  0.31606817  0.87702198  1
  La  La38  1  0.66873890  0.84876837  0.62550972  1
  La  La39  1  0.66175247  0.81825554  0.87300927  1
  La  La40  1  0.33259471  0.15711149  0.37654428  1
  La  La41  1  0.16907846  0.64806246  0.87570601  1
  La  La42  1  -0.00364208  0.15043097  0.37497389  1
  La  La43  1  -0.00428142  0.82063948  0.37808675  1
  La  La44  1  0.33159613  0.48298515  0.87438937  1
  La  La45  1  0.82636808  0.34650310  0.62680279  1
  La  La46  1  0.50389807  0.65425698  0.87290978  1
  La  La47  1  0.66386697  0.15530034  0.37377538  1
  La  La48  1  0.16005421  0.01312007  0.12634603  1
  La  La49  1  0.33621323  0.17854229  0.63004845  1
  La  La50  1  0.49411694  0.01909834  0.62873634  1
  La  La51  1  0.66150380  0.48340556  0.87315221  1
  La  La52  1  0.16758747  0.34862542  0.62652608  1
  La  La53  1  0.33916079  0.49180350  0.37045884  1
  La  La54  1  -0.00503938  0.48194839  0.37444816  1
  La  La55  1  0.83563945  0.98554991  0.87741892  1
  La  La56  1  0.49660335  0.67485103  0.12538527  1
  La  La57  1  0.66397342  0.81567679  0.37364082  1
  La  La58  1  0.67147493  0.18085616  0.62795742  1
  La  La59  1  0.67148865  0.84291046  0.12294247  1
  La  La60  1  0.51053820  0.98551673  0.37830639  1
  La  La61  1  -0.00518428  0.82029643  0.87409333  1
  La  La62  1  1.00062850  0.84551586  0.12691377  1
  La  La63  1  0.34153431  0.51513829  0.62547973  1
  La  La64  1  -0.00239685  0.48704977  0.87367379  1
  La  La65  1  0.17283577  0.99010454  0.37550549  1
  La  La66  1  0.16953449  0.32003565  0.87235427  1
  La  La67  1  0.17106537  0.64803126  0.37891322  1
  La  La68  1  0.16175566  0.67640333  0.12190011  1
  La  La69  1  0.33240335  0.15517372  0.87685997  1
  La  La70  1  0.67461683  0.18063941  0.12823574  1
  La  La71  1  0.49375217  0.02008629  0.11971237  1
  In  In72  1  0.66460870  -0.00193296  0.24824921  1
  In  In73  1  0.33685720  0.00367886  0.49940765  1
  In  In74  1  0.49913271  0.16856647  0.24984711  1
  In  In75  1  0.49973406  0.83274742  0.00121794  1
  In  In76  1  0.16824107  0.16973940  0.25331527  1
  In  In77  1  0.66736639  0.33128015  0.49828695  1
  In  In78  1  0.83308403  0.83200459  0.49951878  1
  In  In79  1  0.16569116  0.83109824  0.75455771  1
  In  In80  1  0.83378498  0.16550492  0.25395506  1
  In  In81  1  0.16626813  0.83323954  0.00070620  1
  In  In82  1  0.33726656  0.00268507  0.24923954  1
  In  In83  1  0.66267252  0.33380837  0.00152450  1
  In  In84  1  0.49920491  0.49996946  0.49857056  1
  In  In85  1  0.00117627  0.32776815  0.50454670  1
  In  In86  1  0.16638463  0.17000575  0.49971981  1
  In  In87  1  -0.00175855  -0.00022271  0.49952573  1
  In  In88  1  0.16724338  0.50425266  0.24784966  1
  In  In89  1  0.83437362  0.50086918  0.24775282  1
  In  In90  1  0.83171521  0.16421975  -0.00161137  1
  In  In91  1  0.83456075  0.50107412  0.49912373  1
  In  In92  1  0.16614856  0.83257073  0.49914647  1
  In  In93  1  -0.00180674  0.66484505  0.75257577  1
  In  In94  1  0.50032419  0.83382720  0.50340299  1
  In  In95  1  0.50149183  0.83497978  0.24686622  1
  In  In96  1  0.49989860  0.17158192  0.50090533  1
  In  In97  1  -0.00210628  -0.00203482  0.00116283  1
  In  In98  1  0.16699639  0.83112646  0.25169194  1
  In  In99  1  0.33226022  0.66360345  0.00042434  1
  In  In100  1  0.83134032  0.83172866  0.74986485  1
  In  In101  1  0.50039722  0.83088742  0.74775306  1
  In  In102  1  0.00337910  0.33111779  0.25007103  1
  In  In103  1  -0.00133143  0.32966946  0.74889583  1
  In  In104  1  0.16853856  0.16862643  0.00019692  1
  In  In105  1  0.33416414  -0.00063069  0.75134569  1
  In  In106  1  0.00121426  0.66422531  0.49880493  1
  In  In107  1  0.83390110  0.50217693  -0.00387239  1
  Ir  Ir108  1  0.50172003  0.16869173  0.75118098  1
  Ir  Ir109  1  0.33152322  0.33600573  0.50287135  1
  Ir  Ir110  1  0.00389111  0.67153325  0.24662719  1
  Ir  Ir111  1  -0.00352425  0.00075107  0.75365250  1
  Ir  Ir112  1  0.49610714  0.50017481  0.75515052  1
  Ir  Ir113  1  0.33076273  0.66119959  0.49828621  1
  Ir  Ir114  1  0.66443590  0.66266080  0.75067968  1
  Ir  Ir115  1  0.33171430  0.66257224  0.25305129  1
  Ir  Ir116  1  0.82879616  0.49879520  0.75311422  1
  Ir  Ir117  1  0.17175321  0.16946518  0.75125254  1
  Ir  Ir118  1  0.66589908  0.66907226  0.50257399  1
  Ir  Ir119  1  0.00208078  -0.00417774  0.24986488  1
  Ir  Ir120  1  0.17207647  0.49780032  0.75128390  1
  Ir  Ir121  1  0.82935723  0.83065001  0.00005293  1
  Ir  Ir122  1  0.66430041  0.33200613  0.75115214  1
  Ir  Ir123  1  0.66605588  -0.00010566  0.75052134  1
  Ir  Ir124  1  0.66205251  0.66538432  -0.00385680  1
  Ir  Ir125  1  0.66487862  0.33271065  0.24904977  1
  Ir  Ir126  1  0.50070492  0.16480234  -0.00278873  1
  Ir  Ir127  1  0.49866528  0.50321251  -0.00358389  1
  Ir  Ir128  1  0.50114196  0.50338543  0.24377121  1
  Ir  Ir129  1  0.00411351  0.33734173  -0.00592774  1
  Ir  Ir130  1  0.00195618  0.66848150  0.00134025  1
  Ir  Ir131  1  0.33784956  0.33744124  -0.00631438  1
  Ir  Ir132  1  0.33441831  0.00350177  0.00078183  1
  Ir  Ir133  1  0.66391000  0.66756056  0.24504519  1
  Ir  Ir134  1  0.83403186  0.82953145  0.24598026  1
  Ir  Ir135  1  0.33396539  0.66012858  0.75125659  1
  Ir  Ir136  1  0.17281100  0.49898198  0.50397765  1
  Ir  Ir137  1  0.66396510  0.00126409  0.50419933  1
  Ir  Ir138  1  0.66445452  -0.00514029  -0.00041973  1
  Ir  Ir139  1  0.33423277  0.33298115  0.75088900  1
  Ir  Ir140  1  0.82879349  0.16376497  0.74797970  1
  Ir  Ir141  1  0.82956094  0.16353335  0.50354760  1
  Ir  Ir142  1  0.16588012  0.50031221  -0.00756295  1
  Ir  Ir143  1  0.33837367  0.33832459  0.25203309  1
  O  O144  1  0.31644541  0.33840376  0.12158456  1
  O  O145  1  0.30383725  0.31926040  0.62707203  1
  O  O146  1  0.29998838  0.65964886  0.13314780  1
  O  O147  1  0.30810279  0.65020201  0.62412693  1
  O  O148  1  0.29917175  1.00104820  0.11821485  1
  O  O149  1  0.31452548  1.00763742  0.62606151  1
  O  O150  1  0.64255126  0.32194555  0.12977818  1
  O  O151  1  0.64839300  0.32097351  0.63107580  1
  O  O152  1  0.63308833  0.66246309  0.12030751  1
  O  O153  1  0.64513387  0.65752773  0.62709800  1
  O  O154  1  0.63183556  0.98262700  0.11910501  1
  O  O155  1  0.63232809  0.98804684  0.62753057  1
  O  O156  1  0.98513390  0.33762283  0.11352666  1
  O  O157  1  0.96356696  0.33111199  0.62859821  1
  O  O158  1  0.97862127  0.65858320  0.12419954  1
  O  O159  1  0.98220032  0.65640441  0.62724736  1
  O  O160  1  0.97586681  0.98855161  0.13131672  1
  O  O161  1  0.97832017  0.99492480  0.63428420  1
  O  O162  1  0.18729455  0.15172143  0.12570761  1
  O  O163  1  0.20102570  0.16386121  0.63200275  1
  O  O164  1  0.18168938  0.50786352  0.11433236  1
  O  O165  1  0.20580695  0.49180694  0.62903437  1
  O  O166  1  0.18887869  0.81135090  0.12619096  1
  O  O167  1  0.18498402  0.82933153  0.62736147  1
  O  O168  1  0.53595434  0.15964744  0.11720081  1
  O  O169  1  0.53340401  0.16328720  0.63218854  1
  O  O170  1  0.52362417  0.50469282  0.11893471  1
  O  O171  1  0.51149799  0.50090054  0.63430599  1
  O  O172  1  0.53625407  0.81615222  0.12283613  1
  O  O173  1  0.53728973  0.82341827  0.62601765  1
  O  O174  1  0.84766846  0.16670614  0.12605726  1
  O  O175  1  0.85140210  0.16203547  0.62728081  1
  O  O176  1  0.84836645  0.50366343  0.12148145  1
  O  O177  1  0.84761733  0.49537996  0.63370681  1
  O  O178  1  0.86324175  0.82956300  0.12191333  1
  O  O179  1  0.86665945  0.83309994  0.62640550  1
  O  O180  1  0.12808175  0.18021802  0.37512419  1
  O  O181  1  0.14895540  0.18030224  0.87064875  1
  O  O182  1  0.14185823  0.50444149  0.38394053  1
  O  O183  1  0.13666738  0.50409892  0.87138834  1
  O  O184  1  0.13098803  0.84674995  0.37296708  1
  O  O185  1  0.12997401  0.83688353  0.87893166  1
  O  O186  1  0.46816183  0.17439646  0.37634019  1
  O  O187  1  0.46899016  0.17349911  0.87358226  1
  O  O188  1  0.47583504  0.50317594  0.36597257  1
  O  O189  1  0.46783914  0.51171929  0.87636988  1
  O  O190  1  0.48214494  0.84490949  0.37571712  1
  O  O191  1  0.48437681  0.82954113  0.87446202  1
  O  O192  1  0.79864046  0.16696815  0.38474257  1
  O  O193  1  0.81061899  0.16612539  0.86650022  1
  O  O194  1  0.81604798  0.50089755  0.37237273  1
  O  O195  1  0.79896221  0.49952683  0.86972465  1
  O  O196  1  0.80114180  0.82948419  0.36587514  1
  O  O197  1  0.79783536  0.84111571  0.88028180  1
  O  O198  1  0.03280508  0.00589653  0.36742205  1
  O  O199  1  0.01559307  0.00026577  0.87185476  1
  O  O200  1  0.02053605  0.34549605  0.38019914  1
  O  O201  1  0.03126531  0.34352992  0.87244249  1
  O  O202  1  0.03583943  0.68389722  0.36460787  1
  O  O203  1  0.03290144  0.67919146  0.88292281  1
  O  O204  1  0.37834531  0.01851941  0.37523747  1
  O  O205  1  0.35888662  0.01352916  0.88082222  1
  O  O206  1  0.35491728  0.35560142  0.37921135  1
  O  O207  1  0.36835230  0.34454184  0.87145433  1
  O  O208  1  0.35658214  0.65872179  0.37622970  1
  O  O209  1  0.36551129  0.66231175  0.86966207  1
  O  O210  1  0.68403967  0.01717538  0.38520707  1
  O  O211  1  0.69896315  0.00138360  0.87485104  1
  O  O212  1  0.68244922  0.33287726  0.36791080  1
  O  O213  1  0.67854977  0.34175286  0.87048755  1
  O  O214  1  0.68618318  0.67966930  0.37586601  1
  O  O215  1  0.68550716  0.67943664  0.87340274  1
  O  O216  1  0.07913563  0.08724737  0.01563165  1
  O  O217  1  0.06947004  0.09598494  0.50937372  1
  O  O218  1  0.07090835  0.43407496  0.00562781  1
  O  O219  1  0.08672317  0.42940978  0.52760477  1
  O  O220  1  0.06359335  0.76035191  0.02955437  1
  O  O221  1  0.06514540  0.76506889  0.51933998  1
  O  O222  1  0.41023827  0.09345679  0.02154524  1
  O  O223  1  0.40518577  0.10542249  0.53405365  1
  O  O224  1  0.40219827  0.43703840  0.00784818  1
  O  O225  1  0.39299768  0.43332816  0.52053198  1
  O  O226  1  0.40892372  0.75381173  0.02563260  1
  O  O227  1  0.40064212  0.75317566  0.51496013  1
  O  O228  1  0.72582173  0.08859342  0.02499154  1
  O  O229  1  0.72803013  0.10002480  0.52768286  1
  O  O230  1  0.73748109  0.42677270  0.00434537  1
  O  O231  1  0.75021744  0.41516537  0.52229111  1
  O  O232  1  0.72727769  0.76402526  0.01921625  1
  O  O233  1  0.73186008  0.76396353  0.52456487  1
  O  O234  1  0.09663905  0.26884016  0.00467408  1
  O  O235  1  0.10244336  0.26776149  0.53633729  1
  O  O236  1  0.10193179  0.60351211  0.01345854  1
  O  O237  1  0.11009669  0.59393610  0.50852893  1
  O  O238  1  0.09162276  0.92489915  0.03517010  1
  O  O239  1  0.08613004  0.92260632  0.52472559  1
  O  O240  1  0.43293373  0.26635246  0.00716934  1
  O  O241  1  0.42387365  0.27151339  0.51994191  1
  O  O242  1  0.43635838  0.59735502  0.01948742  1
  O  O243  1  0.41859590  0.58948280  0.51664150  1
  O  O244  1  0.42754630  0.93466688  0.02464914  1
  O  O245  1  0.43922517  0.93662348  0.52518017  1
  O  O246  1  0.74790431  0.24956165  0.01651212  1
  O  O247  1  0.76706503  0.25583396  0.52941955  1
  O  O248  1  0.75330097  0.59921564  0.00917470  1
  O  O249  1  0.75335930  0.59653371  0.51331613  1
  O  O250  1  0.75774367  0.92303165  0.02366724  1
  O  O251  1  0.75153873  0.92795303  0.52084232  1
  O  O252  1  0.24158431  0.07591474  0.28373581  1
  O  O253  1  0.24716875  0.08690111  0.77646792  1
  O  O254  1  0.25283482  0.41430219  0.26398371  1
  O  O255  1  0.24078539  0.40097689  0.77648970  1
  O  O256  1  0.23706338  0.72730746  0.27692220  1
  O  O257  1  0.23962937  0.72442121  0.77707172  1
  O  O258  1  0.56859833  0.06932810  0.27708946  1
  O  O259  1  0.57019701  0.07230615  0.76514065  1
  O  O260  1  0.57258631  0.41049895  0.26419033  1
  O  O261  1  0.56877034  0.40775970  0.78099157  1
  O  O262  1  0.57848444  0.73962476  0.26441732  1
  O  O263  1  0.57404275  0.73008560  0.77510170  1
  O  O264  1  0.91473181  0.06862954  0.27352907  1
  O  O265  1  0.89564539  0.06825295  0.77474413  1
  O  O266  1  0.91488932  0.41245181  0.26625541  1
  O  O267  1  0.90599722  0.41418890  0.77166891  1
  O  O268  1  0.91020438  0.74131365  0.26727812  1
  O  O269  1  0.90999801  0.74626163  0.78112478  1
  O  O270  1  0.27441237  0.24341596  0.27605823  1
  O  O271  1  0.26630920  0.23916521  0.77822663  1
  O  O272  1  0.26314436  0.57306230  0.28093876  1
  O  O273  1  0.26647892  0.56466498  0.77739036  1
  O  O274  1  0.25621754  0.91291034  0.27251793  1
  O  O275  1  0.25777800  0.90807136  0.77089635  1
  O  O276  1  0.60170601  0.23471481  0.26813222  1
  O  O277  1  0.58815731  0.24523542  0.77770479  1
  O  O278  1  0.59213334  0.57399008  0.26356486  1
  O  O279  1  0.59209483  0.56855932  0.78130209  1
  O  O280  1  0.60157092  0.90130270  0.27967523  1
  O  O281  1  0.60649754  0.90143798  0.77014004  1
  O  O282  1  0.93123820  0.23296893  0.27709023  1
  O  O283  1  0.91905105  0.23443694  0.76626010  1
  O  O284  1  0.94352579  0.57772675  0.27235306  1
  O  O285  1  0.92255211  0.56611437  0.77795411  1
  O  O286  1  0.93372087  0.89615859  0.26952770  1
  O  O287  1  0.92404023  0.91356147  0.78066215  1
  O  O288  1  0.27395431  0.23805557  0.48077534  1
  O  O289  1  0.26822027  0.24657548  0.96989968  1
  O  O290  1  0.26677580  0.56352680  0.47466119  1
  O  O291  1  0.25986693  0.56508588  0.96802942  1
  O  O292  1  0.25596216  0.91345256  0.47230158  1
  O  O293  1  0.26413179  0.91400970  0.98270719  1
  O  O294  1  0.60593620  0.22724265  0.48370899  1
  O  O295  1  0.58262652  0.24207708  0.97541139  1
  O  O296  1  0.59197826  0.58158489  0.48582689  1
  O  O297  1  0.59547141  0.56920492  0.96735765  1
  O  O298  1  0.60382236  0.90700179  0.47633270  1
  O  O299  1  0.60526223  0.89799562  0.97657151  1
  O  O300  1  0.92556790  0.22561569  0.47735262  1
  O  O301  1  0.93074077  0.24898160  0.98212480  1
  O  O302  1  0.93658792  0.56686832  0.47401603  1
  O  O303  1  0.93811590  0.57435458  0.97171039  1
  O  O304  1  0.92740635  0.90458850  0.47170112  1
  O  O305  1  0.92255335  0.89750213  0.97634109  1
  O  O306  1  0.24204437  0.07896458  0.46430244  1
  O  O307  1  0.25251393  0.08090482  0.97585584  1
  O  O308  1  0.23583155  0.39974117  0.49536252  1
  O  O309  1  0.23762572  0.40490643  0.96674366  1
  O  O310  1  0.23749782  0.72781508  0.47613550  1
  O  O311  1  0.23208959  0.72943568  0.97657532  1
  O  O312  1  0.56797093  0.06340004  0.48683642  1
  O  O313  1  0.56704770  0.06466964  0.98599547  1
  O  O314  1  0.57463955  0.40887368  0.49168295  1
  O  O315  1  0.56476713  0.41027435  0.97093544  1
  O  O316  1  0.58220854  0.74349927  0.47969674  1
  O  O317  1  0.56950804  0.72822744  0.97518951  1
  O  O318  1  0.89847263  0.07480482  0.48048013  1
  O  O319  1  0.89713503  0.06406865  0.97826671  1
  O  O320  1  0.91483195  0.41004939  0.48859875  1
  O  O321  1  0.91734474  0.41144308  0.97120610  1
  O  O322  1  0.90983254  0.74251273  0.47302220  1
  O  O323  1  0.90894403  0.74089680  0.97630708  1
  O  O324  1  0.09739339  0.26150160  0.22431444  1
  O  O325  1  0.10589168  0.26378197  0.73183670  1
  O  O326  1  0.10272335  0.61167684  0.23350066  1
  O  O327  1  0.10214866  0.58909813  0.74536289  1
  O  O328  1  0.09223118  0.92916939  0.22132907  1
  O  O329  1  0.08091222  0.92777581  0.73385918  1
  O  O330  1  0.42678010  0.26843835  0.23454797  1
  O  O331  1  0.42553190  0.25945447  0.73063741  1
  O  O332  1  0.43062059  0.59635062  0.22381633  1
  O  O333  1  0.42534641  0.59051882  0.72977261  1
  O  O334  1  0.43602189  0.93275315  0.22017370  1
  O  O335  1  0.43543738  0.93202176  0.72577368  1
  O  O336  1  0.75172284  0.26020023  0.23080014  1
  O  O337  1  0.75928099  0.25972662  0.72245646  1
  O  O338  1  0.75275740  0.59675687  0.23466931  1
  O  O339  1  0.75542730  0.58975086  0.73301354  1
  O  O340  1  0.75997126  0.91633942  0.22713625  1
  O  O341  1  0.75409040  0.92798686  0.73243858  1
  O  O342  1  0.07325336  0.08301866  0.22875889  1
  O  O343  1  0.07825649  0.09627577  0.73518123  1
  O  O344  1  0.07582574  0.43247404  0.24372516  1
  O  O345  1  0.08446520  0.42530072  0.73054786  1
  O  O346  1  0.06316603  0.76552367  0.22195771  1
  O  O347  1  0.06301887  0.76776096  0.73281699  1
  O  O348  1  0.41104269  0.09409502  0.21416056  1
  O  O349  1  0.41099418  0.10103204  0.72801310  1
  O  O350  1  0.40740298  0.43593877  0.23538226  1
  O  O351  1  0.39712282  0.43317490  0.73138546  1
  O  O352  1  0.40688240  0.74898095  0.23045167  1
  O  O353  1  0.40105451  0.75144369  0.73077601  1
  O  O354  1  0.73168173  0.09713957  0.23363559  1
  O  O355  1  0.73064257  0.09763233  0.72680927  1
  O  O356  1  0.73672280  0.41920503  0.23207959  1
  O  O357  1  0.74101771  0.42014887  0.72768722  1
  O  O358  1  0.73339424  0.76383796  0.22347285  1
  O  O359  1  0.72809233  0.76031033  0.73003034  1
