# generated using pymatgen
data_BaLaInIrO6
_symmetry_space_group_name_H-M   'P 1'
_cell_length_a   17.52735415
_cell_length_b   17.54255222
_cell_length_c   16.48593465
_cell_angle_alpha   89.97352273
_cell_angle_beta   89.97813340
_cell_angle_gamma   90.04206096
_symmetry_Int_Tables_number   1
_chemical_formula_structural   BaLaInIrO6
_chemical_formula_sum   'Ba36 La36 In36 Ir36 O216'
_cell_volume   5069.00265749
_cell_formula_units_Z   36
loop_
 _symmetry_equiv_pos_site_id
 _symmetry_equiv_pos_as_xyz
  1  'x, y, z'
loop_
 _atom_site_type_symbol
 _atom_site_label
 _atom_site_symmetry_multiplicity
 _atom_site_fract_x
 _atom_site_fract_y
 _atom_site_fract_z
 _atom_site_occupancy
  Ba  Ba0  1  0.66663063  0.82124853  0.87540095  1
  Ba  Ba1  1  1.00163489  0.17545783  0.62245058  1
  Ba  Ba2  1  0.16780186  0.66079089  0.37476886  1
  Ba  Ba3  1  0.66870052  0.17335136  0.62593238  1
  Ba  Ba4  1  -0.00070135  0.15794401  0.87993793  1
  Ba  Ba5  1  0.16871375  0.32531430  0.87682290  1
  Ba  Ba6  1  0.33496296  0.50833977  0.12088022  1
  Ba  Ba7  1  0.32965559  0.15859277  0.37459258  1
  Ba  Ba8  1  0.66414961  0.15830934  0.87778259  1
  Ba  Ba9  1  0.83363988  0.67108639  0.62545129  1
  Ba  Ba10  1  0.83722507  0.98665566  0.37471248  1
  Ba  Ba11  1  0.49919638  0.67838210  0.62632555  1
  Ba  Ba12  1  0.50044648  0.99289764  0.87519193  1
  Ba  Ba13  1  0.50437922  0.32416547  0.37080236  1
  Ba  Ba14  1  -0.00208057  0.48942529  0.37726788  1
  Ba  Ba15  1  0.66811252  0.83858320  0.62883298  1
  Ba  Ba16  1  0.16385272  0.33959181  0.12619056  1
  Ba  Ba17  1  0.49715746  0.00682770  0.12583144  1
  Ba  Ba18  1  0.16368716  0.01235985  0.62198699  1
  Ba  Ba19  1  0.33831881  0.84745755  0.62077761  1
  Ba  Ba20  1  0.16198262  0.00510932  0.12927774  1
  Ba  Ba21  1  0.16531453  0.98992233  0.37891396  1
  Ba  Ba22  1  0.49973096  0.00751729  0.62336945  1
  Ba  Ba23  1  -0.00234833  0.48952030  0.87437240  1
  Ba  Ba24  1  0.33014251  0.83888510  0.12543210  1
  Ba  Ba25  1  0.50328477  0.66308657  0.87481199  1
  Ba  Ba26  1  0.33641355  0.49345473  0.87471138  1
  Ba  Ba27  1  0.83135031  0.34491508  0.12608663  1
  Ba  Ba28  1  0.17194881  0.33851082  0.62477049  1
  Ba  Ba29  1  0.82945099  0.01024539  0.62134509  1
  Ba  Ba30  1  0.83031972  0.00674354  0.12686888  1
  Ba  Ba31  1  0.99982545  0.50659578  0.12596184  1
  Ba  Ba32  1  0.32956285  0.15865817  0.87692176  1
  Ba  Ba33  1  1.00184165  0.83850561  0.12163035  1
  Ba  Ba34  1  0.83096875  0.65836992  0.87286873  1
  Ba  Ba35  1  0.67028204  0.82301343  0.37322735  1
  La  La36  1  0.66357976  0.48441211  0.37773730  1
  La  La37  1  0.83890405  0.65553388  0.37568893  1
  La  La38  1  0.33096746  0.17155248  0.61951533  1
  La  La39  1  0.32569063  0.48918461  0.37783425  1
  La  La40  1  0.32986970  0.82383817  0.37817552  1
  La  La41  1  -0.00394501  0.15187495  0.37408676  1
  La  La42  1  0.50335458  0.65332347  0.37654819  1
  La  La43  1  0.49764041  0.68066914  0.12306603  1
  La  La44  1  0.17080764  0.32211476  0.37573642  1
  La  La45  1  -0.00886265  0.81952218  0.36963438  1
  La  La46  1  0.49436420  0.34638833  0.12218384  1
  La  La47  1  0.66317194  0.15251296  0.37395276  1
  La  La48  1  -0.00211753  0.82336904  0.87583846  1
  La  La49  1  1.00448507  0.18068411  0.12479704  1
  La  La50  1  0.83921443  0.31919835  0.87743123  1
  La  La51  1  0.16253569  0.68154681  0.62746843  1
  La  La52  1  0.67142600  0.84399986  0.12044247  1
  La  La53  1  0.16204613  0.67749631  0.12055461  1
  La  La54  1  1.00781669  0.84995489  0.62254953  1
  La  La55  1  0.66725485  0.51368234  0.62228130  1
  La  La56  1  0.17145888  0.98388049  0.87568345  1
  La  La57  1  0.83702056  0.98340008  0.87147489  1
  La  La58  1  0.50140714  0.98560831  0.37414333  1
  La  La59  1  0.50672574  0.31940260  0.87135336  1
  La  La60  1  0.83407785  0.33809306  0.62717146  1
  La  La61  1  0.66922176  0.18795924  0.12771048  1
  La  La62  1  0.33223289  0.82194041  0.86950338  1
  La  La63  1  0.67231964  0.51954271  0.12871641  1
  La  La64  1  0.33548607  0.17994481  0.12331894  1
  La  La65  1  0.82987005  0.67879131  0.12280391  1
  La  La66  1  0.34088371  0.51639943  0.63090405  1
  La  La67  1  0.49576099  0.34655962  0.62202901  1
  La  La68  1  0.83506200  0.31717820  0.37884863  1
  La  La69  1  1.00171014  0.50927243  0.62766848  1
  La  La70  1  0.17185876  0.65261785  0.87717760  1
  La  La71  1  0.65868720  0.49298118  0.87531601  1
  In  In72  1  0.83567360  0.82920367  0.50276189  1
  In  In73  1  0.00207463  0.00023472  0.75234686  1
  In  In74  1  0.33257468  0.66612701  0.50159737  1
  In  In75  1  0.16785744  0.49766900  0.74775739  1
  In  In76  1  0.66662977  0.00002162  0.75116280  1
  In  In77  1  0.50307280  0.50270127  0.24881677  1
  In  In78  1  0.49971304  0.16979796  0.74736318  1
  In  In79  1  0.16500145  0.83168495  0.25461707  1
  In  In80  1  0.82845182  0.50047834  -0.00185560  1
  In  In81  1  0.66749975  -0.00167978  0.49673046  1
  In  In82  1  0.33469460  0.33470615  0.25241223  1
  In  In83  1  0.83290686  0.16163454  0.00184775  1
  In  In84  1  0.33552958  0.33442914  -0.00015146  1
  In  In85  1  0.83431040  0.16604037  0.75078370  1
  In  In86  1  0.83224642  0.49539493  0.74920437  1
  In  In87  1  -0.00104647  0.33437389  -0.00041593  1
  In  In88  1  0.66500853  0.00099381  0.24735865  1
  In  In89  1  0.50088568  0.16498447  0.00465838  1
  In  In90  1  0.50141162  0.83078492  0.49639161  1
  In  In91  1  0.16735156  0.16177039  0.00104415  1
  In  In92  1  0.83279258  0.49392132  0.49806576  1
  In  In93  1  0.33015665  0.00472660  0.74820488  1
  In  In94  1  0.49901959  0.83486676  0.00176895  1
  In  In95  1  0.49950538  0.83567619  0.75040753  1
  In  In96  1  0.16602439  0.16381213  0.25129179  1
  In  In97  1  0.33641931  0.66492261  0.24933493  1
  In  In98  1  0.33528625  0.33428005  0.50068962  1
  In  In99  1  0.00241090  0.66416301  0.49839152  1
  In  In100  1  0.83228899  0.16673329  0.24899171  1
  In  In101  1  -0.00053554  0.66550985  -0.00237014  1
  In  In102  1  0.33369316  -0.00028793  0.25024896  1
  In  In103  1  0.16527418  0.50220324  0.25191634  1
  In  In104  1  0.00240073  0.66590225  0.74959234  1
  In  In105  1  -0.00293386  0.33377711  0.25507882  1
  In  In106  1  0.33691056  0.33254185  0.75093092  1
  In  In107  1  0.66868832  0.33739304  0.74743559  1
  Ir  Ir108  1  0.66639210  0.33691588  0.25109747  1
  Ir  Ir109  1  0.00041230  -0.00605363  0.00112634  1
  Ir  Ir110  1  0.66763620  0.66100784  0.49675375  1
  Ir  Ir111  1  0.16191483  0.16795800  0.49999272  1
  Ir  Ir112  1  0.00208493  0.33163179  0.50107082  1
  Ir  Ir113  1  0.50172298  0.83026305  0.25082986  1
  Ir  Ir114  1  0.00071233  -0.00078665  0.49535549  1
  Ir  Ir115  1  0.16633052  0.83189232  -0.00461942  1
  Ir  Ir116  1  0.83904296  0.83011528  0.75386549  1
  Ir  Ir117  1  0.33144579  0.66749286  -0.00016555  1
  Ir  Ir118  1  0.66834725  0.66347996  0.74877652  1
  Ir  Ir119  1  0.66420091  0.33345907  0.49740656  1
  Ir  Ir120  1  0.66318613  0.34103624  0.00392364  1
  Ir  Ir121  1  0.66508434  0.66641800  0.00437801  1
  Ir  Ir122  1  0.50659824  0.50276320  -0.00165566  1
  Ir  Ir123  1  0.16796767  0.49849886  0.50271148  1
  Ir  Ir124  1  0.83241276  0.82735608  0.24539718  1
  Ir  Ir125  1  0.66770635  0.66739178  0.25299053  1
  Ir  Ir126  1  0.83347778  0.17270003  0.49699706  1
  Ir  Ir127  1  0.32946292  0.66785351  0.75342527  1
  Ir  Ir128  1  0.16440301  0.16613208  0.74931359  1
  Ir  Ir129  1  0.32870420  -0.00368812  0.00014377  1
  Ir  Ir130  1  0.16885272  0.50480454  0.00067184  1
  Ir  Ir131  1  0.66904764  -0.00161495  0.00309406  1
  Ir  Ir132  1  -0.00389406  0.66574463  0.24758994  1
  Ir  Ir133  1  0.50347773  0.16768443  0.25046238  1
  Ir  Ir134  1  -0.00441499  -0.00318225  0.24755627  1
  Ir  Ir135  1  0.16597669  0.83178864  0.74944130  1
  Ir  Ir136  1  0.50034335  0.50056380  0.50379576  1
  Ir  Ir137  1  0.50126594  0.16880956  0.49323815  1
  Ir  Ir138  1  0.33363577  0.00610062  0.49579077  1
  Ir  Ir139  1  0.16445353  0.83477826  0.50262105  1
  Ir  Ir140  1  0.82652727  0.50455463  0.25219980  1
  Ir  Ir141  1  0.83289324  0.83306039  -0.00091193  1
  Ir  Ir142  1  -0.00040848  0.33036969  0.74699748  1
  Ir  Ir143  1  0.50189402  0.50381205  0.75064249  1
  O  O144  1  0.31508178  0.32398992  0.12713792  1
  O  O145  1  0.32359190  0.31249739  0.62380522  1
  O  O146  1  0.29893735  0.66483908  0.11907644  1
  O  O147  1  0.30017288  0.65775486  0.63154689  1
  O  O148  1  0.31250123  0.99360212  0.11928909  1
  O  O149  1  0.31314270  1.00821548  0.61517504  1
  O  O150  1  0.63117388  0.32913241  0.12848727  1
  O  O151  1  0.63117766  0.32909864  0.61504744  1
  O  O152  1  0.63489023  0.65933772  0.12922023  1
  O  O153  1  0.64323682  0.65237594  0.62216245  1
  O  O154  1  0.64684906  0.98252564  0.12212678  1
  O  O155  1  0.65254092  0.99719438  0.62154820  1
  O  O156  1  0.97872567  0.32563417  0.12781392  1
  O  O157  1  0.96992961  0.33159716  0.62293703  1
  O  O158  1  0.96822051  0.66513165  0.12852465  1
  O  O159  1  0.98346209  0.65155942  0.62317684  1
  O  O160  1  0.97523819  0.98852189  0.12500499  1
  O  O161  1  0.98178053  0.98929839  0.61865437  1
  O  O162  1  0.20095549  0.16030657  0.12617059  1
  O  O163  1  0.19306559  0.16539809  0.62358094  1
  O  O164  1  0.18481802  0.50760489  0.12006865  1
  O  O165  1  0.20213697  0.49505127  0.61868655  1
  O  O166  1  0.18223089  0.81944761  0.11838963  1
  O  O167  1  0.19250544  0.82300128  0.62725399  1
  O  O168  1  0.53636641  0.16188027  0.13260374  1
  O  O169  1  0.51877593  0.16691967  0.61161475  1
  O  O170  1  0.53742110  0.49222691  0.11754020  1
  O  O171  1  0.53230123  0.49004666  0.62720054  1
  O  O172  1  0.53362536  0.82363398  0.13076214  1
  O  O173  1  0.51600778  0.83426359  0.62245842  1
  O  O174  1  0.86765874  0.16838044  0.12598573  1
  O  O175  1  0.85190482  0.17545818  0.61667878  1
  O  O176  1  0.84604590  0.50289813  0.13298448  1
  O  O177  1  0.86826117  0.48066715  0.62157900  1
  O  O178  1  0.85273615  0.81807819  0.12301212  1
  O  O179  1  0.87019332  0.82653494  0.63347705  1
  O  O180  1  0.13192810  0.17709439  0.38148420  1
  O  O181  1  0.14861011  0.16647987  0.86934059  1
  O  O182  1  0.14471624  0.50664842  0.38622590  1
  O  O183  1  0.14771661  0.51216011  0.87945735  1
  O  O184  1  0.12922036  0.83173622  0.38412294  1
  O  O185  1  0.13515860  0.84166719  0.87177513  1
  O  O186  1  0.47767617  0.17246019  0.37086436  1
  O  O187  1  0.48153216  0.18111131  0.87965382  1
  O  O188  1  0.46775517  0.51238485  0.38205386  1
  O  O189  1  0.48277984  0.51244197  0.87513524  1
  O  O190  1  0.46710442  0.83431006  0.36791419  1
  O  O191  1  0.46912732  0.82871554  0.87785290  1
  O  O192  1  0.80125920  0.17832393  0.37770218  1
  O  O193  1  0.81234545  0.18330498  0.87778224  1
  O  O194  1  0.79867295  0.51340957  0.37112301  1
  O  O195  1  0.79441792  0.49993350  0.87298539  1
  O  O196  1  0.82099395  0.82604702  0.36505255  1
  O  O197  1  0.81301706  0.84445574  0.87683693  1
  O  O198  1  0.01680386  0.01207755  0.37037496  1
  O  O199  1  0.03206001  -0.00593224  0.88263328  1
  O  O200  1  0.03426657  0.33532893  0.38438540  1
  O  O201  1  0.01963035  0.33401729  0.86631734  1
  O  O202  1  0.01858721  0.67517266  0.36760621  1
  O  O203  1  0.03502621  0.68029380  0.87313303  1
  O  O204  1  0.36444756  0.00505488  0.37777882  1
  O  O205  1  0.34576589  -0.00030607  0.88143449  1
  O  O206  1  0.35856411  0.35265617  0.37859803  1
  O  O207  1  0.36978835  0.33396736  0.87621420  1
  O  O208  1  0.36663445  0.67362502  0.37606935  1
  O  O209  1  0.35459851  0.68055817  0.87599201  1
  O  O210  1  0.68935067  0.01540698  0.37088479  1
  O  O211  1  0.70158895  0.00288621  0.88650115  1
  O  O212  1  0.69836639  0.34466733  0.37423513  1
  O  O213  1  0.69809708  0.35132830  0.88496132  1
  O  O214  1  0.70192490  0.66747036  0.37475957  1
  O  O215  1  0.68598951  0.66362570  0.87821458  1
  O  O216  1  0.06261482  0.08806937  0.02719346  1
  O  O217  1  0.06890165  0.09515216  0.51033293  1
  O  O218  1  0.08084581  0.43097592  0.01330460  1
  O  O219  1  0.06828236  0.43215557  0.52717744  1
  O  O220  1  0.07926230  0.75878066  0.01529059  1
  O  O221  1  0.07581020  0.76275479  0.52977952  1
  O  O222  1  0.39351799  0.09231010  0.02313916  1
  O  O223  1  0.40081260  0.10430590  0.51633174  1
  O  O224  1  0.42137481  0.42804512  0.01965152  1
  O  O225  1  0.40929953  0.43253275  0.53411593  1
  O  O226  1  0.40817647  0.75025208  0.02477293  1
  O  O227  1  0.40414579  0.76150973  0.51073696  1
  O  O228  1  0.73158841  0.09439721  0.03002705  1
  O  O229  1  0.74280226  0.10354384  0.50842243  1
  O  O230  1  0.72439241  0.43553824  0.02879712  1
  O  O231  1  0.72868149  0.42760597  0.51797385  1
  O  O232  1  0.73768856  0.76016875  0.02851960  1
  O  O233  1  0.73925322  0.74834790  0.51648075  1
  O  O234  1  0.08378162  0.24841790  0.02049651  1
  O  O235  1  0.09443812  0.26272818  0.51987099  1
  O  O236  1  0.10202425  0.59933814  0.01811536  1
  O  O237  1  0.10235223  0.59182731  0.52857274  1
  O  O238  1  0.09830300  0.92595497  0.01460771  1
  O  O239  1  0.08894326  0.92293709  0.52467311  1
  O  O240  1  0.42923367  0.25775084  0.03631621  1
  O  O241  1  0.43726503  0.26223981  0.51618996  1
  O  O242  1  0.43351707  0.59712678  0.02505185  1
  O  O243  1  0.42607269  0.58554746  0.52778188  1
  O  O244  1  0.42052491  0.92776201  0.01673353  1
  O  O245  1  0.42270495  0.93635293  0.50504192  1
  O  O246  1  0.74549513  0.26387589  0.02598912  1
  O  O247  1  0.76672839  0.27180959  0.51693616  1
  O  O248  1  0.75673721  0.60002702  0.02963049  1
  O  O249  1  0.75155403  0.58634721  0.52101153  1
  O  O250  1  0.75853202  0.92082053  0.02300537  1
  O  O251  1  0.76130580  0.91974666  0.50964715  1
  O  O252  1  0.23952633  0.07152167  0.27118099  1
  O  O253  1  0.22641648  0.06872767  0.76916297  1
  O  O254  1  0.23968760  0.40973407  0.28181176  1
  O  O255  1  0.24525197  0.40878008  0.76572470  1
  O  O256  1  0.24834692  0.74526925  0.27300703  1
  O  O257  1  0.23491799  0.73740562  0.77815133  1
  O  O258  1  0.56558501  0.07404499  0.27675426  1
  O  O259  1  0.57153925  0.07643682  0.76482104  1
  O  O260  1  0.58287297  0.41251900  0.27375979  1
  O  O261  1  0.57090450  0.41432268  0.77724594  1
  O  O262  1  0.56863903  0.73117841  0.27530755  1
  O  O263  1  0.58054162  0.73631710  0.75995372  1
  O  O264  1  0.90890223  0.07012036  0.26654590  1
  O  O265  1  0.90376481  0.06499019  0.77497917  1
  O  O266  1  0.88946914  0.40862455  0.27818463  1
  O  O267  1  0.90212639  0.39126100  0.76794635  1
  O  O268  1  0.90109381  0.73291256  0.27045747  1
  O  O269  1  0.91300827  0.74690418  0.77715109  1
  O  O270  1  0.25042832  0.24924215  0.27836053  1
  O  O271  1  0.25637628  0.23320383  0.75878342  1
  O  O272  1  0.26817009  0.56721771  0.27499832  1
  O  O273  1  0.26019242  0.58039363  0.77134420  1
  O  O274  1  0.26344816  0.90169850  0.27596067  1
  O  O275  1  0.25472534  0.90175962  0.77713390  1
  O  O276  1  0.60460065  0.23338746  0.27019225  1
  O  O277  1  0.59414596  0.24974349  0.77390323  1
  O  O278  1  0.60184408  0.57511467  0.28133245  1
  O  O279  1  0.60215541  0.56712352  0.76622532  1
  O  O280  1  0.58589209  0.90521864  0.27155173  1
  O  O281  1  0.59475822  0.90649051  0.77217612  1
  O  O282  1  0.92132990  0.24201190  0.28882104  1
  O  O283  1  0.93336190  0.24013261  0.76512257  1
  O  O284  1  0.91872394  0.57749751  0.27680442  1
  O  O285  1  0.92767580  0.56939583  0.76052453  1
  O  O286  1  0.92841091  0.89594875  0.26948144  1
  O  O287  1  0.93098931  0.89888307  0.77529107  1
  O  O288  1  0.24916349  0.24205713  0.48162513  1
  O  O289  1  0.26060824  0.23934374  0.98814591  1
  O  O290  1  0.26380145  0.56328053  0.48099523  1
  O  O291  1  0.25639988  0.58166838  0.97411601  1
  O  O292  1  0.26420477  0.90607639  0.47513188  1
  O  O293  1  0.26137233  0.89947891  0.97057394  1
  O  O294  1  0.59994423  0.23342064  0.47175459  1
  O  O295  1  0.59165005  0.25418462  0.98490160  1
  O  O296  1  0.59405516  0.56902714  0.47166526  1
  O  O297  1  0.60295619  0.56851728  0.98202592  1
  O  O298  1  0.58351018  0.91327111  0.46606839  1
  O  O299  1  0.59977511  0.90663307  0.98735531  1
  O  O300  1  0.93328440  0.23949714  0.47228356  1
  O  O301  1  0.91787782  0.24520890  0.98067510  1
  O  O302  1  0.91852689  0.57681391  0.47835691  1
  O  O303  1  0.92223806  0.57617967  0.98278489  1
  O  O304  1  0.93967356  0.90107199  0.47773401  1
  O  O305  1  0.92861304  0.90134279  0.97064979  1
  O  O306  1  0.23563331  0.07855574  0.48177031  1
  O  O307  1  0.23176469  0.05740912  0.97876293  1
  O  O308  1  0.23441010  0.40675953  0.47454883  1
  O  O309  1  0.24269383  0.41794293  0.98645959  1
  O  O310  1  0.23810146  0.74776801  0.48277523  1
  O  O311  1  0.23686136  0.73784573  0.97108143  1
  O  O312  1  0.56670892  0.07696912  0.46825493  1
  O  O313  1  0.57950944  0.06897269  0.98756290  1
  O  O314  1  0.57374250  0.40891973  0.47634764  1
  O  O315  1  0.57251346  0.40996013  0.96857642  1
  O  O316  1  0.57537571  0.72860132  0.47274026  1
  O  O317  1  0.57502456  0.73571724  0.99324647  1
  O  O318  1  0.90938831  0.08095110  0.47189183  1
  O  O319  1  0.90457961  0.05692335  0.97793253  1
  O  O320  1  0.90492370  0.39274498  0.47616220  1
  O  O321  1  0.89935355  0.40456824  0.97719486  1
  O  O322  1  0.90959923  0.74003153  0.47048682  1
  O  O323  1  0.90773770  0.74806527  0.97903004  1
  O  O324  1  0.08157360  0.24786710  0.22974466  1
  O  O325  1  0.09623899  0.26292409  0.73163031  1
  O  O326  1  0.09216840  0.60265407  0.22541335  1
  O  O327  1  0.10290541  0.59722856  0.72492970  1
  O  O328  1  0.08412412  0.92406229  0.23964734  1
  O  O329  1  0.09445021  0.92012305  0.72930072  1
  O  O330  1  0.43770862  0.25874425  0.22423645  1
  O  O331  1  0.44415109  0.27761939  0.73267809  1
  O  O332  1  0.43929797  0.60125052  0.22472834  1
  O  O333  1  0.42009051  0.59303513  0.72640498  1
  O  O334  1  0.43306091  0.92252869  0.23739942  1
  O  O335  1  0.41957375  0.92773602  0.73773116  1
  O  O336  1  0.75345294  0.26535538  0.23223788  1
  O  O337  1  0.77106605  0.27219046  0.73387167  1
  O  O338  1  0.76282044  0.60331118  0.22515406  1
  O  O339  1  0.75303998  0.58938489  0.72704549  1
  O  O340  1  0.75691294  0.91366778  0.22969514  1
  O  O341  1  0.77113333  0.91965185  0.73921852  1
  O  O342  1  0.05940898  0.09145868  0.22931792  1
  O  O343  1  0.07490632  0.09711228  0.73458395  1
  O  O344  1  0.07155093  0.42766157  0.24008906  1
  O  O345  1  0.06286090  0.42847286  0.72603285  1
  O  O346  1  0.07107854  0.75209054  0.23025744  1
  O  O347  1  0.07583021  0.76480369  0.71993652  1
  O  O348  1  0.40804829  0.10428870  0.22617538  1
  O  O349  1  0.39416460  0.10799205  0.72701767  1
  O  O350  1  0.41849354  0.42171095  0.22385619  1
  O  O351  1  0.41097599  0.43700461  0.72304574  1
  O  O352  1  0.41803081  0.75824542  0.22415038  1
  O  O353  1  0.39767939  0.75735046  0.73791824  1
  O  O354  1  0.73014931  0.10334100  0.22600837  1
  O  O355  1  0.74323038  0.09138144  0.73695748  1
  O  O356  1  0.72790577  0.44009796  0.23267247  1
  O  O357  1  0.73689547  0.42875301  0.70791884  1
  O  O358  1  0.73761486  0.75837295  0.21852135  1
  O  O359  1  0.74616899  0.75660114  0.73412175  1
