# generated using pymatgen
data_BaLaInIrO6
_symmetry_space_group_name_H-M   'P 1'
_cell_length_a   17.52051981
_cell_length_b   17.53955138
_cell_length_c   16.47352436
_cell_angle_alpha   90.04327465
_cell_angle_beta   89.98975174
_cell_angle_gamma   90.00994529
_symmetry_Int_Tables_number   1
_chemical_formula_structural   BaLaInIrO6
_chemical_formula_sum   'Ba36 La36 In36 Ir36 O216'
_cell_volume   5062.34632927
_cell_formula_units_Z   36
loop_
 _symmetry_equiv_pos_site_id
 _symmetry_equiv_pos_as_xyz
  1  'x, y, z'
loop_
 _atom_site_type_symbol
 _atom_site_label
 _atom_site_symmetry_multiplicity
 _atom_site_fract_x
 _atom_site_fract_y
 _atom_site_fract_z
 _atom_site_occupancy
  Ba  Ba0  1  0.83219964  0.34032943  0.12549149  1
  Ba  Ba1  1  0.66252834  0.48863334  0.87011756  1
  Ba  Ba2  1  0.00270542  0.49390465  0.37621375  1
  Ba  Ba3  1  0.32506989  0.48517131  0.87461766  1
  Ba  Ba4  1  0.33520857  0.15733764  0.87694631  1
  Ba  Ba5  1  0.83447256  0.00666576  0.62240988  1
  Ba  Ba6  1  0.16785784  0.31841686  0.87901370  1
  Ba  Ba7  1  0.16562988  0.00655811  0.12766895  1
  Ba  Ba8  1  0.50080725  0.99262332  0.87419645  1
  Ba  Ba9  1  -0.00046787  0.16130968  0.87386276  1
  Ba  Ba10  1  1.00002061  0.84538654  0.62742658  1
  Ba  Ba11  1  0.67078936  0.17223856  0.62860368  1
  Ba  Ba12  1  0.82892723  0.33848049  0.62782238  1
  Ba  Ba13  1  0.66937486  0.50860517  0.62413004  1
  Ba  Ba14  1  0.33616757  0.83193893  0.36955256  1
  Ba  Ba15  1  0.33072856  0.84439133  0.12337269  1
  Ba  Ba16  1  1.00315669  0.51076760  0.12874974  1
  Ba  Ba17  1  -0.00124809  0.48852640  0.87816394  1
  Ba  Ba18  1  0.49981529  0.34164320  0.62640688  1
  Ba  Ba19  1  -0.00173819  0.82647148  0.37383753  1
  Ba  Ba20  1  0.66937518  0.51112913  0.12362134  1
  Ba  Ba21  1  0.49766238  0.34195459  0.12384140  1
  Ba  Ba22  1  0.50222074  0.99050488  0.37414030  1
  Ba  Ba23  1  0.66493227  0.15263258  0.87589016  1
  Ba  Ba24  1  0.16716047  0.33814497  0.12677447  1
  Ba  Ba25  1  0.99782991  0.17456186  0.62019859  1
  Ba  Ba26  1  0.33037522  0.83967733  0.62616304  1
  Ba  Ba27  1  0.49759731  0.00779479  0.12681403  1
  Ba  Ba28  1  -0.00054933  0.15942009  0.36961453  1
  Ba  Ba29  1  0.83608160  0.66012189  0.37458727  1
  Ba  Ba30  1  0.83030467  0.00713228  0.12714362  1
  Ba  Ba31  1  0.50391782  0.66376553  0.37446933  1
  Ba  Ba32  1  0.16588601  0.99013720  0.37198540  1
  Ba  Ba33  1  0.49999956  0.00910692  0.62723972  1
  Ba  Ba34  1  0.16251271  0.65563223  0.87424125  1
  Ba  Ba35  1  0.83479939  0.99461634  0.37589733  1
  La  La36  1  0.83672839  0.32260434  0.37869919  1
  La  La37  1  0.82970179  0.68320520  0.62634003  1
  La  La38  1  1.00370036  0.84460067  0.12689193  1
  La  La39  1  0.50189010  0.31337101  0.87415625  1
  La  La40  1  0.17236507  0.99474148  0.87189846  1
  La  La41  1  0.34010918  0.51649864  0.62735502  1
  La  La42  1  0.33317156  0.17005643  0.12766336  1
  La  La43  1  0.67272172  0.84993947  0.62585633  1
  La  La44  1  0.32798301  0.83143758  0.87728428  1
  La  La45  1  0.34281697  0.18003535  0.62911193  1
  La  La46  1  0.16177058  0.68286172  0.62810258  1
  La  La47  1  0.66772643  0.48428300  0.37478809  1
  La  La48  1  -0.00724817  0.81763005  0.87258512  1
  La  La49  1  0.65801802  0.82495106  0.37611662  1
  La  La50  1  0.16483824  0.34462781  0.62518414  1
  La  La51  1  0.16930035  0.31084065  0.37641398  1
  La  La52  1  0.66520517  0.84499678  0.12737412  1
  La  La53  1  0.67052126  0.17855420  0.12196972  1
  La  La54  1  0.83570223  0.98572763  0.87231315  1
  La  La55  1  0.49576374  0.68487726  0.12030955  1
  La  La56  1  0.50061929  0.67950809  0.62752992  1
  La  La57  1  0.84042970  0.64938795  0.87419793  1
  La  La58  1  0.83026985  0.68219107  0.12087826  1
  La  La59  1  0.17050798  0.66683166  0.12847783  1
  La  La60  1  1.00624724  0.17530888  0.12457594  1
  La  La61  1  0.50192625  0.65432498  0.87168823  1
  La  La62  1  0.34258960  0.52070780  0.12160947  1
  La  La63  1  0.15990505  0.01755484  0.62411598  1
  La  La64  1  0.83756737  0.31727417  0.87399752  1
  La  La65  1  0.33049286  0.14957146  0.37523844  1
  La  La66  1  1.00106615  0.51507936  0.62572114  1
  La  La67  1  0.66575203  0.15094533  0.37404625  1
  La  La68  1  0.50540691  0.31453508  0.37262735  1
  La  La69  1  0.66416674  0.82556363  0.87506567  1
  La  La70  1  0.16767664  0.66650778  0.37506197  1
  La  La71  1  0.32981637  0.48726390  0.37359799  1
  In  In72  1  0.66943679  0.66743365  0.75071832  1
  In  In73  1  0.00064772  0.33401947  0.74753068  1
  In  In74  1  0.49840036  0.50181996  0.49886010  1
  In  In75  1  0.66735989  0.66552447  0.24818449  1
  In  In76  1  0.16725310  0.49977745  0.74779379  1
  In  In77  1  0.00168552  0.00055973  0.49845611  1
  In  In78  1  -0.00174407  0.33341254  0.00201284  1
  In  In79  1  0.66703080  0.33232069  0.24923745  1
  In  In80  1  0.16539742  0.83099802  0.24637559  1
  In  In81  1  0.83456972  0.50260808  0.50123357  1
  In  In82  1  0.33456016  0.33075774  0.00216209  1
  In  In83  1  -0.00100471  -0.00065285  -0.00376957  1
  In  In84  1  0.33233020  0.67002622  0.75164652  1
  In  In85  1  0.33352358  0.33480246  0.50021834  1
  In  In86  1  0.83150749  0.83229303  0.49704767  1
  In  In87  1  0.83461388  0.16105101  0.75283562  1
  In  In88  1  0.17034985  0.49958147  0.50046213  1
  In  In89  1  0.16962343  0.49954631  0.25401133  1
  In  In90  1  0.49975941  0.16432252  0.50015668  1
  In  In91  1  0.16600901  0.83402427  0.50093695  1
  In  In92  1  0.49990653  0.83690151  0.50517572  1
  In  In93  1  0.33386534  0.67254143  -0.00483618  1
  In  In94  1  0.33473627  0.66672780  0.50039401  1
  In  In95  1  0.16830342  0.49918724  0.00269823  1
  In  In96  1  0.33512832  0.33352427  0.25176625  1
  In  In97  1  0.50017220  0.49995307  -0.00210492  1
  In  In98  1  -0.00211431  0.33463284  0.25229223  1
  In  In99  1  0.66656576  0.33392188  -0.00292832  1
  In  In100  1  0.66683165  0.33322092  0.49830222  1
  In  In101  1  -0.00230980  0.66845608  0.00370823  1
  In  In102  1  0.83049133  0.83459558  0.24742841  1
  In  In103  1  0.33406101  -0.00051295  0.74635108  1
  In  In104  1  0.49941069  0.50179795  0.25199991  1
  In  In105  1  0.83386946  0.16721883  0.49813320  1
  In  In106  1  0.33459684  0.00124202  0.00118002  1
  In  In107  1  0.66686131  0.66911811  -0.00263553  1
  Ir  Ir108  1  0.00033835  0.66553786  0.50505467  1
  Ir  Ir109  1  0.50163240  0.16298735  0.24994133  1
  Ir  Ir110  1  0.17118767  0.16439800  0.74725303  1
  Ir  Ir111  1  0.17307791  0.16665872  0.50051698  1
  Ir  Ir112  1  0.16116863  0.83546411  0.75635290  1
  Ir  Ir113  1  0.50277147  0.83232053  0.75381967  1
  Ir  Ir114  1  -0.00280254  0.66836560  0.25004975  1
  Ir  Ir115  1  0.33674477  0.66935105  0.24942628  1
  Ir  Ir116  1  0.66325798  0.00082100  0.24676756  1
  Ir  Ir117  1  0.66766722  -0.00402399  0.75234056  1
  Ir  Ir118  1  0.66666083  0.33509447  0.75365436  1
  Ir  Ir119  1  0.00304823  0.33498485  0.49936165  1
  Ir  Ir120  1  0.15988952  0.83408036  -0.00433000  1
  Ir  Ir121  1  0.83019940  0.83529958  -0.00433021  1
  Ir  Ir122  1  0.66805734  0.66965257  0.50211648  1
  Ir  Ir123  1  0.33455368  0.00187166  0.25168938  1
  Ir  Ir124  1  -0.00547759  0.66832518  0.74819447  1
  Ir  Ir125  1  0.83092641  0.16408396  0.24506933  1
  Ir  Ir126  1  0.16870115  0.16159625  0.25120297  1
  Ir  Ir127  1  0.50347463  0.16681029  0.75156158  1
  Ir  Ir128  1  -0.00306475  0.00127918  0.24515532  1
  Ir  Ir129  1  0.50033234  0.83542346  0.24759741  1
  Ir  Ir130  1  0.83123490  0.83469355  0.75318134  1
  Ir  Ir131  1  0.32903455  0.00178549  0.50086366  1
  Ir  Ir132  1  0.50127411  0.83553073  -0.00468860  1
  Ir  Ir133  1  0.66817861  -0.00271307  0.00027185  1
  Ir  Ir134  1  0.16668467  0.16098090  0.00167096  1
  Ir  Ir135  1  0.50503939  0.16348788  0.00327055  1
  Ir  Ir136  1  0.83337367  0.50440490  0.24729715  1
  Ir  Ir137  1  0.49705354  0.49895932  0.74898510  1
  Ir  Ir138  1  0.66596628  -0.00079715  0.49840484  1
  Ir  Ir139  1  0.83204539  0.50144356  0.00040856  1
  Ir  Ir140  1  0.83137903  0.16191037  0.00227059  1
  Ir  Ir141  1  0.00584478  -0.00079873  0.75340062  1
  Ir  Ir142  1  0.33302322  0.32753594  0.74891095  1
  Ir  Ir143  1  0.83465221  0.50006323  0.75299730  1
  O  O144  1  0.32048501  0.30441350  0.12867243  1
  O  O145  1  0.30226475  0.31532616  0.62862822  1
  O  O146  1  0.30791010  0.66547448  0.12884194  1
  O  O147  1  0.29783957  0.66372477  0.62795195  1
  O  O148  1  0.31731824  1.00494296  0.12998886  1
  O  O149  1  0.29924952  0.99812884  0.62049700  1
  O  O150  1  0.65013984  0.32427138  0.12400968  1
  O  O151  1  0.65050995  0.33237570  0.63221033  1
  O  O152  1  0.63128947  0.66640394  0.12148785  1
  O  O153  1  0.63933202  0.66362733  0.62305161  1
  O  O154  1  0.64326851  0.98325496  0.12306962  1
  O  O155  1  0.64516373  0.98589459  0.62438505  1
  O  O156  1  0.98088635  0.31116133  0.12747200  1
  O  O157  1  0.97975277  0.32954898  0.61668665  1
  O  O158  1  0.96603854  0.67098727  0.13066479  1
  O  O159  1  0.96544502  0.65964307  0.62598898  1
  O  O160  1  0.97999234  0.99082431  0.12521794  1
  O  O161  1  0.98644574  1.00224518  0.63476091  1
  O  O162  1  0.19699626  0.16042354  0.12660806  1
  O  O163  1  0.20461116  0.15860614  0.62438008  1
  O  O164  1  0.20267839  0.51313622  0.13149610  1
  O  O165  1  0.20365438  0.48300182  0.62419261  1
  O  O166  1  0.17954271  0.81243677  0.11587655  1
  O  O167  1  0.18008538  0.82080966  0.63523331  1
  O  O168  1  0.53374628  0.16403110  0.12654093  1
  O  O169  1  0.52016332  0.16741756  0.63110917  1
  O  O170  1  0.52193288  0.49921386  0.12554602  1
  O  O171  1  0.52139996  0.49342568  0.63194694  1
  O  O172  1  0.53048865  0.82731601  0.11916040  1
  O  O173  1  0.53709884  0.82574530  0.63497697  1
  O  O174  1  0.86539751  0.15986436  0.12347767  1
  O  O175  1  0.84342954  0.16401239  0.62650074  1
  O  O176  1  0.85607056  0.49485048  0.12268793  1
  O  O177  1  0.86330518  0.49344969  0.63297037  1
  O  O178  1  0.86574208  0.82703521  0.11479865  1
  O  O179  1  0.85071739  0.82474958  0.63217830  1
  O  O180  1  0.14605993  0.16998603  0.37716937  1
  O  O181  1  0.14643533  0.15722804  0.87665556  1
  O  O182  1  0.15094697  0.52982871  0.37762587  1
  O  O183  1  0.14743830  0.50003056  0.87302982  1
  O  O184  1  0.14927160  0.82496537  0.37276224  1
  O  O185  1  0.12927996  0.85326118  0.87593871  1
  O  O186  1  0.47008958  0.16549512  0.36946731  1
  O  O187  1  0.48428220  0.16874780  0.87742481  1
  O  O188  1  0.46029759  0.51430246  0.37512551  1
  O  O189  1  0.47256850  0.51438613  0.86629984  1
  O  O190  1  0.48878648  0.83347128  0.37052384  1
  O  O191  1  0.46640509  0.83887839  0.87455351  1
  O  O192  1  0.80120505  0.17116371  0.36447723  1
  O  O193  1  0.81305902  0.17200562  0.88207430  1
  O  O194  1  0.80496259  0.51059354  0.36711083  1
  O  O195  1  0.81004832  0.51640390  0.87703073  1
  O  O196  1  0.79618230  0.83235987  0.37240738  1
  O  O197  1  0.79964687  0.84609637  0.87422597  1
  O  O198  1  0.01580006  0.00118861  0.36458573  1
  O  O199  1  0.03574924  0.00173069  0.87138743  1
  O  O200  1  0.03302185  0.33464765  0.38089613  1
  O  O201  1  0.01590255  0.32970408  0.87526198  1
  O  O202  1  0.03029151  0.66940337  0.37893447  1
  O  O203  1  0.01047123  0.67399810  0.87076295  1
  O  O204  1  0.35465837  0.01025227  0.37749894  1
  O  O205  1  0.34666745  -0.00492410  0.87386003  1
  O  O206  1  0.37275530  0.34622816  0.37496087  1
  O  O207  1  0.36368425  0.32993543  0.86884088  1
  O  O208  1  0.35371090  0.67787325  0.36838134  1
  O  O209  1  0.36769919  0.69142159  0.87213252  1
  O  O210  1  0.68555474  0.01308656  0.37207811  1
  O  O211  1  0.69839727  -0.00381120  0.87580598  1
  O  O212  1  0.70198256  0.34345436  0.36988751  1
  O  O213  1  0.69888415  0.33424572  0.87182393  1
  O  O214  1  0.68724495  0.68882699  0.38018235  1
  O  O215  1  0.70576592  0.68601743  0.87408470  1
  O  O216  1  0.07078109  0.09637207  0.02254440  1
  O  O217  1  0.08609052  0.09420158  0.52219032  1
  O  O218  1  0.07243842  0.42550479  0.02328558  1
  O  O219  1  0.06817075  0.42852766  0.52732284  1
  O  O220  1  0.06052007  0.77335586  0.00893379  1
  O  O221  1  0.06953230  0.75336756  0.52385244  1
  O  O222  1  0.40805757  0.10016248  0.02359204  1
  O  O223  1  0.39446745  0.09586476  0.51995538  1
  O  O224  1  0.39922093  0.43337005  0.02361949  1
  O  O225  1  0.39580658  0.43590404  0.52783956  1
  O  O226  1  0.41250701  0.76675636  0.01894969  1
  O  O227  1  0.41426720  0.75725421  0.52532649  1
  O  O228  1  0.73426907  0.09446282  0.02571242  1
  O  O229  1  0.73336481  0.09111108  0.50564605  1
  O  O230  1  0.74175095  0.43309863  0.01111101  1
  O  O231  1  0.73633881  0.43580454  0.50487149  1
  O  O232  1  0.73725387  0.77071761  0.02592220  1
  O  O233  1  0.73419841  0.76148903  0.53098687  1
  O  O234  1  0.09334948  0.24686900  0.02131861  1
  O  O235  1  0.10563921  0.26677425  0.52018952  1
  O  O236  1  0.09641757  0.60363126  0.02572525  1
  O  O237  1  0.09360377  0.59779672  0.53357892  1
  O  O238  1  0.08920275  0.91890156  0.02427422  1
  O  O239  1  0.09928732  0.93230698  0.52260514  1
  O  O240  1  0.43702252  0.25578401  0.00696811  1
  O  O241  1  0.42353130  0.25555118  0.51914578  1
  O  O242  1  0.43119485  0.60326760  0.02330311  1
  O  O243  1  0.43465623  0.60017014  0.53685910  1
  O  O244  1  0.42945387  0.92244943  0.01527123  1
  O  O245  1  0.42017255  0.93240510  0.51633306  1
  O  O246  1  0.76003321  0.25017501  0.01949841  1
  O  O247  1  0.76496288  0.26436838  0.50294802  1
  O  O248  1  0.77027530  0.60088088  0.01967561  1
  O  O249  1  0.76460245  0.60712031  0.52525519  1
  O  O250  1  0.76196353  0.92885914  0.01553284  1
  O  O251  1  0.75120640  0.92522169  0.51760111  1
  O  O252  1  0.24780870  0.07725820  0.27463004  1
  O  O253  1  0.23152711  0.06703684  0.76482261  1
  O  O254  1  0.23643579  0.39997668  0.28680690  1
  O  O255  1  0.24086181  0.39123605  0.76175949  1
  O  O256  1  0.23532889  0.72851500  0.26384749  1
  O  O257  1  0.23514732  0.74988932  0.77510292  1
  O  O258  1  0.57554930  0.07555846  0.27010734  1
  O  O259  1  0.57505890  0.07062396  0.76649482  1
  O  O260  1  0.56727055  0.39943007  0.28045684  1
  O  O261  1  0.56452884  0.40283064  0.77480677  1
  O  O262  1  0.57601910  0.75190684  0.26134938  1
  O  O263  1  0.57248441  0.74242173  0.78118494  1
  O  O264  1  0.90662383  0.07750713  0.26528817  1
  O  O265  1  0.90932039  0.06172773  0.77748357  1
  O  O266  1  0.89745811  0.40899338  0.27418731  1
  O  O267  1  0.89588574  0.40611208  0.77663380  1
  O  O268  1  0.90877447  0.73942691  0.26472678  1
  O  O269  1  0.89818102  0.73868225  0.77667719  1
  O  O270  1  0.26055818  0.23122610  0.27779798  1
  O  O271  1  0.27008543  0.22860408  0.76248165  1
  O  O272  1  0.27549990  0.57545681  0.27313398  1
  O  O273  1  0.26097014  0.57455050  0.76470282  1
  O  O274  1  0.25818274  0.91354554  0.25949487  1
  O  O275  1  0.25378524  0.90274227  0.77751767  1
  O  O276  1  0.59343148  0.23032021  0.27594022  1
  O  O277  1  0.59098227  0.24718831  0.77922778  1
  O  O278  1  0.60402896  0.56752842  0.27919163  1
  O  O279  1  0.58418846  0.57654004  0.76767033  1
  O  O280  1  0.59795476  0.90319422  0.26985319  1
  O  O281  1  0.59877565  0.90058945  0.77600250  1
  O  O282  1  0.91072332  0.24458859  0.27280912  1
  O  O283  1  0.91923572  0.24572790  0.76743710  1
  O  O284  1  0.92822392  0.57413345  0.26862496  1
  O  O285  1  0.92902754  0.57068410  0.76790074  1
  O  O286  1  0.92423199  0.91177820  0.25939638  1
  O  O287  1  0.93079497  0.90516312  0.78063410  1
  O  O288  1  0.26364850  0.23197310  0.47170171  1
  O  O289  1  0.25933811  0.22717204  0.99057040  1
  O  O290  1  0.27803299  0.55947927  0.48488394  1
  O  O291  1  0.26204315  0.57886236  0.98633035  1
  O  O292  1  0.26388118  0.90967433  0.48374716  1
  O  O293  1  0.25217880  0.90487209  0.97741842  1
  O  O294  1  0.59303431  0.23760747  0.46515150  1
  O  O295  1  0.59491207  0.23197985  0.98755448  1
  O  O296  1  0.60652747  0.57458367  0.47508162  1
  O  O297  1  0.58773830  0.58307365  0.96605722  1
  O  O298  1  0.60039210  0.90332758  0.48284562  1
  O  O299  1  0.60265644  0.89901695  0.97821914  1
  O  O300  1  0.92994322  0.24905657  0.47458696  1
  O  O301  1  0.91805089  0.23464808  0.98529956  1
  O  O302  1  0.93531536  0.57144691  0.49253869  1
  O  O303  1  0.92077941  0.57344296  0.98429134  1
  O  O304  1  0.92314466  0.90804471  0.48720318  1
  O  O305  1  0.92309587  0.90239157  0.96619664  1
  O  O306  1  0.23908041  0.07266568  0.47703610  1
  O  O307  1  0.23144103  0.06742246  0.98192783  1
  O  O308  1  0.22746239  0.39174957  0.47462847  1
  O  O309  1  0.23845331  0.39956496  0.98993008  1
  O  O310  1  0.22876471  0.72899546  0.48835741  1
  O  O311  1  0.23813200  0.75296838  0.97042725  1
  O  O312  1  0.57747793  0.07160701  0.48326147  1
  O  O313  1  0.57446380  0.06591684  0.98832087  1
  O  O314  1  0.56855283  0.40407849  0.46907168  1
  O  O315  1  0.56562747  0.39779592  0.96976554  1
  O  O316  1  0.58011546  0.74035055  0.48813226  1
  O  O317  1  0.56847482  0.74615061  0.96790061  1
  O  O318  1  0.91380376  0.08014792  0.48441807  1
  O  O319  1  0.89597426  0.06742212  0.97651793  1
  O  O320  1  0.90884127  0.40086588  0.47523590  1
  O  O321  1  0.89371402  0.40438239  0.97711409  1
  O  O322  1  0.90660376  0.73308183  0.49221923  1
  O  O323  1  0.89489460  0.74098694  0.97264461  1
  O  O324  1  0.09093782  0.24503056  0.23627935  1
  O  O325  1  0.10562453  0.25891092  0.72539039  1
  O  O326  1  0.09386781  0.60621822  0.23203752  1
  O  O327  1  0.08700390  0.59991732  0.71898473  1
  O  O328  1  0.08083644  0.92188188  0.22839130  1
  O  O329  1  0.10258277  0.93450196  0.72951453  1
  O  O330  1  0.43483623  0.25301055  0.23798052  1
  O  O331  1  0.42924527  0.25803095  0.73300575  1
  O  O332  1  0.43052830  0.60757895  0.22011730  1
  O  O333  1  0.43150073  0.59325316  0.72371754  1
  O  O334  1  0.42370319  0.92461132  0.23496001  1
  O  O335  1  0.42848499  0.91845466  0.73177150  1
  O  O336  1  0.75548808  0.24571910  0.22322888  1
  O  O337  1  0.75413974  0.26215968  0.74389690  1
  O  O338  1  0.77230434  0.60030575  0.22139038  1
  O  O339  1  0.77299702  0.59944338  0.73182996  1
  O  O340  1  0.74714106  0.92433469  0.22799804  1
  O  O341  1  0.76034858  0.92587974  0.73000805  1
  O  O342  1  0.07031097  0.09340238  0.22343467  1
  O  O343  1  0.07701002  0.09235300  0.72580008  1
  O  O344  1  0.07547366  0.42457453  0.23574436  1
  O  O345  1  0.07024037  0.42950144  0.71703094  1
  O  O346  1  0.06426705  0.75881073  0.22291168  1
  O  O347  1  0.06485244  0.76431647  0.73928046  1
  O  O348  1  0.40306860  0.09901087  0.23140110  1
  O  O349  1  0.40860135  0.09795216  0.72869374  1
  O  O350  1  0.39277356  0.43972217  0.22579678  1
  O  O351  1  0.39868335  0.42853471  0.72674956  1
  O  O352  1  0.40945452  0.76159476  0.22232699  1
  O  O353  1  0.42038867  0.75722748  0.72377062  1
  O  O354  1  0.73191213  0.09555616  0.22343755  1
  O  O355  1  0.73985409  0.08292646  0.73739968  1
  O  O356  1  0.74166932  0.43708019  0.23684136  1
  O  O357  1  0.73917571  0.42986409  0.73431847  1
  O  O358  1  0.74158163  0.75842885  0.21118568  1
  O  O359  1  0.73821378  0.76853479  0.72550659  1
