# generated using pymatgen
data_BaLaInIrO6
_symmetry_space_group_name_H-M   'P 1'
_cell_length_a   17.50658860
_cell_length_b   17.53514121
_cell_length_c   16.50164615
_cell_angle_alpha   90.06508312
_cell_angle_beta   90.01010464
_cell_angle_gamma   89.99127948
_symmetry_Int_Tables_number   1
_chemical_formula_structural   BaLaInIrO6
_chemical_formula_sum   'Ba36 La36 In36 Ir36 O216'
_cell_volume   5065.68023520
_cell_formula_units_Z   36
loop_
 _symmetry_equiv_pos_site_id
 _symmetry_equiv_pos_as_xyz
  1  'x, y, z'
loop_
 _atom_site_type_symbol
 _atom_site_label
 _atom_site_symmetry_multiplicity
 _atom_site_fract_x
 _atom_site_fract_y
 _atom_site_fract_z
 _atom_site_occupancy
  Ba  Ba0  1  0.49939540  0.00917496  0.62954342  1
  Ba  Ba1  1  0.66634608  0.49646912  0.87600470  1
  Ba  Ba2  1  0.66659919  0.15580218  0.37309820  1
  Ba  Ba3  1  0.83993443  0.99279584  0.37874019  1
  Ba  Ba4  1  0.16566459  0.34332789  0.62768741  1
  Ba  Ba5  1  0.32998009  0.50333869  0.62284441  1
  Ba  Ba6  1  0.16513826  0.67480830  0.12336679  1
  Ba  Ba7  1  0.83076937  0.65361536  0.37504321  1
  Ba  Ba8  1  0.49639322  0.33966369  0.62110641  1
  Ba  Ba9  1  -0.00270040  0.82365856  0.37446721  1
  Ba  Ba10  1  0.16918251  0.32720535  0.37341024  1
  Ba  Ba11  1  0.33695685  0.84277929  0.63154429  1
  Ba  Ba12  1  1.00127014  0.17753281  0.62550232  1
  Ba  Ba13  1  0.16639072  0.65280026  0.87434707  1
  Ba  Ba14  1  0.83226892  0.66903743  0.12859842  1
  Ba  Ba15  1  -0.00267063  0.49139259  0.37210297  1
  Ba  Ba16  1  0.83336126  0.32572526  0.37027678  1
  Ba  Ba17  1  0.83322574  0.34595272  0.12861968  1
  Ba  Ba18  1  0.83720087  0.65619331  0.87628770  1
  Ba  Ba19  1  0.49857531  0.34374030  0.12483827  1
  Ba  Ba20  1  0.66688355  0.17488579  0.62716848  1
  Ba  Ba21  1  -0.00329240  0.16073631  0.37831334  1
  Ba  Ba22  1  0.66814736  0.51179516  0.12580650  1
  Ba  Ba23  1  0.32970731  0.49122770  0.36934783  1
  Ba  Ba24  1  0.67035131  0.82719310  0.87379442  1
  Ba  Ba25  1  0.83384053  0.00170480  0.12816511  1
  Ba  Ba26  1  0.16898456  0.99616198  0.37529886  1
  Ba  Ba27  1  0.82875017  0.01279911  0.62777798  1
  Ba  Ba28  1  1.00351840  0.83730181  0.12250934  1
  Ba  Ba29  1  0.99974317  0.50694578  0.12831293  1
  Ba  Ba30  1  0.33639147  0.18067024  0.62689801  1
  Ba  Ba31  1  0.49841570  0.67469610  0.62703254  1
  Ba  Ba32  1  0.66573645  0.84402353  0.62838554  1
  Ba  Ba33  1  0.49984102  0.65961819  0.87040051  1
  Ba  Ba34  1  0.50433750  0.00848721  0.12108791  1
  Ba  Ba35  1  0.49835004  0.67332374  0.12045060  1
  La  La36  1  0.50227408  0.98319041  0.37622571  1
  La  La37  1  0.33849810  0.51504532  0.12319629  1
  La  La38  1  0.16076774  0.01840533  0.12313112  1
  La  La39  1  0.33110064  0.15322136  0.87994731  1
  La  La40  1  1.00192401  0.84575455  0.62217353  1
  La  La41  1  0.66864555  0.82725102  0.37154374  1
  La  La42  1  -0.00350120  0.81410602  0.87502544  1
  La  La43  1  0.33066103  0.81308723  0.87552285  1
  La  La44  1  1.00341191  0.51143340  0.62412451  1
  La  La45  1  0.17289010  0.98315015  0.87509422  1
  La  La46  1  0.33625477  0.18152904  0.12959389  1
  La  La47  1  0.33232127  0.48592776  0.87112457  1
  La  La48  1  1.00522880  0.18340409  0.13567104  1
  La  La49  1  0.50331324  0.31773783  0.37399353  1
  La  La50  1  0.83159828  0.34035088  0.62145261  1
  La  La51  1  0.16225960  0.67299123  0.61715145  1
  La  La52  1  0.16202928  0.35131171  0.12766821  1
  La  La53  1  0.66401313  0.15409434  0.87721992  1
  La  La54  1  0.50370353  0.98756780  0.87492222  1
  La  La55  1  0.67363145  0.18745738  0.12573463  1
  La  La56  1  0.82863037  0.68275756  0.62439648  1
  La  La57  1  0.50542515  0.65080973  0.37603575  1
  La  La58  1  0.67080546  0.51306043  0.62596854  1
  La  La59  1  -0.00758783  0.48477990  0.87632450  1
  La  La60  1  0.16774564  0.65224827  0.36517912  1
  La  La61  1  0.66864948  0.83050411  0.13140024  1
  La  La62  1  0.50455557  0.32043879  0.86702119  1
  La  La63  1  0.33212999  0.15642294  0.38184793  1
  La  La64  1  -0.00440751  0.15106662  0.87478572  1
  La  La65  1  0.33561697  0.84947341  0.12208654  1
  La  La66  1  0.16774032  0.32298230  0.87610190  1
  La  La67  1  0.83710044  0.97893410  0.87139285  1
  La  La68  1  0.83629546  0.32175592  0.87706355  1
  La  La69  1  0.16304161  0.01902172  0.62518818  1
  La  La70  1  0.32678126  0.81813444  0.37846173  1
  La  La71  1  0.66278479  0.48421127  0.36824513  1
  In  In72  1  0.00166419  0.00008238  0.50344152  1
  In  In73  1  0.16511097  0.49804813  0.49850087  1
  In  In74  1  0.33057794  0.33275443  0.00214369  1
  In  In75  1  0.49654052  0.49818421  -0.00294687  1
  In  In76  1  0.16711019  0.83292826  0.50001732  1
  In  In77  1  0.50062013  0.49812165  0.74530744  1
  In  In78  1  0.49868884  0.16544380  0.00212576  1
  In  In79  1  0.66532753  0.33468924  0.50177330  1
  In  In80  1  0.66459555  -0.00059011  0.24690689  1
  In  In81  1  0.66707295  0.33478882  -0.00466454  1
  In  In82  1  0.16829551  0.17273779  0.49998702  1
  In  In83  1  0.16952603  0.83513862  0.24934354  1
  In  In84  1  0.83546702  0.49735624  0.74828948  1
  In  In85  1  0.00222779  -0.00139079  0.75346865  1
  In  In86  1  0.33719346  0.00116751  0.24678572  1
  In  In87  1  0.66708126  -0.00328716  0.49797139  1
  In  In88  1  0.66671035  0.66402516  0.49869965  1
  In  In89  1  0.83390039  0.16502670  0.24727064  1
  In  In90  1  0.50030643  0.83441358  0.75336183  1
  In  In91  1  0.16685003  0.16941388  0.75663595  1
  In  In92  1  0.00339416  -0.00150664  0.24856231  1
  In  In93  1  0.83132553  0.16842743  0.50121853  1
  In  In94  1  0.50050538  0.16349676  0.49882806  1
  In  In95  1  0.33618766  0.00056316  0.50129998  1
  In  In96  1  0.33240985  0.66395139  0.49716226  1
  In  In97  1  0.32847036  0.66192079  0.74843041  1
  In  In98  1  0.49796667  0.83041387  0.49821152  1
  In  In99  1  0.16637179  0.83216947  0.74951460  1
  In  In100  1  0.83567271  0.83153087  0.00275078  1
  In  In101  1  0.00320948  0.33004280  -0.00084234  1
  In  In102  1  0.00280186  0.66180097  0.00021946  1
  In  In103  1  0.66810429  -0.00071844  0.00133421  1
  In  In104  1  0.83523400  0.16345552  0.00107772  1
  In  In105  1  -0.00384199  0.66575792  0.49942878  1
  In  In106  1  0.66496367  0.66841515  -0.00191045  1
  In  In107  1  0.33659601  0.66950132  0.24768636  1
  Ir  Ir108  1  0.32798015  -0.00022130  -0.00071079  1
  Ir  Ir109  1  0.33415764  0.00408312  0.76100275  1
  Ir  Ir110  1  0.83764811  0.82885130  0.74851781  1
  Ir  Ir111  1  0.16030593  0.49770469  0.75452171  1
  Ir  Ir112  1  0.49381212  0.83590307  0.00194898  1
  Ir  Ir113  1  0.83376629  0.49794034  -0.00013251  1
  Ir  Ir114  1  0.83341754  0.49699451  0.50227582  1
  Ir  Ir115  1  -0.00237535  0.66345423  0.74657393  1
  Ir  Ir116  1  0.50276782  0.49715285  0.49377642  1
  Ir  Ir117  1  0.67139800  0.66642162  0.74682746  1
  Ir  Ir118  1  0.33269211  0.33272422  0.24932183  1
  Ir  Ir119  1  0.49800043  0.83160769  0.24494705  1
  Ir  Ir120  1  0.49729375  0.16878437  0.75676093  1
  Ir  Ir121  1  0.16803838  0.49798301  0.24486359  1
  Ir  Ir122  1  0.83321460  0.82993010  0.50221561  1
  Ir  Ir123  1  0.33427890  0.33326103  0.75399236  1
  Ir  Ir124  1  0.82958632  0.50068040  0.25206970  1
  Ir  Ir125  1  -0.00408028  0.33744764  0.50238774  1
  Ir  Ir126  1  0.16795682  0.49706675  -0.00371620  1
  Ir  Ir127  1  0.33818885  0.33703311  0.49591667  1
  Ir  Ir128  1  0.66981633  0.33315435  0.75050310  1
  Ir  Ir129  1  -0.00040374  0.66460197  0.25010954  1
  Ir  Ir130  1  0.49769625  0.49791747  0.25068058  1
  Ir  Ir131  1  0.17305557  0.17095187  0.24589784  1
  Ir  Ir132  1  0.66204474  0.66609791  0.25316928  1
  Ir  Ir133  1  0.16556475  0.16634701  0.00165297  1
  Ir  Ir134  1  0.32892385  0.66672884  -0.00032829  1
  Ir  Ir135  1  0.00385393  0.33598894  0.25162101  1
  Ir  Ir136  1  0.66998744  0.00583490  0.75606812  1
  Ir  Ir137  1  0.16949584  0.83661526  -0.00283316  1
  Ir  Ir138  1  0.83197789  0.17218476  0.75672709  1
  Ir  Ir139  1  0.66220810  0.33556398  0.25027422  1
  Ir  Ir140  1  0.00715314  0.00122577  -0.00305283  1
  Ir  Ir141  1  -0.00096179  0.33537507  0.75156246  1
  Ir  Ir142  1  0.49799614  0.16957735  0.24688776  1
  Ir  Ir143  1  0.83308538  0.82755776  0.25348374  1
  O  O144  1  0.29777345  0.32001484  0.13011488  1
  O  O145  1  0.31438789  0.33331544  0.62175365  1
  O  O146  1  0.31338891  0.65745379  0.11979245  1
  O  O147  1  0.29626908  0.65938710  0.62350691  1
  O  O148  1  0.29632059  0.98917144  0.11796641  1
  O  O149  1  0.30229597  0.99946627  0.64090865  1
  O  O150  1  0.64674303  0.32883262  0.12876628  1
  O  O151  1  0.64601285  0.33183999  0.63308050  1
  O  O152  1  0.64948421  0.67254419  0.13205838  1
  O  O153  1  0.65106401  0.65733191  0.62714933  1
  O  O154  1  0.65193038  0.96870219  0.12398789  1
  O  O155  1  0.65166089  1.00002322  0.63560333  1
  O  O156  1  0.98737671  0.32840466  0.12954463  1
  O  O157  1  0.96780782  0.33497911  0.62759478  1
  O  O158  1  0.98431880  0.66447143  0.12942853  1
  O  O159  1  0.96732636  0.64867695  0.63005896  1
  O  O160  1  0.98525780  0.99661239  0.11348286  1
  O  O161  1  0.97647040  0.98340445  0.63188613  1
  O  O162  1  0.20126752  0.15816658  0.12151379  1
  O  O163  1  0.18672113  0.16362774  0.63091268  1
  O  O164  1  0.20082951  0.49022149  0.11838763  1
  O  O165  1  0.17842388  0.50065767  0.63480632  1
  O  O166  1  0.19994938  0.82895443  0.11604668  1
  O  O167  1  0.18982256  0.80769418  0.62685759  1
  O  O168  1  0.53569896  0.16674856  0.12938810  1
  O  O169  1  0.51538123  0.16606522  0.63591547  1
  O  O170  1  0.51550120  0.49782087  0.13113154  1
  O  O171  1  0.53380577  0.49273218  0.61430018  1
  O  O172  1  0.53103990  0.82884911  0.12363663  1
  O  O173  1  0.51361299  0.83696274  0.62792551  1
  O  O174  1  0.87106552  0.16651442  0.12273735  1
  O  O175  1  0.85064477  0.17475409  0.63888648  1
  O  O176  1  0.85208159  0.50306003  0.12553041  1
  O  O177  1  0.86468147  0.48426524  0.62112754  1
  O  O178  1  0.84953415  0.82773008  0.13281176  1
  O  O179  1  0.86377344  0.82233484  0.62461819  1
  O  O180  1  0.14936775  0.17163965  0.36490263  1
  O  O181  1  0.13043208  0.18198226  0.88502926  1
  O  O182  1  0.14755915  0.50430306  0.36566076  1
  O  O183  1  0.13012244  0.49498004  0.87605330  1
  O  O184  1  0.14376022  0.84342754  0.37366376  1
  O  O185  1  0.13263078  0.84714649  0.87828883  1
  O  O186  1  0.46751520  0.17864813  0.36405237  1
  O  O187  1  0.46716033  0.17973975  0.87495976  1
  O  O188  1  0.47799035  0.51000996  0.37275782  1
  O  O189  1  0.46799233  0.50121809  0.87124267  1
  O  O190  1  0.46497198  0.83991928  0.36177295  1
  O  O191  1  0.46584236  0.84596634  0.88309112  1
  O  O192  1  0.81785535  0.17079465  0.37246865  1
  O  O193  1  0.80237471  0.18210478  0.87420140  1
  O  O194  1  0.80047863  0.49897939  0.37814561  1
  O  O195  1  0.82003086  0.49446274  0.87821634  1
  O  O196  1  0.80488475  0.83186749  0.37915831  1
  O  O197  1  0.82354637  0.83065134  0.86900392  1
  O  O198  1  0.01843795  -0.00428704  0.37549039  1
  O  O199  1  0.03706727  0.01156000  0.88017897  1
  O  O200  1  0.02079008  0.33806801  0.37970896  1
  O  O201  1  0.02996638  0.34742141  0.87128884  1
  O  O202  1  0.02659977  0.66270790  0.37062702  1
  O  O203  1  0.01515553  0.67484674  0.86743466  1
  O  O204  1  0.36878182  0.02094821  0.36806163  1
  O  O205  1  0.36626461  0.01481120  0.88177794  1
  O  O206  1  0.36627290  0.33908870  0.37187047  1
  O  O207  1  0.36350196  0.34375351  0.87348353  1
  O  O208  1  0.37127212  0.67692858  0.37006972  1
  O  O209  1  0.34838534  0.66843372  0.88204205  1
  O  O210  1  0.68731845  -0.00882323  0.36928639  1
  O  O211  1  0.69945841  0.01478978  0.87400361  1
  O  O212  1  0.68159316  0.34319095  0.37051320  1
  O  O213  1  0.70119913  0.33865703  0.86676453  1
  O  O214  1  0.68056185  0.67350954  0.37147106  1
  O  O215  1  0.68769457  0.66826871  0.86672515  1
  O  O216  1  0.06925715  0.10120948  0.02782057  1
  O  O217  1  0.08393971  0.08906972  0.52532321  1
  O  O218  1  0.07962398  0.42501244  0.01829871  1
  O  O219  1  0.06340071  0.42984178  0.52226116  1
  O  O220  1  0.08030294  0.76411429  0.00773480  1
  O  O221  1  0.06588483  0.75953378  0.53119228  1
  O  O222  1  0.39121296  0.09528947  0.02263352  1
  O  O223  1  0.40002789  0.10372396  0.51275515  1
  O  O224  1  0.39325484  0.43390257  0.02285069  1
  O  O225  1  0.40827363  0.43103454  0.51232137  1
  O  O226  1  0.39348682  0.76664106  0.01873166  1
  O  O227  1  0.39656142  0.76515065  0.51074704  1
  O  O228  1  0.72889329  0.10370486  0.02343586  1
  O  O229  1  0.73755982  0.09253960  0.51545961  1
  O  O230  1  0.74375687  0.43029948  0.01482406  1
  O  O231  1  0.73672839  0.43568486  0.52256028  1
  O  O232  1  0.73336800  0.76629744  0.02017892  1
  O  O233  1  0.74199939  0.75933892  0.51789464  1
  O  O234  1  0.10216631  0.25924078  0.03124257  1
  O  O235  1  0.08783899  0.26841351  0.51594307  1
  O  O236  1  0.09872735  0.58658871  0.01388716  1
  O  O237  1  0.08994528  0.59194417  0.52527909  1
  O  O238  1  0.10850089  0.93856562  0.01786777  1
  O  O239  1  0.09797352  0.92721549  0.53972445  1
  O  O240  1  0.41771830  0.25287364  0.02656055  1
  O  O241  1  0.42772019  0.26863074  0.50164688  1
  O  O242  1  0.41488496  0.59336833  0.01824834  1
  O  O243  1  0.43691952  0.58962157  0.51059410  1
  O  O244  1  0.41749002  0.92534466  0.02726553  1
  O  O245  1  0.43896319  0.93755028  0.50130068  1
  O  O246  1  0.76069636  0.26110079  0.01815522  1
  O  O247  1  0.76402459  0.26912118  0.52300990  1
  O  O248  1  0.76329877  0.58891409  0.01067149  1
  O  O249  1  0.76606887  0.58939174  0.52883257  1
  O  O250  1  0.77227179  0.93301512  -0.00419978  1
  O  O251  1  0.76549159  0.91878236  0.51842927  1
  O  O252  1  0.24200084  0.08090100  0.26146784  1
  O  O253  1  0.24232746  0.07188427  0.78681400  1
  O  O254  1  0.23661394  0.40102837  0.25812676  1
  O  O255  1  0.23314227  0.40140229  0.78054433  1
  O  O256  1  0.23925223  0.73614867  0.27725767  1
  O  O257  1  0.24252110  0.74437807  0.77943997  1
  O  O258  1  0.56009517  0.07417506  0.27098207  1
  O  O259  1  0.57163352  0.07555232  0.78307472  1
  O  O260  1  0.56852569  0.40681313  0.27781788  1
  O  O261  1  0.57391360  0.39719526  0.77241672  1
  O  O262  1  0.56610914  0.73596578  0.27488360  1
  O  O263  1  0.58489091  0.74193896  0.76354811  1
  O  O264  1  0.91283398  0.07424923  0.25978037  1
  O  O265  1  0.89953423  0.07717959  0.78240308  1
  O  O266  1  0.90661555  0.40970508  0.26642319  1
  O  O267  1  0.90314048  0.39575507  0.77343388  1
  O  O268  1  0.90708296  0.73451898  0.27021908  1
  O  O269  1  0.89834404  0.72741863  0.75563698  1
  O  O270  1  0.27159701  0.23389387  0.27151945  1
  O  O271  1  0.26396435  0.24358344  0.78596994  1
  O  O272  1  0.25360751  0.57354954  0.25917602  1
  O  O273  1  0.25661059  0.55861567  0.77777324  1
  O  O274  1  0.27654361  0.89736059  0.26621813  1
  O  O275  1  0.26960714  0.91035710  0.78566483  1
  O  O276  1  0.58751783  0.24516648  0.27333931  1
  O  O277  1  0.59778453  0.23795847  0.78114812  1
  O  O278  1  0.59249547  0.56930768  0.27799889  1
  O  O279  1  0.60156221  0.57348620  0.75657681  1
  O  O280  1  0.59000578  0.89562143  0.27284504  1
  O  O281  1  0.59324243  0.92015391  0.77737886  1
  O  O282  1  0.93438112  0.24673488  0.26016380  1
  O  O283  1  0.93109363  0.23805294  0.78182123  1
  O  O284  1  0.92335033  0.57276913  0.26629178  1
  O  O285  1  0.94084067  0.56152751  0.76774127  1
  O  O286  1  0.92091811  0.89985057  0.26086680  1
  O  O287  1  0.93169566  0.89673743  0.77730309  1
  O  O288  1  0.26947859  0.24475772  0.47613780  1
  O  O289  1  0.25663525  0.23442161  0.97254126  1
  O  O290  1  0.25148546  0.57691008  0.47174709  1
  O  O291  1  0.26582824  0.56383979  0.97710268  1
  O  O292  1  0.27028290  0.90107015  0.47787435  1
  O  O293  1  0.26311189  0.90417977  0.96996578  1
  O  O294  1  0.58804973  0.24351686  0.47931394  1
  O  O295  1  0.59449780  0.23693770  0.97120261  1
  O  O296  1  0.59940509  0.56017336  0.47599700  1
  O  O297  1  0.58639871  0.57895493  0.98729239  1
  O  O298  1  0.59918703  0.89600134  0.47165006  1
  O  O299  1  0.57965500  0.90986831  0.97630437  1
  O  O300  1  0.92746560  0.24993446  0.49026621  1
  O  O301  1  0.93217193  0.23694983  0.96839506  1
  O  O302  1  0.92389761  0.56418578  0.48851831  1
  O  O303  1  0.92966898  0.56306593  0.97947809  1
  O  O304  1  0.92643412  0.89571849  0.49300372  1
  O  O305  1  0.94266855  0.90750833  0.97017109  1
  O  O306  1  0.24533031  0.07966662  0.48158429  1
  O  O307  1  0.23359475  0.07020640  0.97177533  1
  O  O308  1  0.24621429  0.40578422  0.48800338  1
  O  O309  1  0.23271125  0.40388655  0.97308654  1
  O  O310  1  0.23070633  0.73174248  0.46525385  1
  O  O311  1  0.23995067  0.74527775  0.97258942  1
  O  O312  1  0.56569114  0.06402287  0.47411554  1
  O  O313  1  0.56896164  0.07048505  0.97015250  1
  O  O314  1  0.56852794  0.40641854  0.46803494  1
  O  O315  1  0.56534815  0.39880221  0.97211952  1
  O  O316  1  0.56657538  0.73002970  0.47559879  1
  O  O317  1  0.56520074  0.75029579  0.98127133  1
  O  O318  1  0.91208355  0.07983131  0.49492136  1
  O  O319  1  0.91170080  0.06517854  0.96710402  1
  O  O320  1  0.89826450  0.40269905  0.48544696  1
  O  O321  1  0.90549950  0.40516541  0.97862796  1
  O  O322  1  0.89674619  0.73511031  0.49171950  1
  O  O323  1  0.91647955  0.74468130  0.98371031  1
  O  O324  1  0.10002820  0.26478169  0.22293712  1
  O  O325  1  0.09346038  0.27172749  0.74341318  1
  O  O326  1  0.09618945  0.59380646  0.23288642  1
  O  O327  1  0.09590964  0.59871330  0.72518853  1
  O  O328  1  0.10318333  0.93445635  0.21857828  1
  O  O329  1  0.11022207  0.93792820  0.73148224  1
  O  O330  1  0.42531184  0.26338799  0.22759231  1
  O  O331  1  0.43152250  0.26696986  0.73916685  1
  O  O332  1  0.42632328  0.58656426  0.23110304  1
  O  O333  1  0.42283997  0.58855986  0.72931001  1
  O  O334  1  0.43462788  0.92433849  0.22282709  1
  O  O335  1  0.42594560  0.93906512  0.74692947  1
  O  O336  1  0.74931166  0.26081690  0.22907534  1
  O  O337  1  0.77096320  0.27269227  0.73402635  1
  O  O338  1  0.75542476  0.59304574  0.23587615  1
  O  O339  1  0.76243236  0.59361007  0.72293403  1
  O  O340  1  0.75826851  0.90976483  0.23602122  1
  O  O341  1  0.77094377  0.93287267  0.74756603  1
  O  O342  1  0.08114026  0.10276502  0.22008648  1
  O  O343  1  0.07118574  0.09754353  0.74074000  1
  O  O344  1  0.08125361  0.42228396  0.22635876  1
  O  O345  1  0.05867840  0.43512655  0.73098581  1
  O  O346  1  0.07250949  0.75207536  0.23522918  1
  O  O347  1  0.05631733  0.76443213  0.73195626  1
  O  O348  1  0.40778134  0.10279608  0.21675566  1
  O  O349  1  0.39788007  0.10364071  0.74576508  1
  O  O350  1  0.39974876  0.43065460  0.22387349  1
  O  O351  1  0.40136773  0.42257325  0.73454769  1
  O  O352  1  0.40477619  0.76958836  0.21635931  1
  O  O353  1  0.40516437  0.75989202  0.75122277  1
  O  O354  1  0.73163357  0.09811195  0.21824293  1
  O  O355  1  0.73656732  0.10538366  0.74239567  1
  O  O356  1  0.73234387  0.43148168  0.23845624  1
  O  O357  1  0.73558529  0.42640892  0.72083343  1
  O  O358  1  0.72940545  0.76320038  0.23955571  1
  O  O359  1  0.74655298  0.75614389  0.72203752  1
