# generated using pymatgen
data_BaLaInIrO6
_symmetry_space_group_name_H-M   'P 1'
_cell_length_a   17.53764854
_cell_length_b   17.55388165
_cell_length_c   16.49381597
_cell_angle_alpha   90.04599495
_cell_angle_beta   90.02443181
_cell_angle_gamma   89.97489944
_symmetry_Int_Tables_number   1
_chemical_formula_structural   BaLaInIrO6
_chemical_formula_sum   'Ba36 La36 In36 Ir36 O216'
_cell_volume   5077.68145102
_cell_formula_units_Z   36
loop_
 _symmetry_equiv_pos_site_id
 _symmetry_equiv_pos_as_xyz
  1  'x, y, z'
loop_
 _atom_site_type_symbol
 _atom_site_label
 _atom_site_symmetry_multiplicity
 _atom_site_fract_x
 _atom_site_fract_y
 _atom_site_fract_z
 _atom_site_occupancy
  Ba  Ba0  1  0.66414837  0.15756842  0.37473273  1
  Ba  Ba1  1  0.50314629  0.00650538  0.62435713  1
  Ba  Ba2  1  0.33512726  0.84203583  0.62232907  1
  Ba  Ba3  1  0.00112105  0.82273444  0.87482239  1
  Ba  Ba4  1  0.66841497  0.49580587  0.87751081  1
  Ba  Ba5  1  0.33396695  0.15820056  0.37701152  1
  Ba  Ba6  1  1.00169347  0.84136329  0.12250222  1
  Ba  Ba7  1  0.49634891  0.34278659  0.12634344  1
  Ba  Ba8  1  0.49518365  0.99682844  0.87704854  1
  Ba  Ba9  1  0.50142081  0.66094265  0.87364319  1
  Ba  Ba10  1  0.33467200  0.17035656  0.12532837  1
  Ba  Ba11  1  0.83615911  0.65949988  0.87594097  1
  Ba  Ba12  1  0.16760102  0.98691308  0.87590450  1
  Ba  Ba13  1  0.83473064  0.67728562  0.11985351  1
  Ba  Ba14  1  0.50300047  0.34144445  0.62553872  1
  Ba  Ba15  1  0.66351076  0.50604186  0.12466512  1
  Ba  Ba16  1  -0.00517531  0.49046873  0.87533529  1
  Ba  Ba17  1  0.17041554  0.32041794  0.87193500  1
  Ba  Ba18  1  0.67128463  0.17848833  0.63020490  1
  Ba  Ba19  1  0.32901096  0.49031309  0.87493535  1
  Ba  Ba20  1  0.83398599  0.31765552  0.37801328  1
  Ba  Ba21  1  0.99966196  0.51192319  0.62280164  1
  Ba  Ba22  1  0.33564116  0.82579460  0.37566435  1
  Ba  Ba23  1  0.66651985  0.17545985  0.12448296  1
  Ba  Ba24  1  0.67123048  0.51299018  0.62364462  1
  Ba  Ba25  1  0.33270741  0.50716490  0.12182517  1
  Ba  Ba26  1  0.33964284  0.84064660  0.12840542  1
  Ba  Ba27  1  0.16662179  0.01062482  0.12546417  1
  Ba  Ba28  1  1.00093510  0.84569572  0.62843683  1
  Ba  Ba29  1  0.83201184  0.68152678  0.62752266  1
  Ba  Ba30  1  0.49489199  0.33070872  0.87637277  1
  Ba  Ba31  1  0.66456528  0.49319583  0.37505968  1
  Ba  Ba32  1  1.00539054  0.17272260  0.12903266  1
  Ba  Ba33  1  -0.00345148  0.15363798  0.37651203  1
  Ba  Ba34  1  0.32959576  0.48730116  0.37414999  1
  Ba  Ba35  1  0.66827029  0.84371823  0.11996998  1
  La  La36  1  0.15727078  0.68349507  0.62809599  1
  La  La37  1  0.66407894  0.82334527  0.37075879  1
  La  La38  1  0.84239859  0.98326816  0.87355010  1
  La  La39  1  0.50944085  0.31878673  0.37392636  1
  La  La40  1  0.99756731  0.17617472  0.62312358  1
  La  La41  1  0.50458592  0.99082540  0.37217129  1
  La  La42  1  0.17062479  0.98972253  0.37033100  1
  La  La43  1  0.83152978  0.01777226  0.12630999  1
  La  La44  1  0.66580786  0.84227182  0.63017599  1
  La  La45  1  0.17283951  0.65121666  0.37751678  1
  La  La46  1  0.83029040  0.99545367  0.37245169  1
  La  La47  1  0.49493063  0.67290994  0.12439266  1
  La  La48  1  0.16218778  0.68246481  0.12583768  1
  La  La49  1  0.16250189  0.34476276  0.12813928  1
  La  La50  1  0.66748663  0.81781510  0.87167807  1
  La  La51  1  0.49497841  0.01289896  0.12627298  1
  La  La52  1  0.84089706  0.31822448  0.87378162  1
  La  La53  1  0.82849793  0.34252828  0.12518927  1
  La  La54  1  -0.00225834  0.82411992  0.37519143  1
  La  La55  1  -0.00330354  0.15087581  0.87329006  1
  La  La56  1  0.83302260  0.65131925  0.37242138  1
  La  La57  1  0.33704257  0.17762063  0.62607899  1
  La  La58  1  0.66475485  0.15653623  0.87577430  1
  La  La59  1  0.82524305  0.34953420  0.62709323  1
  La  La60  1  0.34035237  0.51666335  0.63255104  1
  La  La61  1  0.50271881  0.65493463  0.37198328  1
  La  La62  1  0.49824468  0.67754749  0.62450502  1
  La  La63  1  0.16004829  0.01334261  0.62603185  1
  La  La64  1  0.16681630  0.65379607  0.87462687  1
  La  La65  1  0.32520734  0.81360619  0.87410109  1
  La  La66  1  0.82727853  0.01043375  0.62634166  1
  La  La67  1  0.16697409  0.31239029  0.37623459  1
  La  La68  1  0.32997646  0.15764253  0.87390575  1
  La  La69  1  1.00787169  0.51643587  0.12774303  1
  La  La70  1  -0.00684398  0.47976576  0.37412575  1
  La  La71  1  0.16399486  0.34737840  0.62248026  1
  In  In72  1  0.66826649  0.33353314  -0.00185949  1
  In  In73  1  0.49604836  0.50143342  0.50180149  1
  In  In74  1  0.83629655  0.49782345  0.00204597  1
  In  In75  1  0.50030468  0.16854772  -0.00106106  1
  In  In76  1  0.49966427  0.16306440  0.50270085  1
  In  In77  1  0.16516029  0.83624056  0.49911651  1
  In  In78  1  0.66754445  0.67317064  0.50015128  1
  In  In79  1  0.66978650  -0.00088196  0.75604267  1
  In  In80  1  0.00098613  -0.00129441  0.00008296  1
  In  In81  1  0.50099665  0.83511640  -0.00204891  1
  In  In82  1  -0.00075153  0.32965085  0.00135008  1
  In  In83  1  0.49735804  0.83483316  0.75077235  1
  In  In84  1  0.00398611  0.66704369  0.25490777  1
  In  In85  1  0.33174567  0.33363903  0.74694155  1
  In  In86  1  0.66819385  0.66946290  0.24749618  1
  In  In87  1  0.83216202  0.83586904  0.25046595  1
  In  In88  1  -0.00039859  0.33083706  0.74820615  1
  In  In89  1  0.33090182  0.66696334  0.25001130  1
  In  In90  1  0.83523248  0.50229977  0.49895761  1
  In  In91  1  0.33289879  -0.00325432  0.00099452  1
  In  In92  1  0.32930452  -0.00072372  0.74542242  1
  In  In93  1  0.33212701  0.66781335  0.50090453  1
  In  In94  1  0.83722535  0.49834121  0.24700714  1
  In  In95  1  0.33063891  0.33502314  0.50156658  1
  In  In96  1  0.49671680  0.49977425  0.25002471  1
  In  In97  1  0.16394011  0.50123417  0.74611971  1
  In  In98  1  0.16281958  0.49936064  0.00161247  1
  In  In99  1  0.00065378  -0.00155719  0.25268144  1
  In  In100  1  0.49860124  0.16575661  0.25020946  1
  In  In101  1  0.32949631  0.33069567  0.00278632  1
  In  In102  1  -0.00027378  0.32832285  0.50147428  1
  In  In103  1  0.66746422  0.33254629  0.50030444  1
  In  In104  1  0.83148348  0.83778968  0.49726463  1
  In  In105  1  0.00187743  0.66825264  0.49719991  1
  In  In106  1  0.66596721  0.66707510  0.00050379  1
  In  In107  1  0.49972722  0.16869236  0.75043051  1
  Ir  Ir108  1  0.00083553  0.00128236  0.50187521  1
  Ir  Ir109  1  0.00376804  0.66974725  0.00109102  1
  Ir  Ir110  1  0.16171692  0.49636713  0.25434034  1
  Ir  Ir111  1  0.16284994  0.16085533  0.74525211  1
  Ir  Ir112  1  0.66774193  0.00029268  0.24708355  1
  Ir  Ir113  1  0.33079234  0.66598961  -0.00145040  1
  Ir  Ir114  1  0.83501250  0.83657834  0.75004381  1
  Ir  Ir115  1  0.83537543  0.15866396  0.50257413  1
  Ir  Ir116  1  -0.00082267  0.32884357  0.24978250  1
  Ir  Ir117  1  0.67420058  0.33749765  0.75422841  1
  Ir  Ir118  1  0.16759771  0.16792477  0.25168927  1
  Ir  Ir119  1  0.66802506  0.33179824  0.24911151  1
  Ir  Ir120  1  0.16636406  0.83463078  0.24866638  1
  Ir  Ir121  1  0.16980012  0.82755230  -0.00101766  1
  Ir  Ir122  1  0.16427863  0.16619989  -0.00073644  1
  Ir  Ir123  1  0.16631479  0.49879833  0.49733696  1
  Ir  Ir124  1  0.83270884  0.50141985  0.75083703  1
  Ir  Ir125  1  -0.00061379  0.66925312  0.75071409  1
  Ir  Ir126  1  0.50196858  0.83586567  0.25276674  1
  Ir  Ir127  1  0.50242692  0.83762795  0.49477508  1
  Ir  Ir128  1  0.16567659  0.16206189  0.50203729  1
  Ir  Ir129  1  0.83497596  0.83679127  -0.00202248  1
  Ir  Ir130  1  0.67525976  0.00127111  -0.00072698  1
  Ir  Ir131  1  0.16755812  0.82954863  0.75425099  1
  Ir  Ir132  1  0.32792710  0.33204092  0.25448300  1
  Ir  Ir133  1  0.83453483  0.16511319  0.75205781  1
  Ir  Ir134  1  0.50406741  0.50395493  0.75039425  1
  Ir  Ir135  1  0.33348123  -0.00265037  0.25361897  1
  Ir  Ir136  1  0.67109102  -0.00165474  0.49570209  1
  Ir  Ir137  1  0.83353076  0.16383320  -0.00259066  1
  Ir  Ir138  1  0.66628965  0.66869727  0.74873227  1
  Ir  Ir139  1  0.33082721  0.66591208  0.74991462  1
  Ir  Ir140  1  0.83241171  0.16528271  0.24951952  1
  Ir  Ir141  1  0.32912053  -0.00087580  0.49694450  1
  Ir  Ir142  1  -0.00281657  0.00154669  0.74554384  1
  Ir  Ir143  1  0.49734913  0.50252873  -0.00341582  1
  O  O144  1  0.29707756  0.32942303  0.13617297  1
  O  O145  1  0.29324999  0.31424981  0.62409337  1
  O  O146  1  0.30022083  0.66674973  0.11914871  1
  O  O147  1  0.29638567  0.66049089  0.63092946  1
  O  O148  1  0.31362189  0.99629214  0.13342442  1
  O  O149  1  0.29515013  0.99363535  0.61536817  1
  O  O150  1  0.64819763  0.33001142  0.13054532  1
  O  O151  1  0.65576277  0.33458341  0.63483953  1
  O  O152  1  0.63044696  0.67004614  0.12389756  1
  O  O153  1  0.63747703  0.67396846  0.62937913  1
  O  O154  1  0.63693446  0.99786316  0.12307489  1
  O  O155  1  0.65625244  0.98377988  0.61845053  1
  O  O156  1  0.96720288  0.32337925  0.13132917  1
  O  O157  1  0.96207483  0.31545650  0.62612994  1
  O  O158  1  0.98573769  0.66557018  0.12309053  1
  O  O159  1  0.98148726  0.66944932  0.63002273  1
  O  O160  1  0.97133007  1.00152034  0.12531952  1
  O  O161  1  0.96658412  1.00280236  0.62304935  1
  O  O162  1  0.18794647  0.16651275  0.12393692  1
  O  O163  1  0.19681852  0.15098007  0.62298819  1
  O  O164  1  0.18315780  0.48559332  0.13622276  1
  O  O165  1  0.20089291  0.49031185  0.61454207  1
  O  O166  1  0.19250033  0.81943141  0.12361856  1
  O  O167  1  0.18512531  0.82428114  0.63352921  1
  O  O168  1  0.51863286  0.15115907  0.12678089  1
  O  O169  1  0.52447644  0.15803423  0.62636967  1
  O  O170  1  0.51264465  0.50347952  0.11760003  1
  O  O171  1  0.52369111  0.50451014  0.63306669  1
  O  O172  1  0.51852701  0.81740722  0.13304333  1
  O  O173  1  0.52981801  0.82452572  0.61630498  1
  O  O174  1  0.85801386  0.15464997  0.12291258  1
  O  O175  1  0.86357915  0.14789995  0.62790678  1
  O  O176  1  0.87519116  0.48361079  0.12592202  1
  O  O177  1  0.85075754  0.49416848  0.63089961  1
  O  O178  1  0.85344978  0.83559887  0.11828473  1
  O  O179  1  0.85018077  0.84193418  0.62867809  1
  O  O180  1  0.14221352  0.17418625  0.37678089  1
  O  O181  1  0.13269014  0.16629831  0.87024837  1
  O  O182  1  0.12883755  0.51142068  0.37622128  1
  O  O183  1  0.14466622  0.51396404  0.87438993  1
  O  O184  1  0.13500311  0.84748707  0.36813072  1
  O  O185  1  0.14856185  0.82430654  0.87690837  1
  O  O186  1  0.48528080  0.17334447  0.37524358  1
  O  O187  1  0.46579413  0.16807229  0.87425175  1
  O  O188  1  0.47421272  0.51768994  0.37551326  1
  O  O189  1  0.47862124  0.50200941  0.87157652  1
  O  O190  1  0.48102177  0.85647010  0.37363010  1
  O  O191  1  0.46042702  0.83691139  0.87440941  1
  O  O192  1  0.81146802  0.15967498  0.37737464  1
  O  O193  1  0.80184573  0.17803393  0.87509387  1
  O  O194  1  0.81628563  0.51164331  0.37196673  1
  O  O195  1  0.82117614  0.50333745  0.86980810  1
  O  O196  1  0.79762817  0.85866691  0.37451396  1
  O  O197  1  0.80499040  0.84344431  0.87364791  1
  O  O198  1  0.03342735  0.00181190  0.38310547  1
  O  O199  1  0.01653514  0.00894781  0.86690437  1
  O  O200  1  0.03027500  0.33505765  0.37135588  1
  O  O201  1  0.01960993  0.32914467  0.87327320  1
  O  O202  1  0.04333032  0.68634177  0.37486563  1
  O  O203  1  0.03027789  0.66685492  0.87598209  1
  O  O204  1  0.36421508  0.00116397  0.37636988  1
  O  O205  1  0.34201040  0.01776209  0.87368037  1
  O  O206  1  0.36402243  0.33297799  0.37285422  1
  O  O207  1  0.34100251  0.32710407  0.87372732  1
  O  O208  1  0.36374899  0.66469659  0.37576293  1
  O  O209  1  0.35442519  0.67561108  0.87445955  1
  O  O210  1  0.69669786  0.00384402  0.37078841  1
  O  O211  1  0.70902906  0.01330476  0.88238340  1
  O  O212  1  0.68537869  0.33132498  0.36790510  1
  O  O213  1  0.70616190  0.33974315  0.87112036  1
  O  O214  1  0.70139659  0.68572961  0.37540044  1
  O  O215  1  0.68659791  0.67512130  0.86856728  1
  O  O216  1  0.07071674  0.09963860  0.00666609  1
  O  O217  1  0.06930455  0.09511921  0.53075155  1
  O  O218  1  0.06460412  0.43038000  0.03136395  1
  O  O219  1  0.08006808  0.42550360  0.51932533  1
  O  O220  1  0.07997504  0.75590130  0.02234447  1
  O  O221  1  0.07437765  0.76214340  0.52171072  1
  O  O222  1  0.41536192  0.08318623  0.01922325  1
  O  O223  1  0.39471419  0.08907407  0.52326301  1
  O  O224  1  0.40985327  0.43082008  0.00801015  1
  O  O225  1  0.39419805  0.43560973  0.53117618  1
  O  O226  1  0.40661820  0.74970552  0.01790554  1
  O  O227  1  0.41734449  0.76215854  0.51790781  1
  O  O228  1  0.74583503  0.09108206  0.02582405  1
  O  O229  1  0.73960556  0.09182676  0.52157090  1
  O  O230  1  0.74662953  0.41861930  0.02835483  1
  O  O231  1  0.74806472  0.41885495  0.51792660  1
  O  O232  1  0.74681289  0.76575251  0.00623506  1
  O  O233  1  0.72659040  0.77940921  0.52276290  1
  O  O234  1  0.10134757  0.26175354  0.02397831  1
  O  O235  1  0.09744551  0.25504310  0.52830348  1
  O  O236  1  0.09462523  0.60075937  0.02679554  1
  O  O237  1  0.10620372  0.59613121  0.52312334  1
  O  O238  1  0.09736009  0.91851340  0.01426718  1
  O  O239  1  0.09610743  0.93889065  0.52343706  1
  O  O240  1  0.42382315  0.26023221  0.02163759  1
  O  O241  1  0.41627214  0.25210795  0.52288032  1
  O  O242  1  0.42649189  0.59889008  0.02045887  1
  O  O243  1  0.42209298  0.59684563  0.54069691  1
  O  O244  1  0.43527720  0.92940331  0.02814658  1
  O  O245  1  0.42623007  0.93143585  0.51429728  1
  O  O246  1  0.77314807  0.25888933  0.01948331  1
  O  O247  1  0.77186645  0.25438196  0.52622925  1
  O  O248  1  0.75708195  0.58920800  0.01503698  1
  O  O249  1  0.76614790  0.60208298  0.50936079  1
  O  O250  1  0.77159505  0.93457243  0.02043178  1
  O  O251  1  0.77224451  0.94595230  0.51326606  1
  O  O252  1  0.23782029  0.06869982  0.27605017  1
  O  O253  1  0.22207504  0.06526469  0.75659936  1
  O  O254  1  0.22698247  0.39825479  0.27814223  1
  O  O255  1  0.23691125  0.40643902  0.75505191  1
  O  O256  1  0.23198352  0.73981433  0.27199682  1
  O  O257  1  0.23401412  0.73291250  0.77703788  1
  O  O258  1  0.57099768  0.06105014  0.26770741  1
  O  O259  1  0.58441843  0.08049886  0.77765093  1
  O  O260  1  0.57412760  0.40085761  0.27159636  1
  O  O261  1  0.57852725  0.40753337  0.77284826  1
  O  O262  1  0.56748894  0.74613443  0.28189873  1
  O  O263  1  0.57922709  0.74163660  0.76557102  1
  O  O264  1  0.89764441  0.06963017  0.26775933  1
  O  O265  1  0.90117288  0.06894348  0.77455444  1
  O  O266  1  0.91375249  0.39933276  0.27486869  1
  O  O267  1  0.89588906  0.40354781  0.76544811  1
  O  O268  1  0.90625514  0.73845445  0.28069327  1
  O  O269  1  0.90607601  0.74290642  0.76780035  1
  O  O270  1  0.25346940  0.24444367  0.27837310  1
  O  O271  1  0.25837080  0.21992365  0.76726982  1
  O  O272  1  0.24796314  0.57170327  0.27393394  1
  O  O273  1  0.25774272  0.58051914  0.76924279  1
  O  O274  1  0.25548069  0.91081489  0.27524673  1
  O  O275  1  0.26253469  0.89299259  0.77447388  1
  O  O276  1  0.59005812  0.24773257  0.26853451  1
  O  O277  1  0.60736320  0.24534324  0.77787171  1
  O  O278  1  0.58684273  0.58183457  0.27238928  1
  O  O279  1  0.59786781  0.57578826  0.76898733  1
  O  O280  1  0.59845665  0.90624438  0.27376356  1
  O  O281  1  0.60300379  0.89921368  0.76902898  1
  O  O282  1  0.92769985  0.23600596  0.26993031  1
  O  O283  1  0.92790181  0.22894037  0.77466275  1
  O  O284  1  0.94274129  0.56398651  0.27159118  1
  O  O285  1  0.92821222  0.57642258  0.76743187  1
  O  O286  1  0.93063168  0.90363120  0.28171268  1
  O  O287  1  0.92627039  0.90973949  0.77338949  1
  O  O288  1  0.24932921  0.23572870  0.48011777  1
  O  O289  1  0.25778222  0.22776359  0.97885102  1
  O  O290  1  0.25236023  0.57087426  0.47682701  1
  O  O291  1  0.25645983  0.58114494  0.98030710  1
  O  O292  1  0.25650140  0.91359496  0.47234160  1
  O  O293  1  0.26461670  0.89268870  0.97858606  1
  O  O294  1  0.58907510  0.24489231  0.48215376  1
  O  O295  1  0.60114887  0.23666017  0.97322509  1
  O  O296  1  0.58323302  0.58771308  0.48043082  1
  O  O297  1  0.58237508  0.57576695  0.98445252  1
  O  O298  1  0.60118445  0.90525595  0.47199409  1
  O  O299  1  0.60947431  0.91157822  0.96961485  1
  O  O300  1  0.92881135  0.22480218  0.49176311  1
  O  O301  1  0.92600650  0.22795181  0.97022502  1
  O  O302  1  0.93628781  0.57181058  0.46892376  1
  O  O303  1  0.93586802  0.57779020  0.99309961  1
  O  O304  1  0.93815862  0.90750143  0.47500474  1
  O  O305  1  0.92139510  0.90870981  0.97654741  1
  O  O306  1  0.23070456  0.06505687  0.47570780  1
  O  O307  1  0.23483901  0.07671123  0.98419189  1
  O  O308  1  0.22595664  0.40027648  0.47370273  1
  O  O309  1  0.23318465  0.40304202  0.99714753  1
  O  O310  1  0.23492964  0.73697956  0.47830272  1
  O  O311  1  0.23634745  0.73293551  0.97326959  1
  O  O312  1  0.57345524  0.05962955  0.47599664  1
  O  O313  1  0.58937967  0.07366289  0.97752772  1
  O  O314  1  0.56629261  0.40374752  0.47566801  1
  O  O315  1  0.57128585  0.41459130  0.98535599  1
  O  O316  1  0.56730854  0.74829551  0.46684385  1
  O  O317  1  0.58381042  0.75321265  0.97206814  1
  O  O318  1  0.90141855  0.06161506  0.47968500  1
  O  O319  1  0.90040984  0.07227992  0.97064390  1
  O  O320  1  0.91547933  0.40990389  0.48065560  1
  O  O321  1  0.89896354  0.39412160  0.97653549  1
  O  O322  1  0.90284254  0.74195570  0.46748879  1
  O  O323  1  0.90931836  0.74430196  0.97996320  1
  O  O324  1  0.09993009  0.26536215  0.23099323  1
  O  O325  1  0.09850953  0.25317884  0.71704646  1
  O  O326  1  0.10081118  0.59133161  0.22434709  1
  O  O327  1  0.09404706  0.60325139  0.72861803  1
  O  O328  1  0.09742320  0.92354795  0.23099189  1
  O  O329  1  0.09674523  0.93179635  0.72699568  1
  O  O330  1  0.41703334  0.26157400  0.23683014  1
  O  O331  1  0.42241522  0.25976522  0.72335143  1
  O  O332  1  0.42663158  0.59961158  0.22201472  1
  O  O333  1  0.43013135  0.59691429  0.72404408  1
  O  O334  1  0.43426422  0.93220217  0.23031261  1
  O  O335  1  0.42518288  0.92731946  0.72862183  1
  O  O336  1  0.76482404  0.26219546  0.22614514  1
  O  O337  1  0.77315015  0.26858955  0.73156999  1
  O  O338  1  0.76754382  0.59778828  0.23558573  1
  O  O339  1  0.76133555  0.59606239  0.73232239  1
  O  O340  1  0.76634564  0.94322172  0.22649710  1
  O  O341  1  0.77073259  0.93110228  0.73454102  1
  O  O342  1  0.08154804  0.09244342  0.23913628  1
  O  O343  1  0.06306744  0.09697923  0.72104115  1
  O  O344  1  0.06674056  0.42469319  0.22640898  1
  O  O345  1  0.07635192  0.42026051  0.71914442  1
  O  O346  1  0.08127649  0.76178641  0.22739663  1
  O  O347  1  0.07401329  0.75703094  0.73024494  1
  O  O348  1  0.40726158  0.08150326  0.23556316  1
  O  O349  1  0.39380037  0.10069794  0.72900584  1
  O  O350  1  0.39824385  0.42064992  0.23418828  1
  O  O351  1  0.40951130  0.43733942  0.72917540  1
  O  O352  1  0.41446292  0.76247697  0.23863231  1
  O  O353  1  0.40883618  0.74868214  0.72546664  1
  O  O354  1  0.73970172  0.09407104  0.22703266  1
  O  O355  1  0.74770452  0.09329730  0.73259833  1
  O  O356  1  0.74466776  0.41617426  0.22784174  1
  O  O357  1  0.74450564  0.42923739  0.72715745  1
  O  O358  1  0.73319517  0.77138700  0.23663799  1
  O  O359  1  0.73374929  0.77026178  0.73145085  1
