# generated using pymatgen
data_BaLaInIrO6
_symmetry_space_group_name_H-M   'P 1'
_cell_length_a   17.55575225
_cell_length_b   17.58341009
_cell_length_c   16.49426599
_cell_angle_alpha   90.02263867
_cell_angle_beta   89.97971297
_cell_angle_gamma   89.99504687
_symmetry_Int_Tables_number   1
_chemical_formula_structural   BaLaInIrO6
_chemical_formula_sum   'Ba36 La36 In36 Ir36 O216'
_cell_volume   5091.61408744
_cell_formula_units_Z   36
loop_
 _symmetry_equiv_pos_site_id
 _symmetry_equiv_pos_as_xyz
  1  'x, y, z'
loop_
 _atom_site_type_symbol
 _atom_site_label
 _atom_site_symmetry_multiplicity
 _atom_site_fract_x
 _atom_site_fract_y
 _atom_site_fract_z
 _atom_site_occupancy
  Ba  Ba0  1  0.33520262  0.17194129  0.62075237  1
  Ba  Ba1  1  0.16640192  0.34172345  0.12498701  1
  Ba  Ba2  1  0.83849093  0.99109661  0.87634468  1
  Ba  Ba3  1  0.16435617  0.33866194  0.62591842  1
  Ba  Ba4  1  0.66654288  0.49546359  0.37327503  1
  Ba  Ba5  1  0.99810568  0.84135723  0.62181074  1
  Ba  Ba6  1  0.83615916  0.32791394  0.37497894  1
  Ba  Ba7  1  0.16413715  0.99134176  0.37666496  1
  Ba  Ba8  1  0.99759212  0.84379993  0.12104196  1
  Ba  Ba9  1  0.83339442  0.01231635  0.12761482  1
  Ba  Ba10  1  -0.00067063  0.49355192  0.37634874  1
  Ba  Ba11  1  1.00379118  0.51007210  0.62536570  1
  Ba  Ba12  1  0.33006692  0.84803553  0.12553547  1
  Ba  Ba13  1  0.83848032  0.65770469  0.87345698  1
  Ba  Ba14  1  -0.00108217  0.48814735  0.87595715  1
  Ba  Ba15  1  0.50149519  0.32400545  0.87576261  1
  Ba  Ba16  1  0.50309812  0.67847099  0.12621179  1
  Ba  Ba17  1  1.00526162  0.16999805  0.62412213  1
  Ba  Ba18  1  0.16426000  0.65958043  0.37821010  1
  Ba  Ba19  1  0.49479437  0.66186916  0.87648643  1
  Ba  Ba20  1  0.33620699  0.82797115  0.87724397  1
  Ba  Ba21  1  0.83413966  0.01077856  0.62334770  1
  Ba  Ba22  1  0.50016106  0.67654487  0.62534511  1
  Ba  Ba23  1  0.16289264  0.00489927  0.62268397  1
  Ba  Ba24  1  0.66559471  0.82792506  0.37467669  1
  Ba  Ba25  1  0.50282891  0.99441876  0.37529243  1
  Ba  Ba26  1  -0.00005586  0.15575962  0.87182959  1
  Ba  Ba27  1  0.50007878  0.99195160  0.87510435  1
  Ba  Ba28  1  0.67070399  0.51165662  0.12383927  1
  Ba  Ba29  1  0.50024477  0.00637357  0.12488505  1
  Ba  Ba30  1  0.15842759  0.00578949  0.12506998  1
  Ba  Ba31  1  0.32962573  0.84192805  0.62695389  1
  Ba  Ba32  1  0.83542329  0.99189964  0.37389365  1
  Ba  Ba33  1  0.83818568  0.65592064  0.37762747  1
  Ba  Ba34  1  -0.00675777  0.82367390  0.37234494  1
  Ba  Ba35  1  1.00009305  0.51109205  0.12934588  1
  La  La36  1  -0.00291393  0.82149336  0.87418435  1
  La  La37  1  0.32617666  0.48583302  0.87851403  1
  La  La38  1  0.17283885  0.65210218  0.87969285  1
  La  La39  1  0.15830445  0.68602943  0.12812959  1
  La  La40  1  0.33181070  0.14698676  0.37142343  1
  La  La41  1  0.67116966  0.18256622  0.12426780  1
  La  La42  1  0.83125913  0.34989869  0.12754908  1
  La  La43  1  0.66622702  0.15327678  0.37074174  1
  La  La44  1  0.16996586  0.98151651  0.87104269  1
  La  La45  1  0.49353958  0.01036763  0.62755229  1
  La  La46  1  -0.00593092  0.15467249  0.37773364  1
  La  La47  1  0.67339432  0.17918508  0.62588950  1
  La  La48  1  0.50286872  0.65691900  0.37298811  1
  La  La49  1  0.66376360  0.48452073  0.87640886  1
  La  La50  1  0.34065797  0.51638176  0.12586469  1
  La  La51  1  0.83170312  0.68141841  0.62435211  1
  La  La52  1  0.16472681  0.32038189  0.37576299  1
  La  La53  1  0.65867800  0.81902263  0.87680609  1
  La  La54  1  0.67132515  0.85096968  0.12356438  1
  La  La55  1  0.15684796  0.68068771  0.62927761  1
  La  La56  1  0.82737587  0.68317645  0.12763509  1
  La  La57  1  0.83997740  0.31873506  0.87532019  1
  La  La58  1  0.49171241  0.35142321  0.61988131  1
  La  La59  1  0.83547520  0.34944557  0.62584755  1
  La  La60  1  0.50857213  0.31882741  0.36993150  1
  La  La61  1  0.32785553  0.14262050  0.87607770  1
  La  La62  1  0.67321555  0.84892117  0.62884099  1
  La  La63  1  1.00491185  0.17662819  0.12464056  1
  La  La64  1  0.32914089  0.82325325  0.37164717  1
  La  La65  1  0.49720310  0.34677981  0.12497440  1
  La  La66  1  0.32519258  0.48436535  0.37524739  1
  La  La67  1  0.67401117  0.51419251  0.63001092  1
  La  La68  1  0.17156446  0.31353441  0.87430789  1
  La  La69  1  0.33607695  0.51400783  0.62627190  1
  La  La70  1  0.66776137  0.14864900  0.87486763  1
  La  La71  1  0.32659364  0.16522987  0.12164258  1
  In  In72  1  0.50004255  0.50131706  0.00023824  1
  In  In73  1  0.16820063  0.49939259  0.24937087  1
  In  In74  1  0.49813798  0.49851936  0.25080831  1
  In  In75  1  0.50028705  0.50146001  0.75030128  1
  In  In76  1  0.66487861  0.00250827  0.50187553  1
  In  In77  1  0.83359685  0.50107149  -0.00342622  1
  In  In78  1  0.50092146  0.16745822  0.24552298  1
  In  In79  1  0.33592317  0.33024252  0.74901622  1
  In  In80  1  0.16489132  0.83368315  0.49816702  1
  In  In81  1  -0.00043483  0.33200587  0.75133290  1
  In  In82  1  0.66711292  0.66829349  0.25231482  1
  In  In83  1  0.50134118  0.83356333  0.74672076  1
  In  In84  1  0.50293942  0.16922170  0.49851419  1
  In  In85  1  0.00073198  0.33300768  0.50034349  1
  In  In86  1  0.66697966  0.33117519  0.75072379  1
  In  In87  1  0.33301450  0.66652084  0.50023585  1
  In  In88  1  0.16982247  0.16238325  0.74959785  1
  In  In89  1  0.33185184  0.66743374  0.25052173  1
  In  In90  1  0.00025061  0.33323488  0.24824727  1
  In  In91  1  0.00130826  0.66547764  -0.00005149  1
  In  In92  1  0.16637323  0.49601221  0.75072893  1
  In  In93  1  0.66554566  0.33597420  0.49918041  1
  In  In94  1  0.33370869  0.32924422  0.00324518  1
  In  In95  1  0.32955121  0.66632955  0.74975551  1
  In  In96  1  -0.00255689  0.00132544  0.24800152  1
  In  In97  1  0.49784437  0.83680778  0.25228925  1
  In  In98  1  0.83297233  0.83458518  0.75448566  1
  In  In99  1  0.83172501  0.83376042  0.50023411  1
  In  In100  1  0.50036026  0.83602093  0.00281486  1
  In  In101  1  0.17094241  0.16626631  0.49618765  1
  In  In102  1  0.50267115  0.16682359  -0.00101932  1
  In  In103  1  0.32962275  0.66933222  0.00502565  1
  In  In104  1  0.66333404  0.66869362  0.50245326  1
  In  In105  1  0.83563884  0.16719589  0.00232476  1
  In  In106  1  0.50275084  0.16794628  0.74988404  1
  In  In107  1  0.33418692  0.32884707  0.25034429  1
  Ir  Ir108  1  -0.00242613  0.00277169  0.50114779  1
  Ir  Ir109  1  0.66994037  0.00329938  0.24641052  1
  Ir  Ir110  1  -0.00118048  0.66186528  0.50350710  1
  Ir  Ir111  1  0.32778982  0.00286783  0.24947517  1
  Ir  Ir112  1  0.00155535  -0.00139898  0.75175740  1
  Ir  Ir113  1  0.83073783  0.83381677  0.24527789  1
  Ir  Ir114  1  0.17153153  0.49704740  0.50026164  1
  Ir  Ir115  1  0.83430424  0.50120088  0.24996801  1
  Ir  Ir116  1  0.16039777  0.83556948  -0.00202118  1
  Ir  Ir117  1  0.33795505  -0.00174064  0.49943170  1
  Ir  Ir118  1  0.83329599  0.17017531  0.50238609  1
  Ir  Ir119  1  0.00145675  0.66711772  0.74982253  1
  Ir  Ir120  1  0.16254320  0.83338999  0.24974999  1
  Ir  Ir121  1  0.83124036  0.50233409  0.74847818  1
  Ir  Ir122  1  0.00187096  0.33067779  0.00014243  1
  Ir  Ir123  1  0.67066660  0.66464660  0.75268468  1
  Ir  Ir124  1  0.00143801  0.00001949  -0.00454858  1
  Ir  Ir125  1  0.32557678  0.00150002  0.00022913  1
  Ir  Ir126  1  0.49804367  0.83545461  0.50115740  1
  Ir  Ir127  1  0.33198268  -0.00300768  0.74799124  1
  Ir  Ir128  1  0.16589008  0.16456123  0.24824957  1
  Ir  Ir129  1  0.49582861  0.49940301  0.49956670  1
  Ir  Ir130  1  0.83071063  0.83540856  -0.00170662  1
  Ir  Ir131  1  0.83389699  0.50141682  0.50591545  1
  Ir  Ir132  1  0.16704458  0.49731740  0.00123247  1
  Ir  Ir133  1  0.83368420  0.17054263  0.25207134  1
  Ir  Ir134  1  0.33736502  0.33585333  0.49611433  1
  Ir  Ir135  1  0.67034783  0.33221704  0.24906312  1
  Ir  Ir136  1  0.67141915  0.00041164  -0.00137458  1
  Ir  Ir137  1  0.67287933  0.33202048  0.00086864  1
  Ir  Ir138  1  -0.00436560  0.66863646  0.24928612  1
  Ir  Ir139  1  0.16431969  0.16292426  0.00082285  1
  Ir  Ir140  1  0.67214460  0.66933517  -0.00316347  1
  Ir  Ir141  1  0.66704277  -0.00002759  0.75135207  1
  Ir  Ir142  1  0.15968633  0.83112079  0.75352770  1
  Ir  Ir143  1  0.83131644  0.16763932  0.74562806  1
  O  O144  1  0.31012766  0.30145587  0.12676450  1
  O  O145  1  0.31196659  0.32775158  0.61308433  1
  O  O146  1  0.29019319  0.65533288  0.12642947  1
  O  O147  1  0.29320419  0.65688630  0.62359754  1
  O  O148  1  0.30352006  1.00849766  0.12466946  1
  O  O149  1  0.31117176  0.99779990  0.62267447  1
  O  O150  1  0.63836746  0.32037525  0.12349208  1
  O  O151  1  0.62990244  0.31740073  0.62390004  1
  O  O152  1  0.65494121  0.66767473  0.11705937  1
  O  O153  1  0.64729645  0.64926216  0.63301648  1
  O  O154  1  0.64942412  0.98992126  0.12116476  1
  O  O155  1  0.63385535  0.99083296  0.63238352  1
  O  O156  1  0.96914750  0.31989985  0.11976442  1
  O  O157  1  0.96964513  0.32526626  0.62534554  1
  O  O158  1  0.96841922  0.66952513  0.12914290  1
  O  O159  1  0.96967180  0.66445326  0.62738352  1
  O  O160  1  0.98378722  1.00223591  0.11660752  1
  O  O161  1  0.98071282  0.99828953  0.62775826  1
  O  O162  1  0.19314405  0.15907028  0.12450326  1
  O  O163  1  0.18530839  0.16246155  0.62245934  1
  O  O164  1  0.20080565  0.49306867  0.11878367  1
  O  O165  1  0.19999160  0.49381135  0.61960867  1
  O  O166  1  0.18232642  0.82549302  0.12231677  1
  O  O167  1  0.17861035  0.82313240  0.63117020  1
  O  O168  1  0.53677260  0.15993662  0.12301397  1
  O  O169  1  0.53566348  0.15079544  0.62382978  1
  O  O170  1  0.52634528  0.48139247  0.12408592  1
  O  O171  1  0.53587236  0.48838487  0.61791986  1
  O  O172  1  0.53314976  0.83924448  0.12633859  1
  O  O173  1  0.53597401  0.83281632  0.62012000  1
  O  O174  1  0.86553660  0.16946515  0.13206881  1
  O  O175  1  0.85908895  0.16450030  0.62363252  1
  O  O176  1  0.84943323  0.49086356  0.12873674  1
  O  O177  1  0.85631946  0.48879035  0.62773023  1
  O  O178  1  0.85117215  0.82269424  0.12103178  1
  O  O179  1  0.84878212  0.82257552  0.62910853  1
  O  O180  1  0.13607075  0.17305769  0.36689400  1
  O  O181  1  0.14752833  0.17220354  0.88232956  1
  O  O182  1  0.14934009  0.50096219  0.38294086  1
  O  O183  1  0.14405964  0.51483866  0.88366977  1
  O  O184  1  0.14277807  0.83382161  0.36868747  1
  O  O185  1  0.13152462  0.84261531  0.87586768  1
  O  O186  1  0.46749138  0.17770216  0.37199843  1
  O  O187  1  0.46582844  0.16506963  0.87495371  1
  O  O188  1  0.46274879  0.51167199  0.38151322  1
  O  O189  1  0.46542396  0.50124180  0.87632271  1
  O  O190  1  0.46438335  0.84255572  0.38324579  1
  O  O191  1  0.49314474  0.83563101  0.87505062  1
  O  O192  1  0.80138231  0.17151610  0.37721743  1
  O  O193  1  0.80320762  0.17722487  0.86926820  1
  O  O194  1  0.81372324  0.50273308  0.38087505  1
  O  O195  1  0.79922893  0.50365238  0.86780872  1
  O  O196  1  0.81725580  0.83322594  0.36779413  1
  O  O197  1  0.79861423  0.83622196  0.87943776  1
  O  O198  1  0.01056643  0.01065422  0.37895013  1
  O  O199  1  0.03077422  -0.00036154  0.87278476  1
  O  O200  1  0.02674600  0.33493634  0.37380204  1
  O  O201  1  0.03265564  0.33311143  0.88355533  1
  O  O202  1  0.01690815  0.66619049  0.37638603  1
  O  O203  1  0.03313595  0.67657408  0.87039947  1
  O  O204  1  0.35641197  0.00945660  0.37404100  1
  O  O205  1  0.35134262  0.00313829  0.87455678  1
  O  O206  1  0.37208027  0.34712699  0.38011042  1
  O  O207  1  0.35516407  0.34914355  0.87776710  1
  O  O208  1  0.36695082  0.67958749  0.37748796  1
  O  O209  1  0.33905394  0.66925211  0.87782781  1
  O  O210  1  0.68899784  0.01093498  0.36659522  1
  O  O211  1  0.69385952  0.01318128  0.87468992  1
  O  O212  1  0.69027353  0.34142394  0.36847589  1
  O  O213  1  0.70576414  0.34277596  0.88075706  1
  O  O214  1  0.68857598  0.66748614  0.37884883  1
  O  O215  1  0.69374335  0.68316791  0.87408244  1
  O  O216  1  0.06610528  0.09806400  0.02215453  1
  O  O217  1  0.07202625  0.08880942  0.50529917  1
  O  O218  1  0.07162160  0.42548618  0.02155826  1
  O  O219  1  0.08125972  0.42919094  0.51742943  1
  O  O220  1  0.07179306  0.76435740  0.01353814  1
  O  O221  1  0.07614114  0.74569524  0.51989751  1
  O  O222  1  0.39287172  0.09664234  0.01649815  1
  O  O223  1  0.41335042  0.08440114  0.51751817  1
  O  O224  1  0.40143361  0.42699698  0.03231161  1
  O  O225  1  0.40181859  0.43122453  0.52692816  1
  O  O226  1  0.40776244  0.76086167  0.02027737  1
  O  O227  1  0.41139827  0.76597675  0.52103798  1
  O  O228  1  0.73415763  0.09889422  0.01999231  1
  O  O229  1  0.73830062  0.10563822  0.52311066  1
  O  O230  1  0.74246602  0.42141970  0.02094348  1
  O  O231  1  0.73975224  0.43216474  0.52990366  1
  O  O232  1  0.73714667  0.76784869  0.02387598  1
  O  O233  1  0.73599232  0.76011226  0.53284424  1
  O  O234  1  0.08981795  0.25329860  0.02713354  1
  O  O235  1  0.09990754  0.26249823  0.50508824  1
  O  O236  1  0.10574750  0.59730263  0.02432837  1
  O  O237  1  0.10383341  0.59287518  0.52578511  1
  O  O238  1  0.09561224  0.93359659  0.00562584  1
  O  O239  1  0.08439220  0.92585903  0.51223003  1
  O  O240  1  0.43806805  0.26433473  0.02669446  1
  O  O241  1  0.43339715  0.27202954  0.51985064  1
  O  O242  1  0.42079428  0.58982798  0.02844518  1
  O  O243  1  0.42473654  0.58457421  0.52854867  1
  O  O244  1  0.41758751  0.93331623  0.01465724  1
  O  O245  1  0.43223495  0.93011016  0.52918437  1
  O  O246  1  0.76447632  0.26561930  0.02863301  1
  O  O247  1  0.76619289  0.26235740  0.53008118  1
  O  O248  1  0.76591281  0.60453148  0.01928808  1
  O  O249  1  0.76427860  0.59151339  0.53226826  1
  O  O250  1  0.76106578  0.92622712  0.02314079  1
  O  O251  1  0.74964724  0.92190836  0.52104178  1
  O  O252  1  0.23652160  0.07478940  0.27072103  1
  O  O253  1  0.24117717  0.06464368  0.77643728  1
  O  O254  1  0.23774696  0.39695504  0.28183477  1
  O  O255  1  0.23453395  0.39686365  0.77853967  1
  O  O256  1  0.23317279  0.74476561  0.26430260  1
  O  O257  1  0.21965018  0.73358098  0.76916502  1
  O  O258  1  0.58348849  0.07718958  0.26816991  1
  O  O259  1  0.57939874  0.06897182  0.77001046  1
  O  O260  1  0.57238087  0.39479517  0.26957792  1
  O  O261  1  0.58136992  0.41250008  0.77544544  1
  O  O262  1  0.56732090  0.73916807  0.27702704  1
  O  O263  1  0.58323903  0.73635749  0.76903695  1
  O  O264  1  0.90555827  0.08331252  0.27213056  1
  O  O265  1  0.90585210  0.06994585  0.76500785  1
  O  O266  1  0.90088691  0.40761182  0.25754319  1
  O  O267  1  0.89189759  0.40308968  0.77093124  1
  O  O268  1  0.89743383  0.73756406  0.25937566  1
  O  O269  1  0.91396670  0.74021744  0.76956925  1
  O  O270  1  0.26084447  0.22790790  0.27635825  1
  O  O271  1  0.27004555  0.22976030  0.77884356  1
  O  O272  1  0.26588641  0.56520454  0.27674382  1
  O  O273  1  0.26433638  0.56233630  0.77487685  1
  O  O274  1  0.25925843  0.90281027  0.27386629  1
  O  O275  1  0.25238092  0.90440363  0.77357499  1
  O  O276  1  0.60675607  0.23816383  0.27109294  1
  O  O277  1  0.60645522  0.22977816  0.77852230  1
  O  O278  1  0.58679896  0.57816030  0.26883316  1
  O  O279  1  0.60836592  0.56943745  0.77420863  1
  O  O280  1  0.59869357  0.91426177  0.26238684  1
  O  O281  1  0.60712626  0.90242909  0.77003925  1
  O  O282  1  0.92875185  0.23327932  0.27407168  1
  O  O283  1  0.91607577  0.24206196  0.77441604  1
  O  O284  1  0.92650489  0.57240613  0.26871983  1
  O  O285  1  0.92829900  0.57322793  0.76845320  1
  O  O286  1  0.91821581  0.90790844  0.25813572  1
  O  O287  1  0.93465662  0.90521514  0.77412392  1
  O  O288  1  0.27145867  0.24412712  0.46338181  1
  O  O289  1  0.26066178  0.22711647  0.97619587  1
  O  O290  1  0.26714242  0.56026230  0.47952233  1
  O  O291  1  0.25923356  0.56154744  0.97777102  1
  O  O292  1  0.26617335  0.90996229  0.47870771  1
  O  O293  1  0.25123186  0.90927285  0.97645046  1
  O  O294  1  0.59691180  0.24208161  0.46205046  1
  O  O295  1  0.61119928  0.23659058  0.97757043  1
  O  O296  1  0.58058161  0.57504099  0.47938097  1
  O  O297  1  0.60681890  0.57438648  0.97291514  1
  O  O298  1  0.58598770  0.90497677  0.48464175  1
  O  O299  1  0.60824480  0.90523557  0.98117985  1
  O  O300  1  0.92695244  0.23245794  0.47555231  1
  O  O301  1  0.92810493  0.24485206  0.97714097  1
  O  O302  1  0.92644241  0.57150954  0.48801709  1
  O  O303  1  0.92780862  0.57352600  0.98405396  1
  O  O304  1  0.92306487  0.91634600  0.48907782  1
  O  O305  1  0.93290476  0.90310212  0.97252695  1
  O  O306  1  0.25398964  0.07693249  0.47492871  1
  O  O307  1  0.23179848  0.07008022  0.97207321  1
  O  O308  1  0.23949740  0.40065967  0.46936352  1
  O  O309  1  0.22987557  0.40289088  0.97297550  1
  O  O310  1  0.24800865  0.74998442  0.47539705  1
  O  O311  1  0.22218513  0.73884241  0.98339604  1
  O  O312  1  0.58334946  0.08244527  0.47167864  1
  O  O313  1  0.58281661  0.07220529  0.97787459  1
  O  O314  1  0.56075689  0.40640641  0.47395491  1
  O  O315  1  0.58549367  0.40462988  0.97780383  1
  O  O316  1  0.56159556  0.74099964  0.47452930  1
  O  O317  1  0.58407410  0.74003088  0.98018536  1
  O  O318  1  0.90774542  0.08026293  0.47800597  1
  O  O319  1  0.91176865  0.07150428  0.98448475  1
  O  O320  1  0.90088653  0.40836917  0.49277094  1
  O  O321  1  0.90651380  0.39690533  0.97829802  1
  O  O322  1  0.90877059  0.73465591  0.49386578  1
  O  O323  1  0.90690713  0.75054305  0.97841374  1
  O  O324  1  0.09470977  0.25140509  0.22739228  1
  O  O325  1  0.09619943  0.25830432  0.74718010  1
  O  O326  1  0.09198400  0.60373875  0.22933499  1
  O  O327  1  0.09675160  0.60289635  0.73057656  1
  O  O328  1  0.09065345  0.92225016  0.23861597  1
  O  O329  1  0.09684476  0.93080370  0.74053690  1
  O  O330  1  0.44421165  0.27379848  0.23374991  1
  O  O331  1  0.43877956  0.26674673  0.72049273  1
  O  O332  1  0.42347305  0.59214343  0.22448152  1
  O  O333  1  0.42219341  0.58879268  0.72261819  1
  O  O334  1  0.41867072  0.93554283  0.23537494  1
  O  O335  1  0.42838973  0.93290090  0.72632682  1
  O  O336  1  0.76499531  0.26376622  0.22125754  1
  O  O337  1  0.76608711  0.26098576  0.72007188  1
  O  O338  1  0.76902095  0.59575930  0.22874032  1
  O  O339  1  0.76657075  0.59819661  0.72348438  1
  O  O340  1  0.75709123  0.92356884  0.22360136  1
  O  O341  1  0.75434575  0.92885124  0.72904173  1
  O  O342  1  0.06927769  0.10089234  0.22844455  1
  O  O343  1  0.07275454  0.08543653  0.73730119  1
  O  O344  1  0.07545671  0.42572731  0.23276158  1
  O  O345  1  0.06990232  0.42799621  0.73706725  1
  O  O346  1  0.07074580  0.75964587  0.22527795  1
  O  O347  1  0.06726336  0.76130729  0.73001876  1
  O  O348  1  0.39362295  0.10081570  0.23071481  1
  O  O349  1  0.40668225  0.08488082  0.73015796  1
  O  O350  1  0.39845443  0.43058493  0.22369087  1
  O  O351  1  0.40635385  0.42692190  0.71465165  1
  O  O352  1  0.39840445  0.76904158  0.23947008  1
  O  O353  1  0.40706251  0.75929031  0.73470934  1
  O  O354  1  0.73631639  0.10543234  0.22774165  1
  O  O355  1  0.73177008  0.10056403  0.72727168  1
  O  O356  1  0.74334032  0.42362995  0.22594713  1
  O  O357  1  0.73968756  0.43354248  0.72376859  1
  O  O358  1  0.73941699  0.76528707  0.22238655  1
  O  O359  1  0.73589717  0.75691017  0.72638163  1
