# generated using pymatgen
data_BaLaInIrO6
_symmetry_space_group_name_H-M   'P 1'
_cell_length_a   17.52708222
_cell_length_b   17.54641972
_cell_length_c   16.49770838
_cell_angle_alpha   90.02753981
_cell_angle_beta   89.99829717
_cell_angle_gamma   89.99422940
_symmetry_Int_Tables_number   1
_chemical_formula_structural   BaLaInIrO6
_chemical_formula_sum   'Ba36 La36 In36 Ir36 O216'
_cell_volume   5073.66405464
_cell_formula_units_Z   36
loop_
 _symmetry_equiv_pos_site_id
 _symmetry_equiv_pos_as_xyz
  1  'x, y, z'
loop_
 _atom_site_type_symbol
 _atom_site_label
 _atom_site_symmetry_multiplicity
 _atom_site_fract_x
 _atom_site_fract_y
 _atom_site_fract_z
 _atom_site_occupancy
  Ba  Ba0  1  0.50121166  0.67472911  0.12649107  1
  Ba  Ba1  1  0.49643758  0.67008247  0.62016062  1
  Ba  Ba2  1  0.49950218  0.32753188  0.87134610  1
  Ba  Ba3  1  0.82989594  0.00939080  0.13014433  1
  Ba  Ba4  1  1.00526869  0.17419546  0.13045439  1
  Ba  Ba5  1  0.17107055  0.32646085  0.87850646  1
  Ba  Ba6  1  0.33333770  0.17360105  0.12857006  1
  Ba  Ba7  1  -0.00131730  0.82875982  0.37625356  1
  Ba  Ba8  1  0.32969119  0.15708684  0.37884671  1
  Ba  Ba9  1  0.66702144  0.84087784  0.12142164  1
  Ba  Ba10  1  0.66236619  0.82255957  0.87449617  1
  Ba  Ba11  1  0.33138582  0.50311098  0.12445152  1
  Ba  Ba12  1  0.66215980  0.15848266  0.87255289  1
  Ba  Ba13  1  0.17019002  0.33702550  0.13204073  1
  Ba  Ba14  1  0.50467100  0.32861301  0.37748062  1
  Ba  Ba15  1  0.99623965  0.84478999  0.12767343  1
  Ba  Ba16  1  0.66821896  0.48966977  0.37643991  1
  Ba  Ba17  1  0.83085746  0.34891031  0.62398585  1
  Ba  Ba18  1  0.50075971  0.65382321  0.36983994  1
  Ba  Ba19  1  0.33480381  0.15683828  0.87338809  1
  Ba  Ba20  1  0.16799343  0.32766047  0.37563989  1
  Ba  Ba21  1  0.83422850  0.99116682  0.37738461  1
  Ba  Ba22  1  0.83539842  0.65701731  0.88113673  1
  Ba  Ba23  1  -0.00289495  0.48778509  0.37114340  1
  Ba  Ba24  1  0.00003411  0.15522627  0.37906616  1
  Ba  Ba25  1  0.33843527  0.50742459  0.62605546  1
  Ba  Ba26  1  0.50149009  0.66056347  0.87734343  1
  Ba  Ba27  1  0.50440006  0.99116662  0.87354886  1
  Ba  Ba28  1  0.16344219  0.00594115  0.12526029  1
  Ba  Ba29  1  0.16417928  0.99533500  0.37684482  1
  Ba  Ba30  1  0.66676951  0.50494279  0.62532593  1
  Ba  Ba31  1  0.16483314  0.68054554  0.61953043  1
  Ba  Ba32  1  0.50485137  0.34256731  0.62601020  1
  Ba  Ba33  1  0.99989447  0.18000050  0.62106079  1
  Ba  Ba34  1  0.33518319  0.82650786  0.87035259  1
  Ba  Ba35  1  0.66852642  0.17554909  0.12471826  1
  La  La36  1  0.16233946  0.35174114  0.62450687  1
  La  La37  1  0.33500725  0.18397638  0.62418403  1
  La  La38  1  0.83704529  0.64959390  0.37306445  1
  La  La39  1  0.33057057  0.48871142  0.38073348  1
  La  La40  1  1.00683749  0.51029724  0.12670860  1
  La  La41  1  0.66391779  0.15834104  0.37794328  1
  La  La42  1  -0.00472205  0.81991463  0.87931066  1
  La  La43  1  0.83867412  0.31585694  0.37852471  1
  La  La44  1  0.49573059  0.34794580  0.12382881  1
  La  La45  1  -0.00517934  0.14856099  0.87615291  1
  La  La46  1  0.67075154  0.51173022  0.12979246  1
  La  La47  1  0.17567616  0.65291065  0.86962329  1
  La  La48  1  0.82976797  0.34610038  0.12659994  1
  La  La49  1  0.33651255  0.84336795  0.62286452  1
  La  La50  1  0.16830168  0.01092328  0.62445432  1
  La  La51  1  1.00186814  0.51398780  0.62165084  1
  La  La52  1  0.66155579  0.81668273  0.37010720  1
  La  La53  1  0.16774468  0.65248767  0.37335943  1
  La  La54  1  0.83956207  0.31748585  0.87089993  1
  La  La55  1  0.82947737  0.01848014  0.62327913  1
  La  La56  1  0.32595885  0.82311132  0.37643754  1
  La  La57  1  0.49679166  0.01782330  0.62508685  1
  La  La58  1  0.66611546  0.84356287  0.62655611  1
  La  La59  1  0.16046421  0.68055747  0.12693215  1
  La  La60  1  0.17062846  0.98420939  0.87230092  1
  La  La61  1  0.66560304  0.48313052  0.87391154  1
  La  La62  1  0.49411811  0.01006651  0.11776843  1
  La  La63  1  0.82742363  0.67975271  0.12732409  1
  La  La64  1  1.00411175  0.84960042  0.62374748  1
  La  La65  1  0.67298454  0.18724028  0.62607449  1
  La  La66  1  0.33648218  0.84650457  0.12028418  1
  La  La67  1  -0.00343790  0.48735963  0.87658985  1
  La  La68  1  0.82692236  0.67317403  0.62098880  1
  La  La69  1  0.50373369  0.98706246  0.37513015  1
  La  La70  1  0.33603422  0.49188234  0.87288498  1
  La  La71  1  0.83215504  0.98595434  0.87698004  1
  In  In72  1  0.16471218  0.82853935  -0.00326940  1
  In  In73  1  0.66778590  0.33214121  0.24945359  1
  In  In74  1  0.50108460  0.83146685  -0.00100695  1
  In  In75  1  0.50224107  0.49852421  0.49738855  1
  In  In76  1  0.16236731  0.16733528  -0.00252417  1
  In  In77  1  0.33376552  -0.00016686  0.74659278  1
  In  In78  1  0.00169972  0.33419056  0.74889333  1
  In  In79  1  0.66687606  -0.00008563  0.74660643  1
  In  In80  1  0.33493424  0.33241531  0.00143877  1
  In  In81  1  0.83265601  0.83225327  0.50253521  1
  In  In82  1  0.83617437  0.83244951  0.74708621  1
  In  In83  1  0.16396759  0.50077081  -0.00081753  1
  In  In84  1  0.50295813  0.50389107  0.75201339  1
  In  In85  1  0.83382817  0.50197780  0.75339637  1
  In  In86  1  -0.00186251  0.33392113  0.00203586  1
  In  In87  1  0.33277590  0.66942362  0.49770948  1
  In  In88  1  0.66531414  0.00124724  0.25244804  1
  In  In89  1  0.33134007  0.00048484  -0.00396149  1
  In  In90  1  0.16703683  0.16592662  0.25317161  1
  In  In91  1  0.32954498  0.66432111  0.00073782  1
  In  In92  1  0.16603726  0.83201353  0.25180645  1
  In  In93  1  0.16556571  0.16900418  0.50327370  1
  In  In94  1  0.66527483  0.00017317  0.50168491  1
  In  In95  1  0.00095582  0.66724478  0.75176818  1
  In  In96  1  0.33288196  0.33532586  0.74863690  1
  In  In97  1  0.50336935  0.17079903  0.00159848  1
  In  In98  1  0.16441997  0.50163699  0.49884179  1
  In  In99  1  0.83089608  0.83211200  -0.00073353  1
  In  In100  1  0.66659588  0.66772507  0.49918513  1
  In  In101  1  0.49856650  0.83502330  0.25058673  1
  In  In102  1  0.33034582  0.66640129  0.24766165  1
  In  In103  1  0.83238643  0.16626685  0.00012222  1
  In  In104  1  0.16513361  0.16762054  0.74892022  1
  In  In105  1  -0.00136462  -0.00154201  -0.00057544  1
  In  In106  1  0.33627034  -0.00163556  0.25425424  1
  In  In107  1  -0.00302473  0.66741985  0.25043086  1
  Ir  Ir108  1  0.50088365  0.16808698  0.25818267  1
  Ir  Ir109  1  0.50331885  0.16765269  0.74170949  1
  Ir  Ir110  1  0.83554273  0.49781535  0.24676304  1
  Ir  Ir111  1  0.66782000  0.66742790  0.75041343  1
  Ir  Ir112  1  0.50659995  0.50082118  0.00123023  1
  Ir  Ir113  1  0.67040318  0.65909907  -0.00070553  1
  Ir  Ir114  1  0.83462634  0.17028736  0.25245166  1
  Ir  Ir115  1  0.50283051  0.82852090  0.74107165  1
  Ir  Ir116  1  0.49926007  0.83617390  0.49944224  1
  Ir  Ir117  1  0.16492173  0.83486766  0.50247481  1
  Ir  Ir118  1  0.16236912  0.83470680  0.74368424  1
  Ir  Ir119  1  0.33453738  0.33209916  0.49929097  1
  Ir  Ir120  1  -0.00668691  -0.00068924  0.25515294  1
  Ir  Ir121  1  0.82736224  0.83072913  0.25251985  1
  Ir  Ir122  1  0.00062018  -0.00048650  0.74713303  1
  Ir  Ir123  1  0.83222201  0.16796283  0.50347167  1
  Ir  Ir124  1  0.83355532  0.16424494  0.74927052  1
  Ir  Ir125  1  0.33004358  0.67026469  0.74852113  1
  Ir  Ir126  1  0.34081705  0.33622111  0.25379410  1
  Ir  Ir127  1  0.83730334  0.50148849  0.49583081  1
  Ir  Ir128  1  0.50296112  0.49925990  0.24638010  1
  Ir  Ir129  1  0.83255727  0.49798956  0.00328145  1
  Ir  Ir130  1  -0.00470203  0.66722355  0.49913429  1
  Ir  Ir131  1  0.67420797  0.33113688  0.49985754  1
  Ir  Ir132  1  0.66632576  0.00140739  0.00072554  1
  Ir  Ir133  1  -0.00045111  0.66273765  0.00285148  1
  Ir  Ir134  1  -0.00343652  -0.00102285  0.50641188  1
  Ir  Ir135  1  0.33732255  -0.00459296  0.50373988  1
  Ir  Ir136  1  0.16396635  0.50522256  0.74681828  1
  Ir  Ir137  1  0.66925431  0.33898488  0.00090311  1
  Ir  Ir138  1  -0.00687626  0.33459652  0.25410134  1
  Ir  Ir139  1  0.49882238  0.16627804  0.50049879  1
  Ir  Ir140  1  0.67163229  0.66381356  0.24715772  1
  Ir  Ir141  1  -0.00375278  0.33694861  0.50020614  1
  Ir  Ir142  1  0.16758255  0.49847509  0.25136253  1
  Ir  Ir143  1  0.67223549  0.33176704  0.75228953  1
  O  O144  1  0.32460116  0.33606713  0.13525343  1
  O  O145  1  0.30389439  0.32910357  0.61879371  1
  O  O146  1  0.29453738  0.65547750  0.12519535  1
  O  O147  1  0.31439615  0.67031798  0.62831708  1
  O  O148  1  0.31752839  0.98494399  0.12603706  1
  O  O149  1  0.30558639  0.98400514  0.62156363  1
  O  O150  1  0.63732687  0.33596033  0.12027911  1
  O  O151  1  0.65255682  0.32504906  0.62628711  1
  O  O152  1  0.64866992  0.64871921  0.12189603  1
  O  O153  1  0.64958802  0.66100729  0.63205159  1
  O  O154  1  0.63593974  1.00053899  0.12337811  1
  O  O155  1  0.62985937  0.98553526  0.62233025  1
  O  O156  1  0.96429357  0.33440864  0.13468600  1
  O  O157  1  0.97817193  0.34357484  0.61873302  1
  O  O158  1  0.96387585  0.65034013  0.12104257  1
  O  O159  1  0.96479752  0.65505996  0.61990169  1
  O  O160  1  0.97900839  1.00199395  0.13425410  1
  O  O161  1  0.96457560  0.98942035  0.62744068  1
  O  O162  1  0.17787516  0.16140314  0.12809469  1
  O  O163  1  0.19842084  0.14970981  0.62347579  1
  O  O164  1  0.17950342  0.49821933  0.13259933  1
  O  O165  1  0.18745336  0.49501279  0.62640565  1
  O  O166  1  0.19985414  0.81963079  0.12479194  1
  O  O167  1  0.19619198  0.83467887  0.62302615  1
  O  O168  1  0.52077696  0.15440201  0.13917906  1
  O  O169  1  0.53360681  0.15887691  0.61945118  1
  O  O170  1  0.53632006  0.49306245  0.12292823  1
  O  O171  1  0.51571566  0.50233538  0.62569289  1
  O  O172  1  0.52045586  0.83474911  0.12595367  1
  O  O173  1  0.53249815  0.82442096  0.61866271  1
  O  O174  1  0.85434224  0.17001946  0.13147871  1
  O  O175  1  0.85633569  0.15584468  0.62623317  1
  O  O176  1  0.86801942  0.48538641  0.12486288  1
  O  O177  1  0.86356007  0.50437059  0.61814842  1
  O  O178  1  0.84727860  0.82250486  0.12982733  1
  O  O179  1  0.87081764  0.80790996  0.62557891  1
  O  O180  1  0.15156163  0.16901247  0.37954187  1
  O  O181  1  0.12593091  0.17696862  0.86844079  1
  O  O182  1  0.14490579  0.50160595  0.37020125  1
  O  O183  1  0.13207633  0.51309536  0.86701807  1
  O  O184  1  0.14694854  0.83910892  0.38392249  1
  O  O185  1  0.12975680  0.84091643  0.86223336  1
  O  O186  1  0.47678454  0.17812640  0.38020977  1
  O  O187  1  0.48689453  0.17017151  0.86353505  1
  O  O188  1  0.47193422  0.49525221  0.36567917  1
  O  O189  1  0.47534822  0.50233587  0.88193151  1
  O  O190  1  0.46458446  0.84511350  0.38184719  1
  O  O191  1  0.48756590  0.83034652  0.86337899  1
  O  O192  1  0.80256322  0.17720391  0.37921325  1
  O  O193  1  0.81004412  0.17553922  0.86742840  1
  O  O194  1  0.81300177  0.51213712  0.37067072  1
  O  O195  1  0.80044980  0.50514016  0.88486073  1
  O  O196  1  0.79919264  0.83348620  0.37360911  1
  O  O197  1  0.81098014  0.84645902  0.87226771  1
  O  O198  1  0.01433380  -0.00373626  0.38253876  1
  O  O199  1  0.03319280  0.00839563  0.86365190  1
  O  O200  1  0.01683287  0.33287766  0.37848158  1
  O  O201  1  0.02152120  0.35419082  0.87370439  1
  O  O202  1  0.02844754  0.67022981  0.37992211  1
  O  O203  1  0.03502342  0.67410808  0.88367016  1
  O  O204  1  0.36795466  -0.00279113  0.38653362  1
  O  O205  1  0.35723229  -0.00199299  0.86828777  1
  O  O206  1  0.35758602  0.34673114  0.37595308  1
  O  O207  1  0.34816278  0.35269792  0.87496294  1
  O  O208  1  0.35448470  0.68868607  0.37258503  1
  O  O209  1  0.34685169  0.67041558  0.86710587  1
  O  O210  1  0.68742676  0.02132632  0.37933243  1
  O  O211  1  0.69409573  0.00175270  0.87671488  1
  O  O212  1  0.69906686  0.33030459  0.37843162  1
  O  O213  1  0.70246700  0.34209641  0.87692482  1
  O  O214  1  0.70082655  0.67564150  0.36809044  1
  O  O215  1  0.68942401  0.67006306  0.87510223  1
  O  O216  1  0.05813285  0.10068187  0.00297019  1
  O  O217  1  0.07372600  0.08414733  0.52326809  1
  O  O218  1  0.05696973  0.44242972  0.01552195  1
  O  O219  1  0.06779535  0.42826514  0.52325530  1
  O  O220  1  0.06593354  0.75189048  0.02674823  1
  O  O221  1  0.06304669  0.76673747  0.52484783  1
  O  O222  1  0.41429901  0.09064466  0.01948003  1
  O  O223  1  0.40400504  0.09423772  0.53053887  1
  O  O224  1  0.42177095  0.42733013  0.02111270  1
  O  O225  1  0.40793376  0.41739253  0.51146203  1
  O  O226  1  0.39890874  0.76195742  0.01936043  1
  O  O227  1  0.40387530  0.77303230  0.52244210  1
  O  O228  1  0.73700292  0.09056573  0.01590037  1
  O  O229  1  0.73869935  0.10075210  0.52851485  1
  O  O230  1  0.73685888  0.43378123  0.02974051  1
  O  O231  1  0.74288533  0.42977741  0.51528239  1
  O  O232  1  0.74569131  0.74489726  0.01936179  1
  O  O233  1  0.73511864  0.76278241  0.52908324  1
  O  O234  1  0.09322906  0.26729081  0.02181134  1
  O  O235  1  0.09320284  0.27225345  0.52406791  1
  O  O236  1  0.09022050  0.59803230  0.03173703  1
  O  O237  1  0.08256601  0.59436424  0.51957156  1
  O  O238  1  0.08994229  0.92180053  0.01076771  1
  O  O239  1  0.09225328  0.92928701  0.53231564  1
  O  O240  1  0.43730528  0.26809673  0.02360425  1
  O  O241  1  0.42166898  0.25395503  0.52798381  1
  O  O242  1  0.43199412  0.58629425  0.01828556  1
  O  O243  1  0.41727973  0.58528082  0.50309698  1
  O  O244  1  0.42842432  0.92605132  0.02190835  1
  O  O245  1  0.43488523  0.93063707  0.52947069  1
  O  O246  1  0.76322846  0.27304934  0.02149605  1
  O  O247  1  0.76321382  0.25876347  0.52159669  1
  O  O248  1  0.76599023  0.59052459  0.03093034  1
  O  O249  1  0.77388398  0.59936344  0.51196439  1
  O  O250  1  0.75730895  0.93141064  0.01376688  1
  O  O251  1  0.76109604  0.92837954  0.53419414  1
  O  O252  1  0.24493739  0.07346321  0.26800481  1
  O  O253  1  0.22752876  0.06035029  0.76506652  1
  O  O254  1  0.25244910  0.41502284  0.27878492  1
  O  O255  1  0.23234865  0.41549537  0.76208305  1
  O  O256  1  0.22469661  0.72619997  0.27516621  1
  O  O257  1  0.22881079  0.73803949  0.76844202  1
  O  O258  1  0.56851180  0.07813294  0.28606184  1
  O  O259  1  0.56890237  0.07415829  0.75564070  1
  O  O260  1  0.57628830  0.41199957  0.26195420  1
  O  O261  1  0.58567523  0.40687673  0.77115571  1
  O  O262  1  0.58395694  0.73984633  0.27017412  1
  O  O263  1  0.57114059  0.73269127  0.76113521  1
  O  O264  1  0.90342231  0.07628340  0.27237371  1
  O  O265  1  0.90189379  0.06462812  0.77413116  1
  O  O266  1  0.89532434  0.39976706  0.27347739  1
  O  O267  1  0.90153382  0.40300256  0.77649548  1
  O  O268  1  0.89423734  0.73551912  0.26968357  1
  O  O269  1  0.91553248  0.74526554  0.78396617  1
  O  O270  1  0.26438031  0.25280208  0.26790420  1
  O  O271  1  0.26785891  0.23449523  0.75554260  1
  O  O272  1  0.25710441  0.56623367  0.28225097  1
  O  O273  1  0.26121028  0.57303618  0.77488123  1
  O  O274  1  0.27100108  0.89369159  0.26944802  1
  O  O275  1  0.25206316  0.90170426  0.76285102  1
  O  O276  1  0.59763608  0.23301132  0.27550484  1
  O  O277  1  0.60170164  0.23486983  0.75298141  1
  O  O278  1  0.59942867  0.57147525  0.26302005  1
  O  O279  1  0.60551192  0.57166462  0.77666351  1
  O  O280  1  0.59545631  0.90567289  0.28828727  1
  O  O281  1  0.59642568  0.89521946  0.75458162  1
  O  O282  1  0.92201154  0.24430937  0.28059328  1
  O  O283  1  0.92778985  0.23279198  0.77343446  1
  O  O284  1  0.92163488  0.57208261  0.26647649  1
  O  O285  1  0.93643771  0.56501365  0.77180926  1
  O  O286  1  0.91687963  0.90368791  0.26845002  1
  O  O287  1  0.93858420  0.90647094  0.77401172  1
  O  O288  1  0.26416046  0.24400628  0.49098682  1
  O  O289  1  0.26362077  0.23681668  0.98543291  1
  O  O290  1  0.25236606  0.57906043  0.46907622  1
  O  O291  1  0.25930541  0.56983907  0.96321819  1
  O  O292  1  0.27099280  0.89684895  0.48468747  1
  O  O293  1  0.25596651  0.90415512  0.97550974  1
  O  O294  1  0.60430660  0.23026631  0.48479075  1
  O  O295  1  0.60075730  0.24925100  0.98228456  1
  O  O296  1  0.59376989  0.57677346  0.48125342  1
  O  O297  1  0.60441340  0.56459612  0.97972029  1
  O  O298  1  0.59282814  0.90052507  0.47155991  1
  O  O299  1  0.59631557  0.91352063  0.98330092  1
  O  O300  1  0.92197843  0.24469049  0.47845370  1
  O  O301  1  0.92466612  0.23999799  0.96625764  1
  O  O302  1  0.92845313  0.57397586  0.47351473  1
  O  O303  1  0.93115708  0.56315508  0.97797489  1
  O  O304  1  0.92896834  0.90668610  0.49404169  1
  O  O305  1  0.92572556  0.90477127  0.97117886  1
  O  O306  1  0.24666167  0.06250877  0.49010224  1
  O  O307  1  0.22921146  0.06581489  0.96986276  1
  O  O308  1  0.24959864  0.41028343  0.48293840  1
  O  O309  1  0.24474722  0.41363643  0.99031433  1
  O  O310  1  0.23122235  0.74255646  0.47429535  1
  O  O311  1  0.22323544  0.72520209  0.97672411  1
  O  O312  1  0.56243060  0.07212139  0.47894121  1
  O  O313  1  0.57797351  0.07317801  0.98778573  1
  O  O314  1  0.58499293  0.40227244  0.48776078  1
  O  O315  1  0.58073081  0.41176021  0.97361974  1
  O  O316  1  0.57142451  0.74929527  0.47224854  1
  O  O317  1  0.58200571  0.73350941  0.98934079  1
  O  O318  1  0.89999413  0.06996009  0.49203977  1
  O  O319  1  0.89909729  0.06773727  0.96776099  1
  O  O320  1  0.89995942  0.40267179  0.47498649  1
  O  O321  1  0.89133377  0.40235505  0.97752850  1
  O  O322  1  0.90113078  0.72934569  0.47329786  1
  O  O323  1  0.91426577  0.73791751  0.98478321  1
  O  O324  1  0.08288515  0.26529642  0.24183563  1
  O  O325  1  0.10112333  0.27136216  0.71663484  1
  O  O326  1  0.09476925  0.58824042  0.23019765  1
  O  O327  1  0.09623828  0.59460477  0.72589800  1
  O  O328  1  0.08169449  0.92554325  0.24127605  1
  O  O329  1  0.09592664  0.93217085  0.71786106  1
  O  O330  1  0.43563735  0.26596851  0.22929780  1
  O  O331  1  0.42952795  0.25356794  0.72506670  1
  O  O332  1  0.42822536  0.58588879  0.23233901  1
  O  O333  1  0.42012134  0.59986325  0.73856223  1
  O  O334  1  0.44492900  0.94496598  0.23646026  1
  O  O335  1  0.43377549  0.92072463  0.71557175  1
  O  O336  1  0.77095008  0.26591192  0.23234689  1
  O  O337  1  0.76462275  0.25750903  0.72822178  1
  O  O338  1  0.76733180  0.59314965  0.22144666  1
  O  O339  1  0.76595426  0.60457971  0.73051050  1
  O  O340  1  0.75711116  0.91977783  0.23608381  1
  O  O341  1  0.76700845  0.93156568  0.72002935  1
  O  O342  1  0.06719353  0.08403569  0.24659442  1
  O  O343  1  0.06604535  0.08867187  0.72255123  1
  O  O344  1  0.06599623  0.42834990  0.22687914  1
  O  O345  1  0.07072774  0.43974377  0.72136566  1
  O  O346  1  0.07392699  0.75375099  0.22340605  1
  O  O347  1  0.06931252  0.76932595  0.72150899  1
  O  O348  1  0.41284461  0.10051403  0.24245563  1
  O  O349  1  0.41005781  0.09828482  0.71642477  1
  O  O350  1  0.41925796  0.42290248  0.22256361  1
  O  O351  1  0.40854469  0.42859072  0.74204298  1
  O  O352  1  0.39587565  0.77064885  0.22548960  1
  O  O353  1  0.39980703  0.76501388  0.72300685  1
  O  O354  1  0.74305436  0.10105600  0.23926459  1
  O  O355  1  0.74054849  0.09719330  0.71955351  1
  O  O356  1  0.74453128  0.42879565  0.22076888  1
  O  O357  1  0.73774817  0.42640411  0.74180233  1
  O  O358  1  0.74098631  0.75553169  0.22689482  1
  O  O359  1  0.73402538  0.76108018  0.72208490  1
