# generated using pymatgen
data_BaLaInIrO6
_symmetry_space_group_name_H-M   'P 1'
_cell_length_a   17.53108490
_cell_length_b   17.56557584
_cell_length_c   16.50869698
_cell_angle_alpha   90.05032433
_cell_angle_beta   89.97399310
_cell_angle_gamma   90.03872890
_symmetry_Int_Tables_number   1
_chemical_formula_structural   BaLaInIrO6
_chemical_formula_sum   'Ba36 La36 In36 Ir36 O216'
_cell_volume   5083.74395551
_cell_formula_units_Z   36
loop_
 _symmetry_equiv_pos_site_id
 _symmetry_equiv_pos_as_xyz
  1  'x, y, z'
loop_
 _atom_site_type_symbol
 _atom_site_label
 _atom_site_symmetry_multiplicity
 _atom_site_fract_x
 _atom_site_fract_y
 _atom_site_fract_z
 _atom_site_occupancy
  Ba  Ba0  1  0.67195220  0.50867291  0.12424349  1
  Ba  Ba1  1  1.00097776  0.51430252  0.12498382  1
  Ba  Ba2  1  0.16904236  0.32447092  0.37706986  1
  Ba  Ba3  1  0.83300144  0.01214355  0.62573953  1
  Ba  Ba4  1  1.00608928  0.51022343  0.62421396  1
  Ba  Ba5  1  0.16549366  0.67394816  0.62091709  1
  Ba  Ba6  1  0.66650217  0.82978455  0.87663165  1
  Ba  Ba7  1  0.33198967  0.17476156  0.62918376  1
  Ba  Ba8  1  0.66620804  0.48794631  0.37181381  1
  Ba  Ba9  1  0.33328892  0.17254165  0.12914436  1
  Ba  Ba10  1  0.66372045  0.15679491  0.87410896  1
  Ba  Ba11  1  0.33610144  0.50855979  0.62145169  1
  Ba  Ba12  1  1.00038926  0.83801765  0.62475978  1
  Ba  Ba13  1  0.83208689  0.65161518  0.36961213  1
  Ba  Ba14  1  0.50015804  0.34436492  0.12148388  1
  Ba  Ba15  1  0.66926023  0.50711498  0.62622973  1
  Ba  Ba16  1  0.49779221  0.99289626  0.37870368  1
  Ba  Ba17  1  0.50271861  0.65163495  0.36973562  1
  Ba  Ba18  1  0.83493220  0.98771263  0.87353298  1
  Ba  Ba19  1  0.00564404  0.49456578  0.87715505  1
  Ba  Ba20  1  0.49920187  0.32568076  0.87243746  1
  Ba  Ba21  1  -0.00501008  0.15520378  0.87667024  1
  Ba  Ba22  1  0.83170931  0.00715296  0.12467528  1
  Ba  Ba23  1  0.16415321  0.01141310  0.12715673  1
  Ba  Ba24  1  0.33552621  0.83915956  0.12249007  1
  Ba  Ba25  1  0.83684082  0.34475655  0.63064748  1
  Ba  Ba26  1  0.50066806  0.99000334  0.87564433  1
  Ba  Ba27  1  0.33416990  0.15783247  0.37443903  1
  Ba  Ba28  1  0.33552178  0.48754578  0.37401720  1
  Ba  Ba29  1  0.66228816  0.83971708  0.12817690  1
  Ba  Ba30  1  -0.00315941  0.82355362  0.87301022  1
  Ba  Ba31  1  0.16844513  0.98767718  0.87233849  1
  Ba  Ba32  1  0.49859262  0.66158833  0.87668001  1
  Ba  Ba33  1  0.16867898  0.99426147  0.37319628  1
  Ba  Ba34  1  1.00193300  0.17154568  0.63013329  1
  Ba  Ba35  1  0.33554371  0.50623323  0.12923644  1
  La  La36  1  0.83722117  0.98464672  0.37250639  1
  La  La37  1  0.15926774  0.34999031  0.62658461  1
  La  La38  1  0.84048731  0.32162905  0.87896851  1
  La  La39  1  0.50089273  0.32891117  0.37062457  1
  La  La40  1  0.49333068  0.01380539  0.12055893  1
  La  La41  1  0.15718063  0.68673058  0.12238223  1
  La  La42  1  0.33157625  0.84519692  0.62517376  1
  La  La43  1  0.49291995  0.68477462  0.62393086  1
  La  La44  1  0.17244683  0.65303989  0.87151380  1
  La  La45  1  0.83695698  0.32230143  0.37793813  1
  La  La46  1  0.66268297  0.48540329  0.87301519  1
  La  La47  1  0.32739338  0.81812622  0.87506396  1
  La  La48  1  0.15575069  0.01107501  0.62114949  1
  La  La49  1  0.66183674  0.15719103  0.37736201  1
  La  La50  1  0.65940869  0.81541473  0.37810190  1
  La  La51  1  0.82674069  0.34750867  0.12657207  1
  La  La52  1  0.32874295  0.15028435  0.88294820  1
  La  La53  1  0.82995614  0.68002852  0.12507809  1
  La  La54  1  0.16555067  0.34306312  0.13088124  1
  La  La55  1  -0.00200570  0.15240422  0.37257272  1
  La  La56  1  0.50125575  0.67369463  0.13007416  1
  La  La57  1  0.16966489  0.65393307  0.37456032  1
  La  La58  1  0.84303012  0.66799475  0.62361488  1
  La  La59  1  0.66959363  0.84581395  0.62525835  1
  La  La60  1  0.66480301  0.18128830  0.12452640  1
  La  La61  1  -0.00440156  0.81303861  0.37423263  1
  La  La62  1  0.32727361  0.48427138  0.87431654  1
  La  La63  1  0.83742499  0.66118467  0.87648803  1
  La  La64  1  1.00365141  0.84932638  0.12409592  1
  La  La65  1  -0.00807586  0.48410315  0.37436547  1
  La  La66  1  0.67325692  0.18598184  0.62146908  1
  La  La67  1  0.17500759  0.31891903  0.87409291  1
  La  La68  1  1.00674151  0.18398337  0.12680089  1
  La  La69  1  0.49894729  0.01600564  0.62828438  1
  La  La70  1  0.49931948  0.34844459  0.62332646  1
  La  La71  1  0.32567486  0.82521574  0.37690716  1
  In  In72  1  0.16416407  0.50107456  0.25003289  1
  In  In73  1  0.66782332  0.33407468  -0.00108972  1
  In  In74  1  0.33374767  0.33199208  0.00178454  1
  In  In75  1  0.16369803  0.16537049  0.00182205  1
  In  In76  1  0.16587857  0.49987820  0.49564372  1
  In  In77  1  0.83554637  0.50387511  -0.00044800  1
  In  In78  1  0.33337274  0.33024291  0.50256676  1
  In  In79  1  0.83243541  0.16585445  0.25019415  1
  In  In80  1  0.33505666  -0.00091963  0.25012368  1
  In  In81  1  0.50237709  0.17043911  0.50268368  1
  In  In82  1  0.66614819  0.66758215  0.74903166  1
  In  In83  1  0.16918436  0.16770276  0.75096195  1
  In  In84  1  0.82968964  0.16699447  0.75153210  1
  In  In85  1  0.33290746  -0.00322900  0.74974449  1
  In  In86  1  0.00005397  0.32825637  0.50093104  1
  In  In87  1  0.83454810  0.16612348  0.00670421  1
  In  In88  1  0.49959569  0.83587636  0.25164147  1
  In  In89  1  0.83396969  0.50309672  0.75227020  1
  In  In90  1  0.33096022  -0.00055310  0.50424902  1
  In  In91  1  0.33621545  0.66722605  0.49806710  1
  In  In92  1  0.83053614  0.83402570  0.24932928  1
  In  In93  1  -0.00015733  -0.00337745  0.75086801  1
  In  In94  1  0.00280850  0.33542736  0.75640390  1
  In  In95  1  0.16269659  0.83496128  0.25237099  1
  In  In96  1  0.66823564  0.66712832  -0.00114267  1
  In  In97  1  0.16799591  0.49941645  0.00166561  1
  In  In98  1  0.33053698  0.66714333  0.24941841  1
  In  In99  1  0.49928090  0.16640672  -0.00374455  1
  In  In100  1  0.66328004  0.66336715  0.50311734  1
  In  In101  1  0.83089254  0.82928505  0.74746302  1
  In  In102  1  0.66459065  -0.00077741  0.00402918  1
  In  In103  1  0.66701418  0.00053951  0.49754668  1
  In  In104  1  -0.00154371  -0.00372667  0.49502407  1
  In  In105  1  0.82942382  0.82991405  0.49762737  1
  In  In106  1  0.33234817  0.66363232  0.00126270  1
  In  In107  1  0.49917949  0.50458441  0.75149491  1
  Ir  Ir108  1  0.33538598  0.32954941  0.25067489  1
  Ir  Ir109  1  0.50587636  0.16951689  0.25310846  1
  Ir  Ir110  1  0.66473238  0.33333665  0.74761326  1
  Ir  Ir111  1  0.17006953  0.82632669  0.74825449  1
  Ir  Ir112  1  0.66543831  0.00460080  0.25325347  1
  Ir  Ir113  1  0.00114392  0.33479592  0.00478205  1
  Ir  Ir114  1  0.50350113  0.49585814  0.24711295  1
  Ir  Ir115  1  0.00112282  0.66622164  0.49420548  1
  Ir  Ir116  1  0.33440188  0.66962177  0.74730021  1
  Ir  Ir117  1  0.50185253  0.16908351  0.74598260  1
  Ir  Ir118  1  0.49959958  0.50346445  0.00016516  1
  Ir  Ir119  1  0.16320579  0.17134550  0.25171280  1
  Ir  Ir120  1  0.65885780  0.00042579  0.74635509  1
  Ir  Ir121  1  -0.00184972  0.00201423  0.25031456  1
  Ir  Ir122  1  0.17262924  0.50225325  0.75155441  1
  Ir  Ir123  1  0.83731429  0.83123971  0.00264089  1
  Ir  Ir124  1  0.49629399  0.83226609  -0.00362581  1
  Ir  Ir125  1  -0.00266724  0.33224213  0.24995616  1
  Ir  Ir126  1  0.16489704  0.16546936  0.49918861  1
  Ir  Ir127  1  -0.00110105  0.66781816  0.24662824  1
  Ir  Ir128  1  0.67158031  0.33533862  0.49784218  1
  Ir  Ir129  1  0.16361766  0.83038991  0.49943331  1
  Ir  Ir130  1  0.33222265  -0.00582134  -0.00059679  1
  Ir  Ir131  1  0.00142866  0.67112506  0.00057156  1
  Ir  Ir132  1  0.50434080  0.49549609  0.49763602  1
  Ir  Ir133  1  0.67095605  0.33320738  0.25360408  1
  Ir  Ir134  1  0.49761969  0.83497498  0.74544139  1
  Ir  Ir135  1  0.00639019  0.66575546  0.75331242  1
  Ir  Ir136  1  0.49793848  0.83463689  0.50295882  1
  Ir  Ir137  1  0.66680908  0.66331537  0.24760456  1
  Ir  Ir138  1  0.16380687  0.83213393  -0.00469483  1
  Ir  Ir139  1  0.82893954  0.17064554  0.49577657  1
  Ir  Ir140  1  -0.00124075  -0.00327560  0.00485640  1
  Ir  Ir141  1  0.83594537  0.49988240  0.49680391  1
  Ir  Ir142  1  0.83654744  0.49654808  0.25243798  1
  Ir  Ir143  1  0.33464285  0.33384965  0.74982713  1
  O  O144  1  0.30353417  0.33084933  0.13080931  1
  O  O145  1  0.29968070  0.33090815  0.63290282  1
  O  O146  1  0.29383743  0.66661601  0.12347665  1
  O  O147  1  0.31775297  0.66956368  0.62754966  1
  O  O148  1  0.31610794  0.99762888  0.11908459  1
  O  O149  1  0.29308093  0.98571546  0.62707468  1
  O  O150  1  0.64955631  0.32568760  0.13436397  1
  O  O151  1  0.63590072  0.32794035  0.62244653  1
  O  O152  1  0.63734106  0.66450966  0.12764084  1
  O  O153  1  0.62503975  0.65963421  0.62511378  1
  O  O154  1  0.62978668  0.99542776  0.13741026  1
  O  O155  1  0.63257171  0.98908237  0.62627127  1
  O  O156  1  0.96496343  0.32415286  0.12747702  1
  O  O157  1  0.98746905  0.33198909  0.62773324  1
  O  O158  1  0.96738623  0.66861030  0.12361180  1
  O  O159  1  0.97643442  0.66347689  0.62252663  1
  O  O160  1  0.97829028  0.98622115  0.12874659  1
  O  O161  1  0.98780794  0.99993531  0.61973419  1
  O  O162  1  0.18117896  0.17470017  0.13111353  1
  O  O163  1  0.18208465  0.15140576  0.61964622  1
  O  O164  1  0.18520644  0.48315730  0.12662147  1
  O  O165  1  0.18449646  0.49338846  0.63038326  1
  O  O166  1  0.18117667  0.82504835  0.11692062  1
  O  O167  1  0.19732933  0.82383304  0.62403196  1
  O  O168  1  0.52987192  0.15610756  0.13379570  1
  O  O169  1  0.53754310  0.16216219  0.62933350  1
  O  O170  1  0.52457318  0.50316267  0.12329025  1
  O  O171  1  0.51967692  0.48798647  0.61959425  1
  O  O172  1  0.51355955  0.81931704  0.11650479  1
  O  O173  1  0.53242520  0.82469021  0.62400740  1
  O  O174  1  0.87360446  0.16259197  0.12985621  1
  O  O175  1  0.85006989  0.16963904  0.61489352  1
  O  O176  1  0.85451385  0.48698255  0.13209841  1
  O  O177  1  0.85543658  0.50185212  0.61695607  1
  O  O178  1  0.86448125  0.82754290  0.12425588  1
  O  O179  1  0.85197117  0.80751006  0.62098050  1
  O  O180  1  0.13458280  0.17130765  0.37490929  1
  O  O181  1  0.14302872  0.18133778  0.87747262  1
  O  O182  1  0.12656138  0.51009645  0.37074656  1
  O  O183  1  0.15635075  0.51102516  0.87127890  1
  O  O184  1  0.13081796  0.83886443  0.38118184  1
  O  O185  1  0.14517119  0.83223031  0.87033871  1
  O  O186  1  0.48630127  0.18611193  0.37261247  1
  O  O187  1  0.46698576  0.16832392  0.86491591  1
  O  O188  1  0.48405182  0.48679158  0.37183037  1
  O  O189  1  0.46567488  0.50549043  0.88062566  1
  O  O190  1  0.46337198  0.83892986  0.38381928  1
  O  O191  1  0.46498117  0.83810941  0.86833139  1
  O  O192  1  0.79967370  0.18077768  0.37689217  1
  O  O193  1  0.81200120  0.18274382  0.88025318  1
  O  O194  1  0.81626010  0.49636897  0.37396861  1
  O  O195  1  0.79758082  0.52314226  0.87583724  1
  O  O196  1  0.79569726  0.84226887  0.37161016  1
  O  O197  1  0.81903667  0.82462666  0.88168143  1
  O  O198  1  0.01986652  0.01621267  0.36889628  1
  O  O199  1  0.01809455  -0.00414808  0.88519358  1
  O  O200  1  0.01890806  0.34226728  0.36956314  1
  O  O201  1  0.03691896  0.33562455  0.88695661  1
  O  O202  1  0.03184664  0.67494179  0.36969460  1
  O  O203  1  0.03589915  0.66965050  0.87731054  1
  O  O204  1  0.34599387  -0.00549233  0.37842159  1
  O  O205  1  0.35008929  -0.00296253  0.87991191  1
  O  O206  1  0.36407458  0.32814473  0.37093764  1
  O  O207  1  0.35304934  0.34685790  0.86906118  1
  O  O208  1  0.35632061  0.69056538  0.37560986  1
  O  O209  1  0.34789104  0.67792082  0.86798834  1
  O  O210  1  0.70262190  0.01756855  0.36995249  1
  O  O211  1  0.68013667  0.00145654  0.86795510  1
  O  O212  1  0.70204703  0.33450151  0.37599832  1
  O  O213  1  0.69722886  0.33856186  0.86784102  1
  O  O214  1  0.68177944  0.67266654  0.36998403  1
  O  O215  1  0.70088383  0.67641496  0.87546198  1
  O  O216  1  0.06336924  0.09284620  0.02592253  1
  O  O217  1  0.07086442  0.09903393  0.50737116  1
  O  O218  1  0.07193244  0.42139760  0.02396915  1
  O  O219  1  0.07684075  0.42113367  0.51463032  1
  O  O220  1  0.06852622  0.76486939  0.02678159  1
  O  O221  1  0.06381682  0.76623231  0.50709438  1
  O  O222  1  0.40202052  0.08585704  0.01406201  1
  O  O223  1  0.41424643  0.08745899  0.52586066  1
  O  O224  1  0.40783214  0.43459256  0.01284330  1
  O  O225  1  0.41636369  0.42504905  0.51603157  1
  O  O226  1  0.40418245  0.76440923  0.00253894  1
  O  O227  1  0.40554890  0.76818131  0.53007003  1
  O  O228  1  0.73241381  0.09863824  0.02956390  1
  O  O229  1  0.73344328  0.10898361  0.51817482  1
  O  O230  1  0.74591351  0.42386822  0.01377983  1
  O  O231  1  0.74139998  0.43003977  0.51538165  1
  O  O232  1  0.75085131  0.76065440  0.02698950  1
  O  O233  1  0.72289705  0.76795226  0.51278774  1
  O  O234  1  0.09071096  0.26592845  0.03411331  1
  O  O235  1  0.10304290  0.25948848  0.52333162  1
  O  O236  1  0.09999523  0.60669696  0.01838061  1
  O  O237  1  0.09120407  0.59908495  0.50945115  1
  O  O238  1  0.09111992  0.92301783  0.02406270  1
  O  O239  1  0.10241185  0.92602799  0.52138360  1
  O  O240  1  0.42434320  0.25633352  0.01561321  1
  O  O241  1  0.43537113  0.26765520  0.52592911  1
  O  O242  1  0.43653004  0.59928524  0.02723568  1
  O  O243  1  0.43812629  0.59218520  0.51725342  1
  O  O244  1  0.42896422  0.92822714  0.02227977  1
  O  O245  1  0.43217885  0.92464287  0.53421020  1
  O  O246  1  0.76526762  0.26428814  0.03274102  1
  O  O247  1  0.76694579  0.26872605  0.51780518  1
  O  O248  1  0.76898882  0.60232198  0.02936070  1
  O  O249  1  0.77100219  0.59711577  0.51788127  1
  O  O250  1  0.76288665  0.92041539  0.01467025  1
  O  O251  1  0.75902893  0.92879276  0.52029951  1
  O  O252  1  0.23770447  0.08215152  0.26265492  1
  O  O253  1  0.25547902  0.08404153  0.77708558  1
  O  O254  1  0.24581534  0.40088964  0.26609572  1
  O  O255  1  0.23841229  0.40284605  0.77468909  1
  O  O256  1  0.22967469  0.73815120  0.27523313  1
  O  O257  1  0.23693242  0.73270676  0.77408401  1
  O  O258  1  0.57917620  0.08125639  0.28251749  1
  O  O259  1  0.56627471  0.07180937  0.76357182  1
  O  O260  1  0.57227715  0.39780723  0.27137798  1
  O  O261  1  0.57859351  0.40739206  0.76732142  1
  O  O262  1  0.58253079  0.74317583  0.26667559  1
  O  O263  1  0.56169973  0.74324097  0.76202416  1
  O  O264  1  0.90318961  0.06791687  0.27896007  1
  O  O265  1  0.90761862  0.07693862  0.76304410  1
  O  O266  1  0.90261957  0.39954264  0.27678299  1
  O  O267  1  0.90368753  0.40848368  0.78254569  1
  O  O268  1  0.91109931  0.73967956  0.27004574  1
  O  O269  1  0.90616303  0.72637957  0.76770684  1
  O  O270  1  0.26104486  0.23989901  0.27105567  1
  O  O271  1  0.27061167  0.24266394  0.78010030  1
  O  O272  1  0.25471989  0.57673503  0.27916663  1
  O  O273  1  0.27124961  0.57110091  0.77332528  1
  O  O274  1  0.26376634  0.90006824  0.26883629  1
  O  O275  1  0.26759924  0.88841127  0.76563102  1
  O  O276  1  0.60217300  0.24025557  0.27726594  1
  O  O277  1  0.59215347  0.24162931  0.76592009  1
  O  O278  1  0.59460704  0.57018458  0.26447441  1
  O  O279  1  0.60062303  0.56665571  0.77934337  1
  O  O280  1  0.60304957  0.90789534  0.28174866  1
  O  O281  1  0.59141315  0.90281181  0.76303309  1
  O  O282  1  0.93162312  0.23998367  0.27780765  1
  O  O283  1  0.91764299  0.25050429  0.77421368  1
  O  O284  1  0.93435516  0.56555897  0.27285381  1
  O  O285  1  0.93538645  0.57851038  0.76893843  1
  O  O286  1  0.93129186  0.90764712  0.27503079  1
  O  O287  1  0.92122874  0.90579416  0.76058396  1
  O  O288  1  0.25814062  0.23164035  0.48703920  1
  O  O289  1  0.26098554  0.23614739  0.97316133  1
  O  O290  1  0.25487744  0.58063330  0.47672676  1
  O  O291  1  0.26752416  0.56679052  0.97229521  1
  O  O292  1  0.26292729  0.88994063  0.48569652  1
  O  O293  1  0.26303126  0.89701152  0.97454763  1
  O  O294  1  0.60832092  0.24049275  0.48163093  1
  O  O295  1  0.59832635  0.23731438  0.99428491  1
  O  O296  1  0.59244217  0.56462812  0.48147042  1
  O  O297  1  0.59524600  0.56665518  0.97583445  1
  O  O298  1  0.59322836  0.89811560  0.47587389  1
  O  O299  1  0.58543793  0.90232631  0.98942244  1
  O  O300  1  0.92491811  0.23405829  0.46810283  1
  O  O301  1  0.93040443  0.24848696  0.98396965  1
  O  O302  1  0.93467168  0.56509136  0.47498852  1
  O  O303  1  0.93018647  0.58264632  0.97827343  1
  O  O304  1  0.92551973  0.90328392  0.46273938  1
  O  O305  1  0.93226075  0.89940008  0.99182950  1
  O  O306  1  0.23020709  0.07171260  0.48905715  1
  O  O307  1  0.24445270  0.06970721  0.98197482  1
  O  O308  1  0.24482492  0.40805967  0.48753808  1
  O  O309  1  0.23597162  0.40051206  0.97506322  1
  O  O310  1  0.22978140  0.74079951  0.47142661  1
  O  O311  1  0.23068052  0.73919393  0.97369372  1
  O  O312  1  0.57851378  0.07861175  0.47983678  1
  O  O313  1  0.56573949  0.06759972  0.99448590  1
  O  O314  1  0.56872058  0.39479383  0.47983567  1
  O  O315  1  0.57367978  0.41521141  0.97630079  1
  O  O316  1  0.56281693  0.74420142  0.47944685  1
  O  O317  1  0.56843349  0.74276528  0.98571908  1
  O  O318  1  0.89311349  0.07528609  0.46956595  1
  O  O319  1  0.90886717  0.06605956  0.98606887  1
  O  O320  1  0.90268503  0.40569678  0.47403381  1
  O  O321  1  0.90820618  0.40253829  0.97879254  1
  O  O322  1  0.91029013  0.73586745  0.47388095  1
  O  O323  1  0.90250898  0.73349257  0.98251864  1
  O  O324  1  0.09155484  0.26537300  0.22491452  1
  O  O325  1  0.10759616  0.27117642  0.73269858  1
  O  O326  1  0.09448299  0.60641618  0.22264218  1
  O  O327  1  0.10863796  0.60069051  0.74252660  1
  O  O328  1  0.08656051  0.92906093  0.23098463  1
  O  O329  1  0.10669683  0.92038195  0.72590627  1
  O  O330  1  0.43296115  0.25939712  0.23098568  1
  O  O331  1  0.43289466  0.26690133  0.72200176  1
  O  O332  1  0.43357217  0.58911290  0.22860216  1
  O  O333  1  0.43106865  0.60584176  0.72436503  1
  O  O334  1  0.43636953  0.93366699  0.22426606  1
  O  O335  1  0.43040446  0.92604748  0.71723393  1
  O  O336  1  0.76528806  0.26846847  0.23045424  1
  O  O337  1  0.74748870  0.25722710  0.72444660  1
  O  O338  1  0.76740163  0.59324980  0.22600659  1
  O  O339  1  0.77116342  0.60426770  0.72349277  1
  O  O340  1  0.75620716  0.93566342  0.23616017  1
  O  O341  1  0.74712056  0.92861507  0.72769342  1
  O  O342  1  0.06158215  0.10598054  0.23241038  1
  O  O343  1  0.08565946  0.08113101  0.73498486  1
  O  O344  1  0.06842848  0.41976437  0.22920308  1
  O  O345  1  0.08294172  0.43165332  0.73631255  1
  O  O346  1  0.06246787  0.76319865  0.22402191  1
  O  O347  1  0.07566014  0.75866466  0.73281900  1
  O  O348  1  0.41949873  0.09416182  0.23455139  1
  O  O349  1  0.41856184  0.09064594  0.72391732  1
  O  O350  1  0.40964463  0.42149465  0.23159104  1
  O  O351  1  0.40689561  0.42312300  0.72947821  1
  O  O352  1  0.41623161  0.75067036  0.22497777  1
  O  O353  1  0.39992380  0.76851372  0.72368403  1
  O  O354  1  0.72785405  0.10088916  0.22608617  1
  O  O355  1  0.72567099  0.09335514  0.72352393  1
  O  O356  1  0.74422464  0.42299403  0.22822281  1
  O  O357  1  0.73520414  0.42354553  0.73777487  1
  O  O358  1  0.74307110  0.74812851  0.22733392  1
  O  O359  1  0.72877923  0.76859533  0.72351836  1
