# generated using pymatgen
data_BaLaInIrO6
_symmetry_space_group_name_H-M   'P 1'
_cell_length_a   17.53431599
_cell_length_b   17.56122784
_cell_length_c   16.49714691
_cell_angle_alpha   89.98180267
_cell_angle_beta   90.00718551
_cell_angle_gamma   89.96931246
_symmetry_Int_Tables_number   1
_chemical_formula_structural   BaLaInIrO6
_chemical_formula_sum   'Ba36 La36 In36 Ir36 O216'
_cell_volume   5079.86838984
_cell_formula_units_Z   36
loop_
 _symmetry_equiv_pos_site_id
 _symmetry_equiv_pos_as_xyz
  1  'x, y, z'
loop_
 _atom_site_type_symbol
 _atom_site_label
 _atom_site_symmetry_multiplicity
 _atom_site_fract_x
 _atom_site_fract_y
 _atom_site_fract_z
 _atom_site_occupancy
  Ba  Ba0  1  0.83467779  0.65931616  0.87465890  1
  Ba  Ba1  1  0.49729042  0.34123514  0.12542031  1
  Ba  Ba2  1  0.00447104  0.49277804  0.87733402  1
  Ba  Ba3  1  0.83762664  0.34129270  0.62020161  1
  Ba  Ba4  1  -0.00208131  0.16190092  0.37260746  1
  Ba  Ba5  1  0.49930749  0.65170859  0.87646498  1
  Ba  Ba6  1  0.49756266  0.00671015  0.62329494  1
  Ba  Ba7  1  0.66708269  0.50743776  0.62367434  1
  Ba  Ba8  1  0.50382656  0.65910881  0.38037439  1
  Ba  Ba9  1  0.16184932  0.01217783  0.12366686  1
  Ba  Ba10  1  0.17289458  0.65726381  0.87374058  1
  Ba  Ba11  1  0.83496727  0.65930127  0.37565422  1
  Ba  Ba12  1  0.16484252  0.34444644  0.62376032  1
  Ba  Ba13  1  0.49863302  0.99265068  0.37376996  1
  Ba  Ba14  1  0.99979738  0.50796045  0.12516141  1
  Ba  Ba15  1  0.66817670  0.82834341  0.37998954  1
  Ba  Ba16  1  0.83127665  0.67368710  0.12260210  1
  Ba  Ba17  1  0.99957951  0.84414702  0.12438094  1
  Ba  Ba18  1  0.50550626  0.00227233  0.12370890  1
  Ba  Ba19  1  0.49337571  0.68123647  0.62818439  1
  Ba  Ba20  1  0.33434941  0.84783415  0.62895575  1
  Ba  Ba21  1  0.83192219  0.33907430  0.12317331  1
  Ba  Ba22  1  0.66845125  0.50753727  0.12657600  1
  Ba  Ba23  1  0.17024616  0.99057598  0.87964847  1
  Ba  Ba24  1  1.00336061  0.50688075  0.62436112  1
  Ba  Ba25  1  0.83158151  0.00542994  0.12829578  1
  Ba  Ba26  1  0.33082791  0.82353103  0.87428489  1
  Ba  Ba27  1  0.33153660  0.49375889  0.87505329  1
  Ba  Ba28  1  0.17233624  0.65272830  0.37521721  1
  Ba  Ba29  1  0.66546506  0.16342573  0.37277625  1
  Ba  Ba30  1  0.49637247  0.67336641  0.12650225  1
  Ba  Ba31  1  0.00285534  0.48977849  0.37359779  1
  Ba  Ba32  1  1.00007868  0.17428023  0.12201102  1
  Ba  Ba33  1  0.49809805  0.32470539  0.37335974  1
  Ba  Ba34  1  0.32780900  0.48441214  0.37188825  1
  Ba  Ba35  1  0.66152312  0.83931654  0.62444706  1
  La  La36  1  0.34073707  0.51710932  0.62442039  1
  La  La37  1  0.33065475  0.15647772  0.37411032  1
  La  La38  1  0.66666848  0.17791301  0.62384586  1
  La  La39  1  0.50245789  0.97983262  0.86942951  1
  La  La40  1  0.33686549  0.17883441  0.62705150  1
  La  La41  1  0.65885575  0.81205092  0.87348204  1
  La  La42  1  0.15998521  0.34658361  0.12911835  1
  La  La43  1  0.83699870  0.98077772  0.37774679  1
  La  La44  1  0.83549500  0.32044917  0.87492350  1
  La  La45  1  0.33070909  0.15053698  0.87636530  1
  La  La46  1  0.17022258  0.98919090  0.37338875  1
  La  La47  1  1.00651650  0.84618343  0.62668654  1
  La  La48  1  0.66949892  0.18077687  0.12959854  1
  La  La49  1  0.17396996  0.31382482  0.37831240  1
  La  La50  1  0.00050650  0.81641848  0.87761622  1
  La  La51  1  0.33541424  0.18292428  0.12207571  1
  La  La52  1  0.66499310  0.48905984  0.36993399  1
  La  La53  1  0.17589948  0.32567177  0.87720770  1
  La  La54  1  0.16938785  0.68020309  0.62746961  1
  La  La55  1  0.15896388  0.68022433  0.11798661  1
  La  La56  1  0.32950451  0.81770593  0.37921583  1
  La  La57  1  -0.00169689  0.15287698  0.87385403  1
  La  La58  1  0.33835459  0.51576568  0.12209027  1
  La  La59  1  0.50015143  0.32405395  0.87619039  1
  La  La60  1  1.00540028  0.18612464  0.62327677  1
  La  La61  1  0.65978140  0.82962653  0.13386662  1
  La  La62  1  0.49082088  0.34571318  0.62051537  1
  La  La63  1  0.16377209  0.01695559  0.62621290  1
  La  La64  1  0.83162244  0.67570814  0.62624500  1
  La  La65  1  0.82905675  0.33586896  0.36184942  1
  La  La66  1  0.66655070  0.15280068  0.87774870  1
  La  La67  1  0.66337689  0.48566515  0.87759486  1
  La  La68  1  -0.00582399  0.81735298  0.37495522  1
  La  La69  1  0.33564118  0.84789626  0.12147580  1
  La  La70  1  0.82753161  0.01886932  0.62541530  1
  La  La71  1  0.84119583  0.98291449  0.87319944  1
  In  In72  1  0.66665517  0.66729925  0.50575666  1
  In  In73  1  0.00128999  0.33411716  0.75419726  1
  In  In74  1  0.83535038  0.50338370  0.24755828  1
  In  In75  1  0.49537668  0.49983342  0.25135430  1
  In  In76  1  0.49946527  0.83052407  -0.00182164  1
  In  In77  1  0.83203945  0.16325780  -0.00256643  1
  In  In78  1  0.50106438  0.49687018  0.75115778  1
  In  In79  1  0.66873239  -0.00169708  0.25126230  1
  In  In80  1  0.83379888  0.16548076  0.25010895  1
  In  In81  1  0.49982472  0.16186279  -0.00416074  1
  In  In82  1  0.16725703  0.16880045  0.74989802  1
  In  In83  1  0.49655673  0.16347954  0.24762427  1
  In  In84  1  0.66547926  0.66592242  0.25387276  1
  In  In85  1  0.66465901  0.00369071  0.50256068  1
  In  In86  1  0.00509698  0.66337467  0.50236442  1
  In  In87  1  0.83429558  0.50132077  0.50056829  1
  In  In88  1  0.83398101  0.83410611  0.74742025  1
  In  In89  1  0.82978551  0.83413008  -0.00311087  1
  In  In90  1  0.83365620  0.49869238  -0.00408218  1
  In  In91  1  0.16598438  0.83537390  0.25200266  1
  In  In92  1  0.83672942  0.83298775  0.24815454  1
  In  In93  1  0.00007877  0.00365359  0.50247944  1
  In  In94  1  0.16567502  0.83698120  0.50200530  1
  In  In95  1  0.66334093  0.33424999  0.24744871  1
  In  In96  1  0.67055763  -0.00357636  -0.00468494  1
  In  In97  1  0.83217937  0.49782448  0.75080894  1
  In  In98  1  0.16619067  0.83686975  0.75227421  1
  In  In99  1  0.83481090  0.17006551  0.50025293  1
  In  In100  1  0.16865316  0.50069266  0.74630543  1
  In  In101  1  0.49649552  0.83371074  0.25318901  1
  In  In102  1  0.32914834  0.66970818  0.24831468  1
  In  In103  1  0.49913765  0.16569223  0.75134841  1
  In  In104  1  0.16653793  0.16970997  0.00154308  1
  In  In105  1  0.66367420  0.33408248  0.50528382  1
  In  In106  1  0.66891723  -0.00008315  0.75157052  1
  In  In107  1  0.16813213  0.49904741  0.00195209  1
  Ir  Ir108  1  0.00003529  0.66884187  0.75044164  1
  Ir  Ir109  1  0.33365732  0.66562541  0.75038686  1
  Ir  Ir110  1  0.32873297  0.66716810  0.00121469  1
  Ir  Ir111  1  0.83321537  0.16875025  0.75065832  1
  Ir  Ir112  1  0.00371993  0.66942602  -0.00102008  1
  Ir  Ir113  1  0.00672273  0.33293682  0.24923807  1
  Ir  Ir114  1  0.33601712  0.33113540  0.75033087  1
  Ir  Ir115  1  0.66519555  0.32742307  0.75327455  1
  Ir  Ir116  1  0.00745274  0.33098669  0.49329197  1
  Ir  Ir117  1  0.33175883  0.00107695  0.00270784  1
  Ir  Ir118  1  0.16825787  0.83392192  0.00160200  1
  Ir  Ir119  1  0.66556783  0.33299133  -0.00905740  1
  Ir  Ir120  1  0.49788969  0.83226507  0.75074114  1
  Ir  Ir121  1  0.32416073  0.32969108  0.24680366  1
  Ir  Ir122  1  0.49356900  0.16803552  0.50158569  1
  Ir  Ir123  1  0.33276136  0.33259128  -0.00189583  1
  Ir  Ir124  1  0.33220187  0.00349800  0.75089349  1
  Ir  Ir125  1  0.84340549  0.83226409  0.50507905  1
  Ir  Ir126  1  0.66313240  0.66468823  -0.00313255  1
  Ir  Ir127  1  0.33328418  0.66517753  0.50227922  1
  Ir  Ir128  1  0.66591795  0.66592071  0.75029817  1
  Ir  Ir129  1  -0.00348210  0.00126617  0.74959300  1
  Ir  Ir130  1  0.16981939  0.16530507  0.49995836  1
  Ir  Ir131  1  0.33108876  0.32962330  0.50109706  1
  Ir  Ir132  1  0.00338762  -0.00128979  -0.00711558  1
  Ir  Ir133  1  0.32867320  0.00276835  0.25115607  1
  Ir  Ir134  1  0.49103305  0.83603723  0.50281767  1
  Ir  Ir135  1  0.00499407  0.33206072  -0.00019011  1
  Ir  Ir136  1  0.49726068  0.49642027  -0.00090003  1
  Ir  Ir137  1  0.00741690  0.66619886  0.24550477  1
  Ir  Ir138  1  0.16788656  0.16583470  0.25234850  1
  Ir  Ir139  1  0.17462885  0.49725252  0.49899702  1
  Ir  Ir140  1  0.32837778  0.00313352  0.49805223  1
  Ir  Ir141  1  0.00560852  0.00213911  0.25320817  1
  Ir  Ir142  1  0.16935628  0.49517460  0.25060255  1
  Ir  Ir143  1  0.49511301  0.49695581  0.50116267  1
  O  O144  1  0.29686215  0.32052034  0.12177168  1
  O  O145  1  0.31089051  0.31529752  0.62613523  1
  O  O146  1  0.29858012  0.66233078  0.11976605  1
  O  O147  1  0.30674580  0.65742384  0.62635856  1
  O  O148  1  0.30776203  0.98376646  0.12692637  1
  O  O149  1  0.29905161  1.00083395  0.62437583  1
  O  O150  1  0.64656388  0.32020319  0.11024333  1
  O  O151  1  0.62915515  0.31769422  0.63543364  1
  O  O152  1  0.64585341  0.66678213  0.11568929  1
  O  O153  1  0.64143287  0.66576478  0.63345344  1
  O  O154  1  0.65865059  0.96587378  0.12043366  1
  O  O155  1  0.64731284  0.99895002  0.62762746  1
  O  O156  1  0.98233194  0.33433068  0.12478957  1
  O  O157  1  0.98996038  0.32915066  0.61621220  1
  O  O158  1  0.98233057  0.66576174  0.12145530  1
  O  O159  1  0.97019222  0.66454718  0.63289505  1
  O  O160  1  0.98276687  0.99831437  0.11913981  1
  O  O161  1  0.96323137  0.98772074  0.63213430  1
  O  O162  1  0.19714496  0.16734196  0.13180623  1
  O  O163  1  0.19969408  0.15851970  0.62060353  1
  O  O164  1  0.19766761  0.48473804  0.13068209  1
  O  O165  1  0.20338686  0.49332935  0.61840360  1
  O  O166  1  0.19803174  0.82628751  0.12255819  1
  O  O167  1  0.18456887  0.82350940  0.62745771  1
  O  O168  1  0.52999994  0.16324090  0.11862312  1
  O  O169  1  0.52335189  0.16553444  0.62215580  1
  O  O170  1  0.51297247  0.50112218  0.11787167  1
  O  O171  1  0.51163368  0.49039895  0.62184373  1
  O  O172  1  0.52381649  0.83689413  0.12203333  1
  O  O173  1  0.51038238  0.84089099  0.62795351  1
  O  O174  1  0.85278116  0.16608053  0.12129744  1
  O  O175  1  0.87044983  0.15974216  0.63355116  1
  O  O176  1  0.84972953  0.49571884  0.11991354  1
  O  O177  1  0.85514102  0.49404915  0.62765343  1
  O  O178  1  0.84874850  0.83575768  0.12124024  1
  O  O179  1  0.87248332  0.81971530  0.62476771  1
  O  O180  1  0.14609991  0.17141823  0.37640402  1
  O  O181  1  0.13776561  0.18140164  0.87528733  1
  O  O182  1  0.15092313  0.50203052  0.37454018  1
  O  O183  1  0.15716750  0.49926855  0.87486815  1
  O  O184  1  0.12937069  0.84746149  0.37839952  1
  O  O185  1  0.13877149  0.83438392  0.87904307  1
  O  O186  1  0.46405168  0.17068943  0.38090083  1
  O  O187  1  0.46307099  0.18469177  0.87409243  1
  O  O188  1  0.47548031  0.49558216  0.38371877  1
  O  O189  1  0.48122073  0.48812988  0.87822107  1
  O  O190  1  0.46399697  0.83333138  0.38356644  1
  O  O191  1  0.47917388  0.83550336  0.86992802  1
  O  O192  1  0.82032653  0.19594446  0.37634105  1
  O  O193  1  0.80300479  0.17812780  0.86915327  1
  O  O194  1  0.80449370  0.49707965  0.37484758  1
  O  O195  1  0.79865501  0.50385034  0.87328503  1
  O  O196  1  0.82511918  0.84029487  0.38453861  1
  O  O197  1  0.79882317  0.83724211  0.87082367  1
  O  O198  1  0.03396823  0.00803645  0.37289238  1
  O  O199  1  0.02524889  0.01506111  0.86972223  1
  O  O200  1  0.03825141  0.33022259  0.37036539  1
  O  O201  1  0.03857256  0.33177328  0.88284187  1
  O  O202  1  0.02613377  0.67892108  0.36694802  1
  O  O203  1  0.02686216  0.67889829  0.87513394  1
  O  O204  1  0.35091150  0.02079859  0.37445386  1
  O  O205  1  0.36307013  0.01439438  0.87710678  1
  O  O206  1  0.34803016  0.32781224  0.37418088  1
  O  O207  1  0.36534252  0.33955148  0.87465507  1
  O  O208  1  0.35207650  0.67517384  0.38175885  1
  O  O209  1  0.35130507  0.66576496  0.87470603  1
  O  O210  1  0.70126189  0.00720531  0.38315344  1
  O  O211  1  0.70737376  0.02084281  0.86972649  1
  O  O212  1  0.68975791  0.34333247  0.37868058  1
  O  O213  1  0.69654551  0.34494674  0.87152284  1
  O  O214  1  0.68264771  0.67141969  0.38245482  1
  O  O215  1  0.68498107  0.67416011  0.87249549  1
  O  O216  1  0.07100217  0.09262730  0.00687973  1
  O  O217  1  0.07518524  0.10144361  0.53324443  1
  O  O218  1  0.07527065  0.42062409  0.02230415  1
  O  O219  1  0.07905160  0.43030435  0.50937078  1
  O  O220  1  0.07830616  0.75974545  0.02242717  1
  O  O221  1  0.07034563  0.76209774  0.52901998  1
  O  O222  1  0.39498840  0.09605045  0.02283707  1
  O  O223  1  0.39264929  0.10343342  0.52082584  1
  O  O224  1  0.39824405  0.43009699  0.02401704  1
  O  O225  1  0.39869013  0.42522330  0.52925207  1
  O  O226  1  0.39626936  0.76053812  0.02200490  1
  O  O227  1  0.39579027  0.76405404  0.51586510  1
  O  O228  1  0.72197149  0.11019933  0.01701133  1
  O  O229  1  0.74266015  0.09475467  0.53626340  1
  O  O230  1  0.73014515  0.42477530  0.00709057  1
  O  O231  1  0.73784046  0.42745459  0.51542155  1
  O  O232  1  0.72369981  0.76460452  0.01266943  1
  O  O233  1  0.75303941  0.76402706  0.52645972  1
  O  O234  1  0.10039077  0.26981719  0.02502613  1
  O  O235  1  0.10536185  0.26240302  0.51152655  1
  O  O236  1  0.09486044  0.59816083  0.02089980  1
  O  O237  1  0.11237775  0.59414770  0.52412610  1
  O  O238  1  0.09561145  0.92337455  0.01783787  1
  O  O239  1  0.09822382  0.93745205  0.53314684  1
  O  O240  1  0.41972195  0.26102385  0.01923350  1
  O  O241  1  0.42351009  0.26023558  0.53038697  1
  O  O242  1  0.41868429  0.58951374  0.02319675  1
  O  O243  1  0.42441975  0.59110599  0.52349979  1
  O  O244  1  0.41948134  0.92720657  0.01174149  1
  O  O245  1  0.41926742  0.93229428  0.51490691  1
  O  O246  1  0.75932904  0.26865991  0.00107020  1
  O  O247  1  0.74839314  0.25089746  0.53389262  1
  O  O248  1  0.75285650  0.59725970  0.00961376  1
  O  O249  1  0.76688590  0.60250013  0.52991639  1
  O  O250  1  0.77977534  0.94393431  -0.00416897  1
  O  O251  1  0.78026169  0.92707464  0.52326120  1
  O  O252  1  0.23434258  0.07175873  0.27963203  1
  O  O253  1  0.24140734  0.07401641  0.76923978  1
  O  O254  1  0.22801367  0.39476255  0.27187973  1
  O  O255  1  0.24197492  0.39469331  0.77272709  1
  O  O256  1  0.24403022  0.74960933  0.28144502  1
  O  O257  1  0.24112935  0.73569896  0.75809858  1
  O  O258  1  0.57063505  0.07103145  0.26259238  1
  O  O259  1  0.56937255  0.07070045  0.78166490  1
  O  O260  1  0.57280907  0.41106562  0.26688649  1
  O  O261  1  0.56939996  0.39218627  0.77289330  1
  O  O262  1  0.56909444  0.73866924  0.26006504  1
  O  O263  1  0.57198923  0.74056027  0.77320114  1
  O  O264  1  0.90866136  0.06548966  0.27545654  1
  O  O265  1  0.90045833  0.07280427  0.77686506  1
  O  O266  1  0.91445369  0.40180655  0.27014011  1
  O  O267  1  0.90109025  0.39815034  0.77717292  1
  O  O268  1  0.92258376  0.74405938  0.26659142  1
  O  O269  1  0.91387254  0.74195451  0.77231618  1
  O  O270  1  0.25999338  0.23354287  0.27627054  1
  O  O271  1  0.26965664  0.23737688  0.77701756  1
  O  O272  1  0.25687472  0.56675451  0.25875822  1
  O  O273  1  0.26694873  0.57314263  0.75524539  1
  O  O274  1  0.26290055  0.91240450  0.28104939  1
  O  O275  1  0.26098504  0.91486497  0.76775448  1
  O  O276  1  0.58558595  0.24236155  0.26057463  1
  O  O277  1  0.60267931  0.23386501  0.77769092  1
  O  O278  1  0.59438614  0.56734849  0.27571607  1
  O  O279  1  0.60034594  0.56912288  0.77257254  1
  O  O280  1  0.59379010  0.90279745  0.26713350  1
  O  O281  1  0.59304373  0.90046997  0.77550856  1
  O  O282  1  0.93108435  0.25026140  0.26272947  1
  O  O283  1  0.92687985  0.23328396  0.77742178  1
  O  O284  1  0.93459698  0.58113515  0.26420153  1
  O  O285  1  0.93269464  0.57883644  0.76950868  1
  O  O286  1  0.94029176  0.90895411  0.27926993  1
  O  O287  1  0.93774625  0.90492992  0.77850554  1
  O  O288  1  0.26604556  0.23197313  0.47586058  1
  O  O289  1  0.26659154  0.23978581  0.97021838  1
  O  O290  1  0.27140625  0.56460517  0.49099679  1
  O  O291  1  0.26452769  0.57250413  0.99315521  1
  O  O292  1  0.26229385  0.90998379  0.46793793  1
  O  O293  1  0.26173624  0.90425299  0.98542747  1
  O  O294  1  0.58221499  0.23759941  0.48483581  1
  O  O295  1  0.59536663  0.24298449  0.96373463  1
  O  O296  1  0.59056869  0.56036224  0.48003224  1
  O  O297  1  0.59703501  0.56358672  0.97560984  1
  O  O298  1  0.58078603  0.90790609  0.48760249  1
  O  O299  1  0.59499885  0.90273372  0.96076841  1
  O  O300  1  0.94244520  0.23656571  0.49786346  1
  O  O301  1  0.93518798  0.24001909  0.96921254  1
  O  O302  1  0.93209256  0.57244268  0.48159774  1
  O  O303  1  0.93065441  0.58164784  0.98206233  1
  O  O304  1  0.93928365  0.89607674  0.48234071  1
  O  O305  1  0.93736380  0.90707082  0.96621261  1
  O  O306  1  0.22903255  0.06485953  0.48187771  1
  O  O307  1  0.24649541  0.07709918  0.98261303  1
  O  O308  1  0.23620916  0.39653169  0.47556119  1
  O  O309  1  0.23862722  0.39602093  0.98083161  1
  O  O310  1  0.24316946  0.73755146  0.48684161  1
  O  O311  1  0.23559761  0.73928396  0.98407374  1
  O  O312  1  0.56550927  0.08219672  0.48211028  1
  O  O313  1  0.56671350  0.06459517  0.96462809  1
  O  O314  1  0.55976749  0.40268833  0.49457699  1
  O  O315  1  0.56906816  0.40191178  0.97157793  1
  O  O316  1  0.56620837  0.74913759  0.49452725  1
  O  O317  1  0.57346202  0.73413723  0.98035264  1
  O  O318  1  0.89859890  0.06479803  0.48247794  1
  O  O319  1  0.91315468  0.07041186  0.96532553  1
  O  O320  1  0.91121195  0.39070535  0.46898818  1
  O  O321  1  0.90915723  0.39638883  0.97308896  1
  O  O322  1  0.90970004  0.74273158  0.48319811  1
  O  O323  1  0.91775534  0.74618040  0.97721806  1
  O  O324  1  0.10392381  0.26426634  0.22917312  1
  O  O325  1  0.08612506  0.25216302  0.72400571  1
  O  O326  1  0.10322440  0.59310497  0.22205652  1
  O  O327  1  0.09663495  0.60484506  0.72487894  1
  O  O328  1  0.09670177  0.93440772  0.23729561  1
  O  O329  1  0.08883338  0.93392922  0.72253195  1
  O  O330  1  0.41081972  0.25648750  0.22321019  1
  O  O331  1  0.43024146  0.26748682  0.72524812  1
  O  O332  1  0.41559610  0.58788904  0.22934594  1
  O  O333  1  0.42120906  0.58977402  0.73399599  1
  O  O334  1  0.41596774  0.93216658  0.23201985  1
  O  O335  1  0.43068886  0.93365452  0.74210858  1
  O  O336  1  0.75473445  0.25726884  0.23085404  1
  O  O337  1  0.76330833  0.26260075  0.73019252  1
  O  O338  1  0.76077460  0.59636630  0.23405842  1
  O  O339  1  0.75989217  0.60172116  0.72779684  1
  O  O340  1  0.77368633  0.93391473  0.25753284  1
  O  O341  1  0.77556367  0.93862215  0.72859520  1
  O  O342  1  0.07437301  0.09766921  0.23218788  1
  O  O343  1  0.06492421  0.09234482  0.72112679  1
  O  O344  1  0.07922742  0.42296720  0.22855256  1
  O  O345  1  0.07535915  0.42694956  0.73576676  1
  O  O346  1  0.08259905  0.74936969  0.22166044  1
  O  O347  1  0.06634034  0.76245979  0.72791552  1
  O  O348  1  0.38943153  0.09854318  0.22761810  1
  O  O349  1  0.39494889  0.09953095  0.73085388  1
  O  O350  1  0.38987647  0.42295980  0.22386076  1
  O  O351  1  0.40144487  0.42316918  0.72209978  1
  O  O352  1  0.39493303  0.77089569  0.22736728  1
  O  O353  1  0.40333149  0.76007064  0.73541875  1
  O  O354  1  0.73251439  0.09953052  0.22314419  1
  O  O355  1  0.73966672  0.10732015  0.72268430  1
  O  O356  1  0.74294348  0.42404028  0.24097843  1
  O  O357  1  0.72814911  0.41987772  0.73671601  1
  O  O358  1  0.73611679  0.76718180  0.23253779  1
  O  O359  1  0.73803482  0.75536255  0.72988430  1
