# generated using pymatgen
data_BaLaInIrO6
_symmetry_space_group_name_H-M   'P 1'
_cell_length_a   17.52018082
_cell_length_b   17.54133170
_cell_length_c   16.48899269
_cell_angle_alpha   90.02015536
_cell_angle_beta   89.99694822
_cell_angle_gamma   89.97466104
_symmetry_Int_Tables_number   1
_chemical_formula_structural   BaLaInIrO6
_chemical_formula_sum   'Ba36 La36 In36 Ir36 O216'
_cell_volume   5067.51684163
_cell_formula_units_Z   36
loop_
 _symmetry_equiv_pos_site_id
 _symmetry_equiv_pos_as_xyz
  1  'x, y, z'
loop_
 _atom_site_type_symbol
 _atom_site_label
 _atom_site_symmetry_multiplicity
 _atom_site_fract_x
 _atom_site_fract_y
 _atom_site_fract_z
 _atom_site_occupancy
  Ba  Ba0  1  0.33099579  0.17199665  0.12105562  1
  Ba  Ba1  1  0.66759243  0.82084546  0.87887964  1
  Ba  Ba2  1  0.32852684  0.15977541  0.87601173  1
  Ba  Ba3  1  0.67238970  0.83833326  0.62709963  1
  Ba  Ba4  1  0.16545128  0.34188516  0.12896627  1
  Ba  Ba5  1  0.33349900  0.84121983  0.12216331  1
  Ba  Ba6  1  0.83358916  0.65987213  0.87698632  1
  Ba  Ba7  1  0.83641127  0.67445862  0.12842262  1
  Ba  Ba8  1  0.33593501  0.83915366  0.62505388  1
  Ba  Ba9  1  -0.00381220  0.49716959  0.87132369  1
  Ba  Ba10  1  -0.00003008  0.16217827  0.87473320  1
  Ba  Ba11  1  0.16455615  0.34186515  0.63069201  1
  Ba  Ba12  1  1.00076406  0.50904398  0.62134267  1
  Ba  Ba13  1  0.16683793  0.67231034  0.62180565  1
  Ba  Ba14  1  0.16280023  0.32735112  0.87769410  1
  Ba  Ba15  1  0.49812723  0.33665917  0.12537543  1
  Ba  Ba16  1  0.33033303  0.50077723  0.12722970  1
  Ba  Ba17  1  0.33423758  0.50774587  0.62381793  1
  Ba  Ba18  1  0.66500021  0.15656134  0.37649233  1
  Ba  Ba19  1  0.00151469  0.49010967  0.37636158  1
  Ba  Ba20  1  0.66770406  0.84158490  0.12416084  1
  Ba  Ba21  1  1.00225403  0.84270204  0.62444026  1
  Ba  Ba22  1  0.66926994  0.50933695  0.62438269  1
  Ba  Ba23  1  0.33320770  0.15966518  0.37385243  1
  Ba  Ba24  1  -0.00261453  0.82297272  0.37296319  1
  Ba  Ba25  1  0.49493410  0.67550274  0.62517238  1
  Ba  Ba26  1  0.49817135  0.00854577  0.12513118  1
  Ba  Ba27  1  0.99910479  0.17890973  0.62426785  1
  Ba  Ba28  1  0.16666710  0.65824740  0.87081225  1
  Ba  Ba29  1  0.17000627  0.99460504  0.87203133  1
  Ba  Ba30  1  0.16270809  0.01322858  0.12417810  1
  Ba  Ba31  1  0.83127452  0.01194932  0.12454568  1
  Ba  Ba32  1  0.49729183  0.99067728  0.87713356  1
  Ba  Ba33  1  0.33406614  0.48622317  0.37791039  1
  Ba  Ba34  1  0.83210938  0.34253881  0.62455916  1
  Ba  Ba35  1  0.83595586  0.99025188  0.37414874  1
  La  La36  1  0.50233635  0.98257870  0.37154031  1
  La  La37  1  0.16937200  0.64800734  0.37639169  1
  La  La38  1  0.17254767  0.98353196  0.38086508  1
  La  La39  1  0.49487335  0.67747300  0.12159602  1
  La  La40  1  -0.00654124  0.81820218  0.87396919  1
  La  La41  1  0.67434570  0.17865233  0.62472487  1
  La  La42  1  0.82923779  0.01191131  0.62884238  1
  La  La43  1  0.49813367  0.01436955  0.62398814  1
  La  La44  1  0.83202829  0.67797514  0.62879269  1
  La  La45  1  0.50331248  0.64954889  0.37501234  1
  La  La46  1  0.66983805  0.51810035  0.12633932  1
  La  La47  1  0.67141572  0.17695334  0.12487774  1
  La  La48  1  0.49823871  0.31948633  0.87834154  1
  La  La49  1  0.49579606  0.34947141  0.62218129  1
  La  La50  1  0.83807197  0.65798633  0.38336259  1
  La  La51  1  0.83744111  0.32116163  0.37633546  1
  La  La52  1  1.00801346  0.85130835  0.12109001  1
  La  La53  1  0.32979236  0.82275620  0.87471497  1
  La  La54  1  1.00677393  0.51391873  0.12854725  1
  La  La55  1  0.16404856  0.01596388  0.62765557  1
  La  La56  1  0.33410584  0.18484026  0.62723183  1
  La  La57  1  0.50200020  0.31814426  0.37128917  1
  La  La58  1  -0.00425413  0.15717594  0.37310605  1
  La  La59  1  1.00583782  0.18401627  0.12650340  1
  La  La60  1  0.66334437  0.48453003  0.37267860  1
  La  La61  1  0.84101882  0.32348950  0.87274925  1
  La  La62  1  0.15980250  0.67707334  0.12986637  1
  La  La63  1  0.66278095  0.15293857  0.87202320  1
  La  La64  1  0.82795216  0.34978183  0.12382162  1
  La  La65  1  0.17224473  0.32411633  0.37867968  1
  La  La66  1  0.66516426  0.81650572  0.36851508  1
  La  La67  1  0.50052033  0.65292668  0.87439364  1
  La  La68  1  0.66723901  0.48739957  0.87876953  1
  La  La69  1  0.32979037  0.81636733  0.37527751  1
  La  La70  1  0.83996821  0.98306418  0.87636902  1
  La  La71  1  0.32577114  0.48033857  0.87354312  1
  In  In72  1  0.66542740  -0.00324798  0.50034406  1
  In  In73  1  0.33261110  -0.00105410  -0.00061074  1
  In  In74  1  0.16687789  0.83027304  0.25217527  1
  In  In75  1  -0.00567850  0.33946458  0.00333679  1
  In  In76  1  0.83330149  0.16541829  0.49891249  1
  In  In77  1  0.33443178  0.66475816  0.49772230  1
  In  In78  1  0.66678030  0.66428294  0.49864740  1
  In  In79  1  0.16788764  0.49569198  0.50200152  1
  In  In80  1  0.66810780  -0.00068215  0.25059787  1
  In  In81  1  0.50209772  0.49708465  0.24740485  1
  In  In82  1  0.16490363  0.16958342  0.75033460  1
  In  In83  1  0.16557876  0.83258788  -0.00526584  1
  In  In84  1  0.16362710  0.16696230  0.25491281  1
  In  In85  1  0.33362615  0.66174907  -0.00049405  1
  In  In86  1  -0.00100843  0.66669899  0.00119592  1
  In  In87  1  0.49789799  0.82904108  0.24926010  1
  In  In88  1  0.50166749  0.49555996  0.00063653  1
  In  In89  1  0.66817403  0.00007252  -0.00217234  1
  In  In90  1  0.83426014  0.83592718  0.49970969  1
  In  In91  1  0.66462578  0.33402117  0.75312880  1
  In  In92  1  0.83263587  0.16399116  0.75417561  1
  In  In93  1  0.33347538  -0.00070541  0.25264351  1
  In  In94  1  0.50104770  0.16872479  0.74640973  1
  In  In95  1  0.83377457  0.83209231  0.00466765  1
  In  In96  1  0.33548058  0.00200623  0.50097768  1
  In  In97  1  0.33385568  0.66499932  0.75152680  1
  In  In98  1  0.16668792  0.50203963  0.00053927  1
  In  In99  1  0.83351262  0.49971763  0.25224165  1
  In  In100  1  0.66371843  0.66519645  0.75166952  1
  In  In101  1  0.33247767  -0.00056246  0.74518859  1
  In  In102  1  0.83158747  0.50289968  0.74910839  1
  In  In103  1  0.66585865  0.33404560  0.49900195  1
  In  In104  1  -0.00062390  0.00288832  0.24840454  1
  In  In105  1  0.50078582  0.83288239  0.49974113  1
  In  In106  1  0.00383912  0.00054714  0.50045898  1
  In  In107  1  0.50214055  0.16642275  0.00044436  1
  Ir  Ir108  1  0.16546665  0.50026740  0.25169913  1
  Ir  Ir109  1  -0.00238751  0.33704522  0.74964568  1
  Ir  Ir110  1  0.83391316  0.50304104  0.49734089  1
  Ir  Ir111  1  -0.00279649  0.33486218  0.25482697  1
  Ir  Ir112  1  0.83608846  0.17430850  0.24587272  1
  Ir  Ir113  1  0.33239345  0.33246399  0.00165800  1
  Ir  Ir114  1  0.00187775  0.33347807  0.49686848  1
  Ir  Ir115  1  0.33598797  0.33701940  0.74739481  1
  Ir  Ir116  1  -0.00035014  0.66577825  0.25464322  1
  Ir  Ir117  1  0.16204891  0.17074306  0.00252835  1
  Ir  Ir118  1  0.33703960  0.32964974  0.49956868  1
  Ir  Ir119  1  -0.00177241  -0.00208062  0.75199730  1
  Ir  Ir120  1  0.67249751  0.33297956  0.00162634  1
  Ir  Ir121  1  0.50197655  0.16914199  0.25402048  1
  Ir  Ir122  1  0.16552845  0.16997210  0.49923890  1
  Ir  Ir123  1  0.00042931  0.66730951  0.49780396  1
  Ir  Ir124  1  0.66884649  0.66506896  0.25002435  1
  Ir  Ir125  1  0.49704313  0.49629951  0.75474950  1
  Ir  Ir126  1  0.66893329  0.33209195  0.24640189  1
  Ir  Ir127  1  0.16295725  0.83287708  0.74716499  1
  Ir  Ir128  1  0.83283262  0.17101400  0.00266431  1
  Ir  Ir129  1  0.66599211  -0.00302553  0.74888042  1
  Ir  Ir130  1  0.33431983  0.33193552  0.25345150  1
  Ir  Ir131  1  0.00135980  0.66871062  0.74608819  1
  Ir  Ir132  1  0.50108287  0.82740515  -0.00270258  1
  Ir  Ir133  1  0.16508210  0.49831371  0.75216059  1
  Ir  Ir134  1  0.82889351  0.49899792  0.00496800  1
  Ir  Ir135  1  -0.00190158  0.00428276  -0.00520633  1
  Ir  Ir136  1  0.33158637  0.66155086  0.24840256  1
  Ir  Ir137  1  0.50189709  0.49543882  0.49693823  1
  Ir  Ir138  1  0.50030670  0.16685105  0.50026214  1
  Ir  Ir139  1  0.66500952  0.66114352  0.00209580  1
  Ir  Ir140  1  0.50241258  0.83547196  0.75300132  1
  Ir  Ir141  1  0.16663035  0.83158718  0.49997776  1
  Ir  Ir142  1  0.83497548  0.82873572  0.24987093  1
  Ir  Ir143  1  0.83744208  0.83488200  0.75004753  1
  O  O144  1  0.31205309  0.32944326  0.12649411  1
  O  O145  1  0.31306242  0.32548840  0.62255060  1
  O  O146  1  0.29693421  0.65925435  0.13027973  1
  O  O147  1  0.32178220  0.66542012  0.62600265  1
  O  O148  1  0.31185398  0.99813085  0.12640849  1
  O  O149  1  0.29741309  0.99203421  0.62105278  1
  O  O150  1  0.64622369  0.31654481  0.12356267  1
  O  O151  1  0.63334710  0.32582745  0.62483756  1
  O  O152  1  0.63232802  0.65687078  0.12683109  1
  O  O153  1  0.64378760  0.66471745  0.62519809  1
  O  O154  1  0.65213348  1.00660695  0.12547503  1
  O  O155  1  0.63249512  0.99189625  0.63049253  1
  O  O156  1  0.96513712  0.32675015  0.13445043  1
  O  O157  1  0.97803121  0.33505304  0.62137276  1
  O  O158  1  0.98504685  0.65156570  0.13402726  1
  O  O159  1  0.96936443  0.66714584  0.62043504  1
  O  O160  1  0.97964216  0.99389518  0.11484009  1
  O  O161  1  0.96810752  0.99865422  0.63293134  1
  O  O162  1  0.17578938  0.17374957  0.12342104  1
  O  O163  1  0.19750281  0.16297808  0.61725977  1
  O  O164  1  0.17840865  0.50523863  0.13219368  1
  O  O165  1  0.18316000  0.50013333  0.63152677  1
  O  O166  1  0.18285349  0.81527080  0.12512108  1
  O  O167  1  0.18720093  0.82761421  0.62300425  1
  O  O168  1  0.53225786  0.16867019  0.13274288  1
  O  O169  1  0.53713127  0.15831976  0.61872410  1
  O  O170  1  0.53610615  0.48953915  0.12507070  1
  O  O171  1  0.52199442  0.48438072  0.62728400  1
  O  O172  1  0.52183917  0.81426605  0.11936399  1
  O  O173  1  0.52332066  0.82802276  0.63305687  1
  O  O174  1  0.86855051  0.16812890  0.12347723  1
  O  O175  1  0.85179775  0.15168165  0.62734996  1
  O  O176  1  0.86594024  0.48818302  0.12516849  1
  O  O177  1  0.85072067  0.49656983  0.61678052  1
  O  O178  1  0.87012528  0.82907685  0.13094308  1
  O  O179  1  0.85238626  0.81860985  0.63100325  1
  O  O180  1  0.13180594  0.18310445  0.38203962  1
  O  O181  1  0.15047443  0.17010192  0.88112898  1
  O  O182  1  0.15046724  0.50061473  0.37171801  1
  O  O183  1  0.14622079  0.49560463  0.87117534  1
  O  O184  1  0.14321417  0.84253222  0.38247700  1
  O  O185  1  0.12981141  0.83531723  0.86450655  1
  O  O186  1  0.47804183  0.18185837  0.37813517  1
  O  O187  1  0.47804512  0.18279984  0.87233542  1
  O  O188  1  0.48423107  0.50748304  0.37578415  1
  O  O189  1  0.46707540  0.50789039  0.87349315  1
  O  O190  1  0.46381370  0.84446889  0.37356643  1
  O  O191  1  0.47025832  0.83558592  0.87582297  1
  O  O192  1  0.81345782  0.18339100  0.36649064  1
  O  O193  1  0.80010841  0.18158249  0.88241220  1
  O  O194  1  0.80213260  0.51437887  0.37743341  1
  O  O195  1  0.80133778  0.50504767  0.88452530  1
  O  O196  1  0.80392769  0.82837720  0.36837889  1
  O  O197  1  0.82125020  0.84343934  0.87001148  1
  O  O198  1  0.03741587  0.01527627  0.37376816  1
  O  O199  1  0.02041885  0.00563396  0.87451079  1
  O  O200  1  0.03283606  0.33497987  0.37573719  1
  O  O201  1  0.00950785  0.33826524  0.87114953  1
  O  O202  1  0.03151003  0.66899488  0.37521084  1
  O  O203  1  0.01740135  0.67269472  0.86835720  1
  O  O204  1  0.36842912  0.00644961  0.37845883  1
  O  O205  1  0.34716152  0.00294268  0.87068691  1
  O  O206  1  0.36551308  0.33151490  0.37662561  1
  O  O207  1  0.36201512  0.34205729  0.87312912  1
  O  O208  1  0.36551395  0.67010657  0.36619370  1
  O  O209  1  0.36694864  0.67862799  0.87343407  1
  O  O210  1  0.68904844  0.00618433  0.37404907  1
  O  O211  1  0.70225070  0.01000594  0.86676571  1
  O  O212  1  0.69961308  0.34379242  0.36685055  1
  O  O213  1  0.70576750  0.34658942  0.88489772  1
  O  O214  1  0.70149340  0.67199759  0.36799596  1
  O  O215  1  0.68431384  0.65789994  0.88177264  1
  O  O216  1  0.06391011  0.10323683  0.02240379  1
  O  O217  1  0.08305407  0.09534490  0.52697212  1
  O  O218  1  0.06306024  0.43660247  0.02396880  1
  O  O219  1  0.07317824  0.42093883  0.51309602  1
  O  O220  1  0.06511495  0.76796924  0.02091145  1
  O  O221  1  0.07248723  0.75896258  0.51815954  1
  O  O222  1  0.41278305  0.08937762  0.01378019  1
  O  O223  1  0.40570730  0.10643691  0.53014661  1
  O  O224  1  0.40355902  0.42212041  0.01169066  1
  O  O225  1  0.41183298  0.41915923  0.52370101  1
  O  O226  1  0.41457185  0.75653774  0.01744408  1
  O  O227  1  0.40069697  0.76418200  0.50363783  1
  O  O228  1  0.74007771  0.10762600  0.02152517  1
  O  O229  1  0.73365048  0.09592059  0.52815985  1
  O  O230  1  0.73370031  0.43112747  0.03186674  1
  O  O231  1  0.74034307  0.43497728  0.50602293  1
  O  O232  1  0.73707811  0.75102369  0.01726936  1
  O  O233  1  0.74385981  0.75715425  0.51151893  1
  O  O234  1  0.08474399  0.25794414  0.01983881  1
  O  O235  1  0.09650284  0.26509091  0.51872068  1
  O  O236  1  0.09947888  0.60237966  0.02319605  1
  O  O237  1  0.08934687  0.59469833  0.50627094  1
  O  O238  1  0.08655970  0.93207441  0.01541528  1
  O  O239  1  0.10772178  0.93170008  0.52118070  1
  O  O240  1  0.42578902  0.26466653  0.00913953  1
  O  O241  1  0.43460200  0.26374086  0.52482691  1
  O  O242  1  0.43757439  0.59780828  0.02212351  1
  O  O243  1  0.43465247  0.58815277  0.50765638  1
  O  O244  1  0.43157567  0.91557728  0.01536677  1
  O  O245  1  0.43982641  0.93916824  0.52416574  1
  O  O246  1  0.76658192  0.26510280  0.03252539  1
  O  O247  1  0.75617044  0.25763343  0.51715088  1
  O  O248  1  0.75541783  0.58882476  0.03169981  1
  O  O249  1  0.77365335  0.59947112  0.51933847  1
  O  O250  1  0.76520144  0.92923821  0.00522504  1
  O  O251  1  0.76880850  0.93521011  0.52938687  1
  O  O252  1  0.22958563  0.06752694  0.27870996  1
  O  O253  1  0.23513523  0.07387699  0.75236029  1
  O  O254  1  0.23364324  0.40155201  0.27273882  1
  O  O255  1  0.24187789  0.40925813  0.77485742  1
  O  O256  1  0.23946223  0.72900437  0.27793806  1
  O  O257  1  0.23812336  0.74683954  0.76910856  1
  O  O258  1  0.56322067  0.07329948  0.27499383  1
  O  O259  1  0.57990268  0.07076957  0.76927081  1
  O  O260  1  0.57916471  0.40154124  0.27903324  1
  O  O261  1  0.55961011  0.40121413  0.77741268  1
  O  O262  1  0.57520714  0.73142462  0.27634898  1
  O  O263  1  0.56519601  0.73766864  0.77830955  1
  O  O264  1  0.90462207  0.08385675  0.26981698  1
  O  O265  1  0.90093679  0.06208506  0.77425324  1
  O  O266  1  0.90029092  0.39748324  0.27620391  1
  O  O267  1  0.90381766  0.40605654  0.77021446  1
  O  O268  1  0.90179768  0.73115806  0.27659955  1
  O  O269  1  0.91203504  0.74493158  0.77289776  1
  O  O270  1  0.25474001  0.24952217  0.27322520  1
  O  O271  1  0.26695581  0.24490179  0.75584983  1
  O  O272  1  0.25754275  0.57222603  0.27678943  1
  O  O273  1  0.25982199  0.56461824  0.77313205  1
  O  O274  1  0.26065775  0.90148125  0.28349876  1
  O  O275  1  0.25640829  0.89650642  0.77091053  1
  O  O276  1  0.59585787  0.24249133  0.27157533  1
  O  O277  1  0.59521070  0.23949836  0.78241731  1
  O  O278  1  0.60103730  0.57248399  0.27609856  1
  O  O279  1  0.59117300  0.56146912  0.78020536  1
  O  O280  1  0.59699339  0.89930908  0.27482976  1
  O  O281  1  0.59787892  0.90449017  0.77238682  1
  O  O282  1  0.93182876  0.24049603  0.27830103  1
  O  O283  1  0.92092656  0.25107961  0.76763665  1
  O  O284  1  0.92692703  0.57746881  0.27184887  1
  O  O285  1  0.92690974  0.58298564  0.75994840  1
  O  O286  1  0.92193178  0.90346491  0.26436374  1
  O  O287  1  0.93130721  0.90492839  0.77698625  1
  O  O288  1  0.25666443  0.24429252  0.47544034  1
  O  O289  1  0.25587610  0.24233290  0.98363756  1
  O  O290  1  0.25369884  0.57739096  0.47866242  1
  O  O291  1  0.26915813  0.56267467  0.97317465  1
  O  O292  1  0.26066054  0.89728684  0.47328986  1
  O  O293  1  0.26183823  0.90223616  0.97362630  1
  O  O294  1  0.58693327  0.23909580  0.47927969  1
  O  O295  1  0.60742320  0.24089869  0.97507432  1
  O  O296  1  0.59661668  0.56309356  0.47065545  1
  O  O297  1  0.60192355  0.56610618  0.98183337  1
  O  O298  1  0.60109963  0.89669272  0.46815613  1
  O  O299  1  0.58870251  0.90141292  0.98463470  1
  O  O300  1  0.92993336  0.24626801  0.47203819  1
  O  O301  1  0.91920681  0.24277412  0.98129193  1
  O  O302  1  0.92491380  0.57793986  0.47316836  1
  O  O303  1  0.92224164  0.56746317  0.99221486  1
  O  O304  1  0.92966340  0.90783882  0.48273435  1
  O  O305  1  0.93372161  0.90984252  0.97422122  1
  O  O306  1  0.23010406  0.07447960  0.47590058  1
  O  O307  1  0.23413999  0.08293146  0.99108680  1
  O  O308  1  0.24313583  0.39782128  0.47913961  1
  O  O309  1  0.24373684  0.40477220  0.98697771  1
  O  O310  1  0.23215256  0.73859208  0.46899965  1
  O  O311  1  0.24684294  0.74282928  0.97272487  1
  O  O312  1  0.55709352  0.06744828  0.47946109  1
  O  O313  1  0.58536877  0.08233775  0.96892978  1
  O  O314  1  0.56963839  0.40410092  0.47069879  1
  O  O315  1  0.57904478  0.39967921  0.96799911  1
  O  O316  1  0.57083611  0.73322591  0.46339276  1
  O  O317  1  0.56765806  0.72673055  0.97786927  1
  O  O318  1  0.91760780  0.08363722  0.47303973  1
  O  O319  1  0.89771092  0.07286862  0.97334082  1
  O  O320  1  0.90192538  0.40183958  0.47364769  1
  O  O321  1  0.88847196  0.40187716  0.98187825  1
  O  O322  1  0.90720524  0.73356088  0.48135192  1
  O  O323  1  0.91095012  0.74523456  0.97986218  1
  O  O324  1  0.08557483  0.26645541  0.23626088  1
  O  O325  1  0.08506185  0.26087975  0.73737412  1
  O  O326  1  0.09904713  0.59957236  0.23437726  1
  O  O327  1  0.09105981  0.59231946  0.72904936  1
  O  O328  1  0.08582750  0.91972633  0.22763515  1
  O  O329  1  0.09655179  0.93154037  0.72400626  1
  O  O330  1  0.43437413  0.26719768  0.24377302  1
  O  O331  1  0.42948342  0.27002134  0.72058505  1
  O  O332  1  0.42790213  0.59625068  0.22480201  1
  O  O333  1  0.43550427  0.59058692  0.73956315  1
  O  O334  1  0.43047769  0.92750237  0.23488971  1
  O  O335  1  0.43928187  0.93111056  0.72758735  1
  O  O336  1  0.76730535  0.26783844  0.22127611  1
  O  O337  1  0.75265643  0.25217672  0.72828276  1
  O  O338  1  0.75284186  0.58925407  0.22504785  1
  O  O339  1  0.76460093  0.60072992  0.72643377  1
  O  O340  1  0.76565098  0.91782756  0.23140931  1
  O  O341  1  0.76873032  0.93128011  0.72843854  1
  O  O342  1  0.06008209  0.10734532  0.22955003  1
  O  O343  1  0.06996635  0.08631039  0.73010652  1
  O  O344  1  0.06444080  0.43361532  0.22835195  1
  O  O345  1  0.07032536  0.42702795  0.73293318  1
  O  O346  1  0.06715004  0.75496753  0.22608718  1
  O  O347  1  0.07184754  0.75986198  0.73087824  1
  O  O348  1  0.41149000  0.10333642  0.23564119  1
  O  O349  1  0.40720773  0.09776204  0.71399165  1
  O  O350  1  0.40707111  0.41991015  0.23780758  1
  O  O351  1  0.40326179  0.43043058  0.73433390  1
  O  O352  1  0.40342331  0.74834972  0.22614292  1
  O  O353  1  0.41110751  0.76981494  0.74139462  1
  O  O354  1  0.74225210  0.10880905  0.22581396  1
  O  O355  1  0.73150702  0.08895455  0.72303630  1
  O  O356  1  0.73447700  0.42606737  0.22155763  1
  O  O357  1  0.73179079  0.43255353  0.74500168  1
  O  O358  1  0.73896784  0.75864558  0.22981152  1
  O  O359  1  0.75024180  0.75957887  0.73886172  1
