# generated using pymatgen
data_BaLaInIrO6
_symmetry_space_group_name_H-M   'P 1'
_cell_length_a   17.53165917
_cell_length_b   17.54944228
_cell_length_c   16.49548618
_cell_angle_alpha   90.04189742
_cell_angle_beta   90.01360196
_cell_angle_gamma   90.05604298
_symmetry_Int_Tables_number   1
_chemical_formula_structural   BaLaInIrO6
_chemical_formula_sum   'Ba36 La36 In36 Ir36 O216'
_cell_volume   5075.17617167
_cell_formula_units_Z   36
loop_
 _symmetry_equiv_pos_site_id
 _symmetry_equiv_pos_as_xyz
  1  'x, y, z'
loop_
 _atom_site_type_symbol
 _atom_site_label
 _atom_site_symmetry_multiplicity
 _atom_site_fract_x
 _atom_site_fract_y
 _atom_site_fract_z
 _atom_site_occupancy
  Ba  Ba0  1  0.49802326  0.32406715  0.87145555  1
  Ba  Ba1  1  0.16591248  0.67616028  0.12436619  1
  Ba  Ba2  1  0.66507963  0.82357255  0.37676669  1
  Ba  Ba3  1  0.66424672  0.82480994  0.87419252  1
  Ba  Ba4  1  0.32656608  0.48103505  0.87647217  1
  Ba  Ba5  1  0.83467908  0.66078966  0.37548689  1
  Ba  Ba6  1  0.49727310  0.99271280  0.37583505  1
  Ba  Ba7  1  0.82982850  0.65942235  0.87418908  1
  Ba  Ba8  1  0.50202770  0.00831428  0.62293977  1
  Ba  Ba9  1  0.16971569  0.65711455  0.37363756  1
  Ba  Ba10  1  0.99843459  0.83948534  0.62548541  1
  Ba  Ba11  1  1.00363262  0.17185394  0.62269173  1
  Ba  Ba12  1  0.66560667  0.84030330  0.12376214  1
  Ba  Ba13  1  0.83088828  0.32815391  0.37538147  1
  Ba  Ba14  1  1.00201557  0.50977854  0.12698875  1
  Ba  Ba15  1  0.66036835  0.50728809  0.12625624  1
  Ba  Ba16  1  0.99965177  0.50706231  0.62236704  1
  Ba  Ba17  1  0.66094713  0.49598488  0.87360502  1
  Ba  Ba18  1  0.33656157  0.17573720  0.12686649  1
  Ba  Ba19  1  0.83177264  0.67323260  0.12462322  1
  Ba  Ba20  1  0.66643947  0.17264669  0.12659751  1
  Ba  Ba21  1  0.83203640  0.67174231  0.62680584  1
  Ba  Ba22  1  0.50297099  0.65661054  0.87695171  1
  Ba  Ba23  1  0.33330944  0.15510842  0.87428299  1
  Ba  Ba24  1  0.00141181  0.49518183  0.87050364  1
  Ba  Ba25  1  0.66624536  0.50660525  0.62513874  1
  Ba  Ba26  1  0.49335297  0.34008947  0.62259033  1
  Ba  Ba27  1  0.16356915  0.67753191  0.62771721  1
  Ba  Ba28  1  0.00089232  0.82443977  0.37688384  1
  Ba  Ba29  1  0.33262971  0.17293120  0.62168831  1
  Ba  Ba30  1  0.83134758  0.00780139  0.62327326  1
  Ba  Ba31  1  0.67093039  0.84271439  0.62577241  1
  Ba  Ba32  1  0.83170351  0.34025012  0.62141651  1
  Ba  Ba33  1  0.50129262  0.00902242  0.12547204  1
  Ba  Ba34  1  0.16938524  0.99425470  0.37654242  1
  Ba  Ba35  1  0.17212609  0.65441784  0.87572685  1
  La  La36  1  0.17324549  0.98847892  0.87236172  1
  La  La37  1  0.50717885  0.64790113  0.37565217  1
  La  La38  1  0.49155400  0.34561184  0.12497134  1
  La  La39  1  0.49720598  0.68113982  0.63031060  1
  La  La40  1  0.16103023  0.34615045  0.62399412  1
  La  La41  1  0.16170187  0.01905128  0.12428488  1
  La  La42  1  0.49549519  0.68479286  0.12305597  1
  La  La43  1  -0.00415964  0.81818507  0.87659875  1
  La  La44  1  0.50547200  0.99607592  0.87515016  1
  La  La45  1  0.32673834  0.47857524  0.37391846  1
  La  La46  1  0.82453336  0.34024495  0.87214647  1
  La  La47  1  0.33844954  0.84974751  0.12490681  1
  La  La48  1  0.67176539  0.49546738  0.37663084  1
  La  La49  1  0.16457425  0.34816953  0.12695366  1
  La  La50  1  1.00446744  0.18590631  0.12673495  1
  La  La51  1  0.83533366  0.98677054  0.87744697  1
  La  La52  1  0.32505836  0.82029376  0.37059224  1
  La  La53  1  0.17683624  0.32074721  0.87633072  1
  La  La54  1  0.33881444  0.51715075  0.12822996  1
  La  La55  1  0.82891230  0.34965394  0.12564575  1
  La  La56  1  1.00177854  0.84687929  0.12544272  1
  La  La57  1  0.16741675  0.31925109  0.37336095  1
  La  La58  1  0.34258154  0.84757294  0.62367245  1
  La  La59  1  0.82602144  0.01348228  0.12607833  1
  La  La60  1  -0.00167025  0.49040734  0.37399997  1
  La  La61  1  0.33197242  0.82177479  0.87756124  1
  La  La62  1  0.00396152  0.15465993  0.87737867  1
  La  La63  1  0.33759422  0.51344470  0.62680917  1
  La  La64  1  0.50342450  0.31690071  0.37122323  1
  La  La65  1  0.33227422  0.15409169  0.37510552  1
  La  La66  1  0.16951754  0.00496971  0.62866918  1
  La  La67  1  0.66445304  0.15045342  0.37823044  1
  La  La68  1  0.66601802  0.15891692  0.87452478  1
  La  La69  1  -0.00275667  0.15076058  0.37428223  1
  La  La70  1  0.67472699  0.17704177  0.62789585  1
  La  La71  1  0.83885138  0.98609768  0.37316578  1
  In  In72  1  0.50105340  0.83239095  0.49762668  1
  In  In73  1  0.83374070  0.83526199  0.00407590  1
  In  In74  1  0.49504044  0.49843177  0.74773711  1
  In  In75  1  0.00225006  0.33310022  -0.00126649  1
  In  In76  1  0.16933974  0.49650191  0.74847065  1
  In  In77  1  0.66272466  0.33380694  0.49605339  1
  In  In78  1  0.33178689  0.00194626  0.24795242  1
  In  In79  1  0.83138439  0.49887315  0.74817533  1
  In  In80  1  0.83313227  0.83465476  0.75261543  1
  In  In81  1  0.66565945  0.66633372  0.25169482  1
  In  In82  1  0.83587275  0.16973725  0.24952063  1
  In  In83  1  0.16983393  0.49870293  0.49659481  1
  In  In84  1  0.00110555  0.00043334  0.50140149  1
  In  In85  1  0.00261025  0.00033657  0.75614052  1
  In  In86  1  0.00440555  0.32926485  0.75248117  1
  In  In87  1  0.66430341  0.33276054  0.24747839  1
  In  In88  1  0.16754600  0.49929013  0.00362619  1
  In  In89  1  0.83275786  0.50060767  0.00130102  1
  In  In90  1  0.49461380  0.49764842  0.00055221  1
  In  In91  1  0.83785515  0.17055850  -0.00055161  1
  In  In92  1  0.66555005  -0.00173284  0.25061474  1
  In  In93  1  0.50084956  0.16666381  0.50200253  1
  In  In94  1  0.16698733  0.83673836  0.00104438  1
  In  In95  1  0.83270697  0.83077587  0.49926883  1
  In  In96  1  0.16695627  0.16867948  0.50031246  1
  In  In97  1  0.49794768  0.83887072  -0.00252838  1
  In  In98  1  0.49950833  0.16838764  0.00086179  1
  In  In99  1  0.16976034  0.83404827  0.50119471  1
  In  In100  1  0.00129506  0.66764188  0.24909852  1
  In  In101  1  0.33741344  0.66529004  0.49679261  1
  In  In102  1  0.33304102  0.66785188  0.75057954  1
  In  In103  1  0.00202198  0.66655549  0.75037940  1
  In  In104  1  0.16724487  0.83662032  0.24662032  1
  In  In105  1  0.83621235  0.16778727  0.75508232  1
  In  In106  1  0.66287007  0.33141519  0.74856634  1
  In  In107  1  0.66308427  0.66647741  0.00257962  1
  Ir  Ir108  1  0.16419280  0.17043297  0.24660417  1
  Ir  Ir109  1  0.66462343  0.33073532  0.00490175  1
  Ir  Ir110  1  0.49388215  0.49928463  0.49524587  1
  Ir  Ir111  1  0.33597649  -0.00160179  0.75211807  1
  Ir  Ir112  1  0.34022096  0.66552333  0.24992458  1
  Ir  Ir113  1  0.49797469  0.16960506  0.25277692  1
  Ir  Ir114  1  0.32799784  0.32819135  0.00498242  1
  Ir  Ir115  1  0.33392297  0.00020475  0.50130712  1
  Ir  Ir116  1  0.66520778  0.00447504  0.75096684  1
  Ir  Ir117  1  0.66056914  0.66975750  0.74575219  1
  Ir  Ir118  1  0.33171730  0.33150756  0.25140910  1
  Ir  Ir119  1  0.83595600  0.49798112  0.25270935  1
  Ir  Ir120  1  0.83166331  0.16723870  0.49593478  1
  Ir  Ir121  1  0.32830330  0.32395056  0.74477463  1
  Ir  Ir122  1  0.33327907  0.66943398  0.00613609  1
  Ir  Ir123  1  0.66973629  0.00332659  0.50096182  1
  Ir  Ir124  1  0.49845217  0.83899218  0.74871954  1
  Ir  Ir125  1  0.00269903  0.00271901  0.00368376  1
  Ir  Ir126  1  0.00106088  0.66968209  0.00120847  1
  Ir  Ir127  1  0.16990756  0.16435059  0.75234600  1
  Ir  Ir128  1  0.49395444  0.83150363  0.25154168  1
  Ir  Ir129  1  0.16629228  0.16639517  0.00356692  1
  Ir  Ir130  1  0.83720294  0.83684172  0.24876133  1
  Ir  Ir131  1  0.49075284  0.49639288  0.25400225  1
  Ir  Ir132  1  0.66992798  0.00470445  -0.00303422  1
  Ir  Ir133  1  0.17130448  0.49583722  0.25191938  1
  Ir  Ir134  1  -0.00288542  0.00273545  0.24338281  1
  Ir  Ir135  1  0.33232379  0.33306178  0.49492083  1
  Ir  Ir136  1  0.66301378  0.65949712  0.49901626  1
  Ir  Ir137  1  0.83473627  0.50103434  0.49473185  1
  Ir  Ir138  1  0.00325893  0.33423793  0.25268491  1
  Ir  Ir139  1  0.50013102  0.16177295  0.75037796  1
  Ir  Ir140  1  0.17259046  0.83971590  0.75376365  1
  Ir  Ir141  1  0.33052470  0.00091599  -0.00489394  1
  Ir  Ir142  1  0.00182534  0.33383266  0.49549327  1
  Ir  Ir143  1  0.00185337  0.66463172  0.49868226  1
  O  O144  1  0.29967794  0.32657376  0.12904225  1
  O  O145  1  0.29850310  0.32553061  0.61879135  1
  O  O146  1  0.31227827  0.65426008  0.12919712  1
  O  O147  1  0.31159124  0.65199576  0.62222193  1
  O  O148  1  0.29938480  0.99339787  0.11627072  1
  O  O149  1  0.30468194  0.98873509  0.62714204  1
  O  O150  1  0.62989659  0.32868452  0.12400060  1
  O  O151  1  0.64360310  0.31445659  0.61924885  1
  O  O152  1  0.63002475  0.66635154  0.13241827  1
  O  O153  1  0.63364237  0.66968480  0.62044934  1
  O  O154  1  0.65113788  0.99963339  0.11829440  1
  O  O155  1  0.64799442  1.00172715  0.62639773  1
  O  O156  1  0.96817394  0.32358950  0.13420758  1
  O  O157  1  0.98216538  0.32522450  0.61367507  1
  O  O158  1  0.98212096  0.66675998  0.11984504  1
  O  O159  1  0.98572028  0.66900252  0.61747719  1
  O  O160  1  0.96342107  0.99082338  0.12243725  1
  O  O161  1  0.98554038  1.00546010  0.62956078  1
  O  O162  1  0.19011962  0.15447632  0.12463453  1
  O  O163  1  0.18180448  0.14474302  0.63060349  1
  O  O164  1  0.20367440  0.48965564  0.13256332  1
  O  O165  1  0.20407525  0.48300450  0.61992000  1
  O  O166  1  0.20393608  0.83662775  0.12301033  1
  O  O167  1  0.20437763  0.83853636  0.63404968  1
  O  O168  1  0.51607964  0.16787168  0.13208557  1
  O  O169  1  0.53186962  0.16606206  0.62986464  1
  O  O170  1  0.50687334  0.48467734  0.13374452  1
  O  O171  1  0.51242580  0.49338245  0.61335871  1
  O  O172  1  0.51381129  0.82677527  0.13112425  1
  O  O173  1  0.52193156  0.82953792  0.62947985  1
  O  O174  1  0.86885234  0.15048174  0.12450890  1
  O  O175  1  0.85185797  0.16332414  0.61675434  1
  O  O176  1  0.85499148  0.48688181  0.13262677  1
  O  O177  1  0.85006440  0.49873418  0.61346830  1
  O  O178  1  0.86596301  0.83739656  0.12932319  1
  O  O179  1  0.84503940  0.83726752  0.62602199  1
  O  O180  1  0.13586000  0.18033547  0.36594873  1
  O  O181  1  0.14163318  0.18077849  0.87841642  1
  O  O182  1  0.13911077  0.49535148  0.36950564  1
  O  O183  1  0.15642566  0.48719866  0.87770500  1
  O  O184  1  0.15238249  0.83969673  0.37289437  1
  O  O185  1  0.13676031  0.84868667  0.87373945  1
  O  O186  1  0.46703104  0.17557671  0.37135378  1
  O  O187  1  0.48147818  0.15812182  0.87058523  1
  O  O188  1  0.46122000  0.51108358  0.37423589  1
  O  O189  1  0.47399854  0.49838217  0.87516792  1
  O  O190  1  0.46364089  0.83594806  0.37093003  1
  O  O191  1  0.46777487  0.84931691  0.86942112  1
  O  O192  1  0.80110660  0.17036295  0.37686522  1
  O  O193  1  0.80082626  0.19088938  0.87977235  1
  O  O194  1  0.80745769  0.50324157  0.37328162  1
  O  O195  1  0.81254551  0.48662053  0.87671813  1
  O  O196  1  0.81456943  0.84472272  0.36906347  1
  O  O197  1  0.81407389  0.84963576  0.87893048  1
  O  O198  1  0.02122480  0.00958607  0.36284637  1
  O  O199  1  0.03976550  0.01510162  0.88763416  1
  O  O200  1  0.03369390  0.34515299  0.37346306  1
  O  O201  1  0.04281334  0.33453110  0.87759465  1
  O  O202  1  0.01906223  0.66253526  0.37886213  1
  O  O203  1  0.02369637  0.67845940  0.88318197  1
  O  O204  1  0.34731130  0.01419984  0.37938224  1
  O  O205  1  0.36794107  0.00124058  0.87385644  1
  O  O206  1  0.36617899  0.34021849  0.37253850  1
  O  O207  1  0.34846612  0.32605272  0.87841634  1
  O  O208  1  0.37309468  0.68157966  0.36763476  1
  O  O209  1  0.35460705  0.68176726  0.88395689  1
  O  O210  1  0.69760281  0.01021753  0.38012595  1
  O  O211  1  0.69658455  0.01705504  0.87366508  1
  O  O212  1  0.67720364  0.35555616  0.37114105  1
  O  O213  1  0.69031749  0.33290108  0.88405084  1
  O  O214  1  0.68048366  0.65280055  0.37830681  1
  O  O215  1  0.67425762  0.66729392  0.86682408  1
  O  O216  1  0.06916956  0.09896679  0.03133399  1
  O  O217  1  0.06917125  0.10016466  0.49569528  1
  O  O218  1  0.07981944  0.41957104  0.03465846  1
  O  O219  1  0.07366275  0.42128774  0.51486586  1
  O  O220  1  0.06571053  0.76845134  0.02112532  1
  O  O221  1  0.07383384  0.75460840  0.51464157  1
  O  O222  1  0.40497557  0.08671473  0.01638022  1
  O  O223  1  0.40618053  0.08992735  0.51104212  1
  O  O224  1  0.39416363  0.42237103  0.03078330  1
  O  O225  1  0.39217159  0.43749739  0.51421191  1
  O  O226  1  0.39842790  0.76367487  0.02564511  1
  O  O227  1  0.41083524  0.75917992  0.53539189  1
  O  O228  1  0.74338909  0.09062013  0.01648297  1
  O  O229  1  0.73339944  0.10285426  0.51940530  1
  O  O230  1  0.73475333  0.41738166  0.02649516  1
  O  O231  1  0.74182847  0.43111934  0.50589043  1
  O  O232  1  0.74110159  0.75976565  0.01663210  1
  O  O233  1  0.73425127  0.75067670  0.50989023  1
  O  O234  1  0.10183345  0.25727508  0.03544197  1
  O  O235  1  0.09938566  0.27036046  0.51391572  1
  O  O236  1  0.09113722  0.59697696  0.01427701  1
  O  O237  1  0.09205386  0.59254097  0.51427702  1
  O  O238  1  0.09511399  0.93751987  0.03082241  1
  O  O239  1  0.10229443  0.93277792  0.52561480  1
  O  O240  1  0.42645903  0.26659805  0.02134882  1
  O  O241  1  0.42297342  0.26391848  0.50901769  1
  O  O242  1  0.42379687  0.59995446  0.03183064  1
  O  O243  1  0.44129292  0.59907426  0.51728432  1
  O  O244  1  0.41656890  0.92703499  0.02147528  1
  O  O245  1  0.42028665  0.92560969  0.51963082  1
  O  O246  1  0.76213495  0.26837323  0.02955446  1
  O  O247  1  0.75744080  0.25241072  0.51428616  1
  O  O248  1  0.75605952  0.59004536  0.01754113  1
  O  O249  1  0.75893342  0.59022095  0.51632425  1
  O  O250  1  0.76669775  0.94040875  0.01793409  1
  O  O251  1  0.75630951  0.93120114  0.50823682  1
  O  O252  1  0.23504073  0.08032854  0.26466955  1
  O  O253  1  0.23643119  0.06347632  0.77278476  1
  O  O254  1  0.23615182  0.39722384  0.27679338  1
  O  O255  1  0.23441787  0.38523128  0.76374989  1
  O  O256  1  0.25103980  0.73675587  0.26816536  1
  O  O257  1  0.24386425  0.75198562  0.77703193  1
  O  O258  1  0.57342531  0.08192123  0.27363538  1
  O  O259  1  0.56914815  0.06994457  0.77469432  1
  O  O260  1  0.55062926  0.39796332  0.26500995  1
  O  O261  1  0.57051665  0.40698109  0.76079992  1
  O  O262  1  0.55899475  0.73651864  0.27389138  1
  O  O263  1  0.56569058  0.74426447  0.76439388  1
  O  O264  1  0.90677878  0.06909123  0.27493875  1
  O  O265  1  0.90432501  0.07144727  0.78768024  1
  O  O266  1  0.91525368  0.41012602  0.27823411  1
  O  O267  1  0.90545183  0.39767481  0.77034016  1
  O  O268  1  0.90577454  0.74692160  0.26476203  1
  O  O269  1  0.91650472  0.74857648  0.77328853  1
  O  O270  1  0.26140621  0.23693998  0.27842558  1
  O  O271  1  0.26267900  0.22982123  0.76302283  1
  O  O272  1  0.27410891  0.56351655  0.27149731  1
  O  O273  1  0.26691317  0.56767693  0.76232884  1
  O  O274  1  0.26859224  0.90248283  0.26942206  1
  O  O275  1  0.26802803  0.90594870  0.78056496  1
  O  O276  1  0.59170073  0.23521519  0.27871574  1
  O  O277  1  0.59442302  0.22615176  0.77359087  1
  O  O278  1  0.58621213  0.55987683  0.27896943  1
  O  O279  1  0.58706369  0.58429987  0.75387320  1
  O  O280  1  0.58576581  0.90372305  0.26709959  1
  O  O281  1  0.58584397  0.91609973  0.77708712  1
  O  O282  1  0.94075893  0.23774507  0.27420056  1
  O  O283  1  0.94053570  0.22898463  0.77567553  1
  O  O284  1  0.92815777  0.56778023  0.27179048  1
  O  O285  1  0.92042318  0.57747266  0.76138819  1
  O  O286  1  0.92971253  0.90979611  0.26944789  1
  O  O287  1  0.93249288  0.90811281  0.78546576  1
  O  O288  1  0.26530823  0.23896618  0.46845234  1
  O  O289  1  0.25745673  0.23573704  0.97979299  1
  O  O290  1  0.27105773  0.56398748  0.47083474  1
  O  O291  1  0.26771625  0.57484866  0.99370507  1
  O  O292  1  0.27190684  0.90642570  0.48170433  1
  O  O293  1  0.26253381  0.91119475  0.96581063  1
  O  O294  1  0.59129676  0.23836754  0.46202592  1
  O  O295  1  0.60205438  0.23596147  0.97926309  1
  O  O296  1  0.59291797  0.56130380  0.47320954  1
  O  O297  1  0.58695287  0.57184093  0.99199969  1
  O  O298  1  0.59590485  0.91277048  0.48438915  1
  O  O299  1  0.59048481  0.92133871  0.97742003  1
  O  O300  1  0.93004685  0.23375123  0.47028946  1
  O  O301  1  0.94661240  0.22488646  0.98759459  1
  O  O302  1  0.93200602  0.56872581  0.47407388  1
  O  O303  1  0.93144759  0.57898075  0.98432236  1
  O  O304  1  0.92039096  0.91498837  0.47714969  1
  O  O305  1  0.94187098  0.90700539  0.97935487  1
  O  O306  1  0.24654250  0.07550988  0.48712950  1
  O  O307  1  0.23123282  0.06741207  0.97664634  1
  O  O308  1  0.23868207  0.39556529  0.46870780  1
  O  O309  1  0.23389137  0.39069038  0.98998245  1
  O  O310  1  0.25118640  0.74705497  0.47455844  1
  O  O311  1  0.24662662  0.74332151  0.98172172  1
  O  O312  1  0.58313966  0.07615898  0.47812366  1
  O  O313  1  0.57889196  0.07462306  0.97419684  1
  O  O314  1  0.55559109  0.40518383  0.47151400  1
  O  O315  1  0.56928180  0.39538290  0.99247706  1
  O  O316  1  0.56942316  0.72670236  0.47793426  1
  O  O317  1  0.56643443  0.74335408  0.99300350  1
  O  O318  1  0.90030447  0.07740386  0.46896718  1
  O  O319  1  0.90974211  0.06470493  0.97303611  1
  O  O320  1  0.91396601  0.41361082  0.46873386  1
  O  O321  1  0.89664213  0.39315630  0.98632131  1
  O  O322  1  0.91244823  0.73719033  0.48544592  1
  O  O323  1  0.91471456  0.74344249  0.98077184  1
  O  O324  1  0.09668047  0.26562348  0.22339776  1
  O  O325  1  0.11056378  0.25881578  0.72719065  1
  O  O326  1  0.10179053  0.58714574  0.23436129  1
  O  O327  1  0.09387736  0.59127199  0.73865662  1
  O  O328  1  0.08931088  0.93589497  0.21505218  1
  O  O329  1  0.11041652  0.93599765  0.73504168  1
  O  O330  1  0.43110011  0.26862650  0.23064512  1
  O  O331  1  0.42817142  0.25304698  0.73078123  1
  O  O332  1  0.43556213  0.59854260  0.22825486  1
  O  O333  1  0.42851538  0.59598311  0.72054799  1
  O  O334  1  0.42417971  0.92110799  0.22725479  1
  O  O335  1  0.42354799  0.92513732  0.72256480  1
  O  O336  1  0.76575117  0.26583984  0.22400689  1
  O  O337  1  0.75620952  0.25438516  0.72941178  1
  O  O338  1  0.76083375  0.58441126  0.23584327  1
  O  O339  1  0.74704845  0.59621590  0.73362342  1
  O  O340  1  0.77084676  0.93089326  0.23142995  1
  O  O341  1  0.75739528  0.93720875  0.74363215  1
  O  O342  1  0.06691434  0.09984317  0.22004086  1
  O  O343  1  0.07752641  0.09971375  0.74820797  1
  O  O344  1  0.07875992  0.42455360  0.22776400  1
  O  O345  1  0.08039138  0.41774603  0.71789713  1
  O  O346  1  0.06984585  0.76683604  0.22443887  1
  O  O347  1  0.08194717  0.77189427  0.73853374  1
  O  O348  1  0.40627338  0.09819861  0.24115074  1
  O  O349  1  0.40633374  0.09018286  0.72813796  1
  O  O350  1  0.39208797  0.43049862  0.22945372  1
  O  O351  1  0.39053867  0.42174932  0.72529725  1
  O  O352  1  0.40080753  0.76252536  0.22072925  1
  O  O353  1  0.40748668  0.76738018  0.72720375  1
  O  O354  1  0.74472288  0.08909600  0.23269304  1
  O  O355  1  0.72946315  0.09830858  0.73372427  1
  O  O356  1  0.74702926  0.42642276  0.23373279  1
  O  O357  1  0.74105110  0.42148199  0.73458663  1
  O  O358  1  0.74582815  0.76462819  0.23672665  1
  O  O359  1  0.73524040  0.75584648  0.73909037  1
