# generated using pymatgen
data_BaLaInIrO6
_symmetry_space_group_name_H-M   'P 1'
_cell_length_a   17.50630963
_cell_length_b   17.53627109
_cell_length_c   16.48726989
_cell_angle_alpha   89.95563554
_cell_angle_beta   89.99632389
_cell_angle_gamma   90.06317887
_symmetry_Int_Tables_number   1
_chemical_formula_structural   BaLaInIrO6
_chemical_formula_sum   'Ba36 La36 In36 Ir36 O216'
_cell_volume   5061.51126930
_cell_formula_units_Z   36
loop_
 _symmetry_equiv_pos_site_id
 _symmetry_equiv_pos_as_xyz
  1  'x, y, z'
loop_
 _atom_site_type_symbol
 _atom_site_label
 _atom_site_symmetry_multiplicity
 _atom_site_fract_x
 _atom_site_fract_y
 _atom_site_fract_z
 _atom_site_occupancy
  Ba  Ba0  1  -0.00216771  0.16063444  0.87584440  1
  Ba  Ba1  1  -0.00160694  0.82298677  0.37645006  1
  Ba  Ba2  1  0.49912226  0.00502020  0.12925180  1
  Ba  Ba3  1  0.67177604  0.49137626  0.87635815  1
  Ba  Ba4  1  0.16121589  0.35158501  0.12419262  1
  Ba  Ba5  1  0.32999592  0.84323838  0.12678539  1
  Ba  Ba6  1  0.16645685  0.01066411  0.63109388  1
  Ba  Ba7  1  0.00094082  0.48778240  0.87563343  1
  Ba  Ba8  1  0.66755204  0.50589338  0.12370213  1
  Ba  Ba9  1  0.66601831  0.82230036  0.87507955  1
  Ba  Ba10  1  0.16705452  0.32136462  0.88051819  1
  Ba  Ba11  1  0.32950801  0.49031072  0.37178174  1
  Ba  Ba12  1  0.32774521  0.15904513  0.37526688  1
  Ba  Ba13  1  0.49921415  0.33912536  0.12635309  1
  Ba  Ba14  1  0.49833526  0.65959351  0.37211074  1
  Ba  Ba15  1  0.82978776  0.67466187  0.62691580  1
  Ba  Ba16  1  0.84037349  0.98707833  0.37622132  1
  Ba  Ba17  1  0.32924251  0.83100091  0.87509894  1
  Ba  Ba18  1  0.66475638  0.84006921  0.12434924  1
  Ba  Ba19  1  0.66844079  0.15924922  0.37265075  1
  Ba  Ba20  1  0.50148915  0.99220117  0.37519590  1
  Ba  Ba21  1  0.83582788  0.67219649  0.12341503  1
  Ba  Ba22  1  0.17016278  0.65435931  0.37604572  1
  Ba  Ba23  1  0.49866694  0.33136369  0.88183183  1
  Ba  Ba24  1  0.32787845  0.48707108  0.87340166  1
  Ba  Ba25  1  0.83843941  0.32446219  0.87673328  1
  Ba  Ba26  1  0.66955575  0.82882018  0.37324373  1
  Ba  Ba27  1  0.66512706  0.50599612  0.62466334  1
  Ba  Ba28  1  0.16308151  0.67727539  0.62085787  1
  Ba  Ba29  1  0.16648104  0.99639452  0.87578516  1
  Ba  Ba30  1  -0.00302214  0.15671997  0.37632016  1
  Ba  Ba31  1  -0.00245713  0.82490081  0.86978408  1
  Ba  Ba32  1  0.33606840  0.16267063  0.88047479  1
  Ba  Ba33  1  0.83738099  0.32278641  0.37852060  1
  Ba  Ba34  1  0.33448849  0.50950096  0.12235869  1
  Ba  Ba35  1  0.49912296  0.01107824  0.62280163  1
  La  La36  1  0.66722439  0.17817507  0.12840568  1
  La  La37  1  0.66617924  0.84643971  0.61775108  1
  La  La38  1  0.50485876  0.32608903  0.37096373  1
  La  La39  1  0.82896463  0.01234537  0.62646475  1
  La  La40  1  0.17526387  0.65200320  0.87732120  1
  La  La41  1  0.49333468  0.68013434  0.62566519  1
  La  La42  1  0.49507807  0.34615860  0.62608303  1
  La  La43  1  1.00625787  0.51448162  0.12476149  1
  La  La44  1  1.00507561  0.85206048  0.62094499  1
  La  La45  1  0.83961504  0.98602602  0.87211440  1
  La  La46  1  0.33725283  0.51770561  0.62230974  1
  La  La47  1  0.83638154  0.65834014  0.37524344  1
  La  La48  1  1.00291524  0.18727209  0.12556326  1
  La  La49  1  0.83287164  0.64718891  0.87787225  1
  La  La50  1  0.82994129  0.01344882  0.12440456  1
  La  La51  1  1.00296003  0.18015470  0.62844693  1
  La  La52  1  0.50459729  0.65151102  0.87660947  1
  La  La53  1  0.33521198  0.17937387  0.62748549  1
  La  La54  1  0.83005502  0.34477217  0.62418937  1
  La  La55  1  0.32837785  0.81781525  0.37390260  1
  La  La56  1  0.50709336  0.97984942  0.87769489  1
  La  La57  1  1.00837649  0.85328532  0.12735311  1
  La  La58  1  0.49863565  0.67598416  0.12440746  1
  La  La59  1  0.65815652  0.15457170  0.87880853  1
  La  La60  1  0.67157250  0.18049039  0.62279574  1
  La  La61  1  0.83164862  0.34458727  0.12786819  1
  La  La62  1  0.33455250  0.85432364  0.62397972  1
  La  La63  1  0.15862579  0.68058518  0.12680910  1
  La  La64  1  0.00055109  0.48410399  0.37666906  1
  La  La65  1  0.33131819  0.18131955  0.12341191  1
  La  La66  1  0.17230773  0.98212129  0.37856953  1
  La  La67  1  0.17122385  0.32084716  0.36867227  1
  La  La68  1  0.16454662  0.34181498  0.62526473  1
  La  La69  1  0.66404073  0.48767622  0.37362735  1
  La  La70  1  0.16182808  0.02141580  0.12144695  1
  La  La71  1  1.00225714  0.51386322  0.62442950  1
  In  In72  1  0.83710669  0.50016620  0.25167088  1
  In  In73  1  0.33143873  0.33342767  0.49760767  1
  In  In74  1  0.66443813  0.66696861  0.74747462  1
  In  In75  1  0.67154109  0.33028601  0.00098642  1
  In  In76  1  0.83269037  0.50025059  0.49876761  1
  In  In77  1  0.66754732  0.00097104  0.75074330  1
  In  In78  1  0.49943124  0.49983926  0.00107413  1
  In  In79  1  0.49955841  0.83097123  0.74853754  1
  In  In80  1  0.16658437  0.49719109  0.49784814  1
  In  In81  1  0.83934351  0.83178642  0.24492110  1
  In  In82  1  0.00139274  0.66934994  -0.00473928  1
  In  In83  1  0.00452096  0.00199511  0.25298687  1
  In  In84  1  0.33217886  0.67045589  0.75120377  1
  In  In85  1  0.33419516  0.00231943  0.00356430  1
  In  In86  1  0.83553511  0.83104219  -0.00046405  1
  In  In87  1  0.83669250  0.16700544  0.25092655  1
  In  In88  1  0.16392255  0.83670137  -0.00018024  1
  In  In89  1  0.49810454  0.49824176  0.74923143  1
  In  In90  1  0.49561521  0.83222611  0.25098359  1
  In  In91  1  0.50046635  0.16431995  0.00338397  1
  In  In92  1  0.66831325  0.66586793  0.25003322  1
  In  In93  1  0.49902247  0.50253640  0.49789112  1
  In  In94  1  0.83174073  0.16811315  0.75208516  1
  In  In95  1  0.16375302  0.16430273  0.50091714  1
  In  In96  1  0.83626925  0.49892590  0.74764695  1
  In  In97  1  0.66893665  0.00047625  0.24885393  1
  In  In98  1  0.83251951  0.83120721  0.74704543  1
  In  In99  1  0.50171895  0.16762553  0.75089858  1
  In  In100  1  0.49528004  0.16464322  0.25244373  1
  In  In101  1  0.16450789  0.83265645  0.74902662  1
  In  In102  1  0.33626229  0.00562592  0.75198339  1
  In  In103  1  0.16671218  0.49734211  0.74787500  1
  In  In104  1  0.49906648  0.50167429  0.25042060  1
  In  In105  1  0.66652066  0.32977200  0.74890975  1
  In  In106  1  0.49942416  0.83220600  0.49769196  1
  In  In107  1  0.66822037  0.00311210  0.49852370  1
  Ir  Ir108  1  0.16413807  0.16929659  0.24811841  1
  Ir  Ir109  1  0.16782287  0.50519819  0.00337465  1
  Ir  Ir110  1  0.49947392  0.82941303  0.00026298  1
  Ir  Ir111  1  0.00402674  0.66419697  0.25591758  1
  Ir  Ir112  1  0.32538773  0.66800667  0.24654868  1
  Ir  Ir113  1  0.49954417  0.17203979  0.50106271  1
  Ir  Ir114  1  0.83426392  0.16505376  0.00308269  1
  Ir  Ir115  1  0.33351078  0.66924722  0.00213370  1
  Ir  Ir116  1  0.00015062  0.33128387  0.74632447  1
  Ir  Ir117  1  -0.00096923  0.66647758  0.49849436  1
  Ir  Ir118  1  0.67051571  0.00251366  -0.00097983  1
  Ir  Ir119  1  0.33119095  0.00135264  0.49595752  1
  Ir  Ir120  1  0.16596427  0.83388153  0.25114252  1
  Ir  Ir121  1  0.33015321  0.33317085  0.24709641  1
  Ir  Ir122  1  0.32315416  0.00107322  0.25394983  1
  Ir  Ir123  1  0.33049339  0.67013670  0.49982144  1
  Ir  Ir124  1  0.00003999  0.00001131  0.50655356  1
  Ir  Ir125  1  0.66711242  0.66594879  -0.00188905  1
  Ir  Ir126  1  0.00410145  0.33614711  0.25252900  1
  Ir  Ir127  1  0.16243049  0.16968661  0.00277627  1
  Ir  Ir128  1  0.66938165  0.33205261  0.25350726  1
  Ir  Ir129  1  -0.00216464  0.33424554  0.00384003  1
  Ir  Ir130  1  0.00037002  0.66560016  0.74503179  1
  Ir  Ir131  1  0.32728807  0.33345276  0.00212412  1
  Ir  Ir132  1  0.00050134  0.33279278  0.50430615  1
  Ir  Ir133  1  0.16715599  0.83450347  0.49849011  1
  Ir  Ir134  1  0.83976521  0.16609959  0.50541226  1
  Ir  Ir135  1  0.32627304  0.33076488  0.74853364  1
  Ir  Ir136  1  -0.00283619  0.00318873  0.75055368  1
  Ir  Ir137  1  0.66823690  0.66701582  0.49870643  1
  Ir  Ir138  1  0.16420587  0.50255272  0.24778667  1
  Ir  Ir139  1  0.66493426  0.32859723  0.49684933  1
  Ir  Ir140  1  0.83848461  0.82998009  0.50398874  1
  Ir  Ir141  1  -0.00421691  0.00613670  -0.00113012  1
  Ir  Ir142  1  0.16690805  0.16991398  0.75152553  1
  Ir  Ir143  1  0.84105535  0.49682620  0.00412123  1
  O  O144  1  0.30474020  0.32307059  0.12445971  1
  O  O145  1  0.29959123  0.31947058  0.62970928  1
  O  O146  1  0.29649919  0.66696851  0.12484894  1
  O  O147  1  0.31118819  0.65762603  0.61707470  1
  O  O148  1  0.29515491  0.99886641  0.13660329  1
  O  O149  1  0.31495989  0.99794153  0.61484970  1
  O  O150  1  0.65161450  0.32225390  0.13378807  1
  O  O151  1  0.63300636  0.31950948  0.61402066  1
  O  O152  1  0.63644907  0.65995281  0.11628649  1
  O  O153  1  0.63256667  0.66104018  0.61626553  1
  O  O154  1  0.64809122  1.00143500  0.11550052  1
  O  O155  1  0.65048336  0.98647026  0.62300861  1
  O  O156  1  0.97039188  0.33006842  0.12854712  1
  O  O157  1  0.96766170  0.32210868  0.62411844  1
  O  O158  1  0.98877792  0.65262117  0.13518600  1
  O  O159  1  0.97576059  0.65193431  0.62009424  1
  O  O160  1  0.97033889  0.99778525  0.11706871  1
  O  O161  1  0.96694335  0.99605410  0.62858809  1
  O  O162  1  0.19291937  0.16142576  0.12613802  1
  O  O163  1  0.19373986  0.17037173  0.63194577  1
  O  O164  1  0.18513166  0.51106101  0.12599811  1
  O  O165  1  0.20080994  0.48315596  0.62178672  1
  O  O166  1  0.18056655  0.82122052  0.13108124  1
  O  O167  1  0.19649763  0.83136685  0.61702625  1
  O  O168  1  0.52991406  0.16804811  0.12832760  1
  O  O169  1  0.53153418  0.16903971  0.61920037  1
  O  O170  1  0.51485195  0.51055790  0.12650494  1
  O  O171  1  0.51685372  0.48572447  0.62085507  1
  O  O172  1  0.51356320  0.82024926  0.11962064  1
  O  O173  1  0.53174548  0.81606040  0.62164715  1
  O  O174  1  0.86890353  0.15417006  0.11958361  1
  O  O175  1  0.86885261  0.15488209  0.62296189  1
  O  O176  1  0.86909718  0.48773698  0.12568098  1
  O  O177  1  0.86627264  0.49118517  0.62079122  1
  O  O178  1  0.87688535  0.82443323  0.11919367  1
  O  O179  1  0.86943243  0.82668916  0.62160210  1
  O  O180  1  0.14418054  0.18078682  0.36957283  1
  O  O181  1  0.14351406  0.16804564  0.87797697  1
  O  O182  1  0.13670351  0.49772151  0.36809571  1
  O  O183  1  0.15016412  0.50886717  0.88091404  1
  O  O184  1  0.14491530  0.84572933  0.37551186  1
  O  O185  1  0.14524848  0.83875749  0.87512823  1
  O  O186  1  0.47463865  0.18529226  0.38081038  1
  O  O187  1  0.48775581  0.18002478  0.87817272  1
  O  O188  1  0.47849948  0.49153443  0.37471357  1
  O  O189  1  0.47636351  0.51017173  0.87587085  1
  O  O190  1  0.46451048  0.82992783  0.37550746  1
  O  O191  1  0.48127101  0.83698181  0.88110679  1
  O  O192  1  0.82075258  0.16860320  0.38392623  1
  O  O193  1  0.79976019  0.17128294  0.88325278  1
  O  O194  1  0.80239161  0.51003203  0.37625962  1
  O  O195  1  0.82633425  0.50398657  0.88134023  1
  O  O196  1  0.82206920  0.83032925  0.38406084  1
  O  O197  1  0.81672309  0.84942335  0.87432583  1
  O  O198  1  0.03399903  0.00214392  0.38502769  1
  O  O199  1  0.01940055  0.00637378  0.87401196  1
  O  O200  1  0.03540063  0.34311378  0.37839152  1
  O  O201  1  0.02035208  0.33464074  0.87221531  1
  O  O202  1  0.02470990  0.67177657  0.37813459  1
  O  O203  1  0.03597520  0.66741074  0.86350820  1
  O  O204  1  0.34922313  0.00326492  0.37405137  1
  O  O205  1  0.36885580  0.00692267  0.87813415  1
  O  O206  1  0.36214465  0.33330243  0.36701660  1
  O  O207  1  0.34854812  0.33252490  0.87535435  1
  O  O208  1  0.34831650  0.67758025  0.37274629  1
  O  O209  1  0.36569366  0.67289549  0.88311581  1
  O  O210  1  0.69315607  0.00242729  0.37598608  1
  O  O211  1  0.70302138  0.01418687  0.88077651  1
  O  O212  1  0.69127431  0.34326337  0.37512877  1
  O  O213  1  0.68798166  0.32721381  0.87506175  1
  O  O214  1  0.70170074  0.67354231  0.38175696  1
  O  O215  1  0.69841548  0.67055300  0.87974639  1
  O  O216  1  0.06650865  0.10069952  0.02771745  1
  O  O217  1  0.06372855  0.09571316  0.52807655  1
  O  O218  1  0.06709034  0.43664923  0.02436111  1
  O  O219  1  0.06698230  0.42444211  0.52916296  1
  O  O220  1  0.06758021  0.76509192  0.02917522  1
  O  O221  1  0.06881746  0.76523220  0.52385652  1
  O  O222  1  0.40111028  0.09799006  0.03445402  1
  O  O223  1  0.40035266  0.10171196  0.52229068  1
  O  O224  1  0.40184989  0.41906203  0.01238709  1
  O  O225  1  0.39858049  0.42899489  0.52810646  1
  O  O226  1  0.41004966  0.75566991  0.02947820  1
  O  O227  1  0.39781089  0.76188587  0.52479314  1
  O  O228  1  0.73728600  0.09930380  0.02769792  1
  O  O229  1  0.74872074  0.09738179  0.53005645  1
  O  O230  1  0.75513044  0.42171394  0.02412966  1
  O  O231  1  0.74199166  0.41327973  0.52037045  1
  O  O232  1  0.73741522  0.75399828  0.01821777  1
  O  O233  1  0.73697460  0.76595756  0.52435706  1
  O  O234  1  0.08672876  0.26061806  0.02434814  1
  O  O235  1  0.08912607  0.26186232  0.53100569  1
  O  O236  1  0.10252443  0.60039809  0.01851308  1
  O  O237  1  0.08495930  0.58915304  0.51773032  1
  O  O238  1  0.08807781  0.93873141  0.02871779  1
  O  O239  1  0.09286285  0.92553488  0.52626360  1
  O  O240  1  0.41373983  0.25940541  0.02009151  1
  O  O241  1  0.42838361  0.25961069  0.52933412  1
  O  O242  1  0.42493373  0.60278534  0.02183059  1
  O  O243  1  0.42480449  0.60206666  0.52235957  1
  O  O244  1  0.43261743  0.92190468  0.01503809  1
  O  O245  1  0.41786574  0.92771256  0.51786939  1
  O  O246  1  0.77148429  0.25605640  0.03722670  1
  O  O247  1  0.76372158  0.25721292  0.52778352  1
  O  O248  1  0.76853965  0.59389156  0.00925496  1
  O  O249  1  0.75700679  0.59718140  0.51766000  1
  O  O250  1  0.76628357  0.93775650  0.02028413  1
  O  O251  1  0.77154329  0.92159539  0.52874402  1
  O  O252  1  0.22467617  0.06788251  0.27325846  1
  O  O253  1  0.23661798  0.08160297  0.76822097  1
  O  O254  1  0.23258112  0.40449298  0.27051269  1
  O  O255  1  0.23163132  0.39292124  0.76154620  1
  O  O256  1  0.23311669  0.73970685  0.26820042  1
  O  O257  1  0.22995059  0.73247267  0.77488023  1
  O  O258  1  0.57486182  0.07785937  0.26792090  1
  O  O259  1  0.56855423  0.06623832  0.78297227  1
  O  O260  1  0.57973293  0.40379896  0.27395010  1
  O  O261  1  0.56217820  0.39346940  0.75220071  1
  O  O262  1  0.56491148  0.73161351  0.25227660  1
  O  O263  1  0.55754380  0.72560691  0.77025724  1
  O  O264  1  0.90907619  0.07205575  0.26356619  1
  O  O265  1  0.90222358  0.06764000  0.77027320  1
  O  O266  1  0.91753430  0.40832201  0.27741170  1
  O  O267  1  0.91004953  0.39915523  0.75880199  1
  O  O268  1  0.90791848  0.72514724  0.27490974  1
  O  O269  1  0.90497878  0.72928743  0.77306343  1
  O  O270  1  0.25372573  0.24597002  0.27103867  1
  O  O271  1  0.26299382  0.23432542  0.76752444  1
  O  O272  1  0.25938001  0.57185981  0.26397682  1
  O  O273  1  0.25713544  0.57493742  0.76507558  1
  O  O274  1  0.25827453  0.90326597  0.28176701  1
  O  O275  1  0.25946995  0.91015545  0.75174941  1
  O  O276  1  0.58946757  0.25107572  0.27215595  1
  O  O277  1  0.61197797  0.22054842  0.75957693  1
  O  O278  1  0.60179152  0.56553997  0.27818560  1
  O  O279  1  0.59272308  0.57139293  0.77065515  1
  O  O280  1  0.58836118  0.90841137  0.25996794  1
  O  O281  1  0.59403353  0.90513421  0.76856886  1
  O  O282  1  0.93470720  0.24431023  0.26059509  1
  O  O283  1  0.93299934  0.23891069  0.75981149  1
  O  O284  1  0.94167575  0.56852779  0.27816235  1
  O  O285  1  0.93441210  0.57403290  0.76268490  1
  O  O286  1  0.94092847  0.89962058  0.25542134  1
  O  O287  1  0.92973646  0.91287964  0.76394747  1
  O  O288  1  0.25525409  0.24031183  0.48514245  1
  O  O289  1  0.25808096  0.23680724  0.99152228  1
  O  O290  1  0.26386148  0.57476518  0.48636561  1
  O  O291  1  0.26018210  0.57897988  0.97549334  1
  O  O292  1  0.26391730  0.90455474  0.47276466  1
  O  O293  1  0.25661365  0.91249107  0.98973661  1
  O  O294  1  0.58634057  0.24520676  0.46962020  1
  O  O295  1  0.60943199  0.22521995  0.99294528  1
  O  O296  1  0.60508524  0.57163444  0.47314592  1
  O  O297  1  0.59337457  0.58208490  0.97414045  1
  O  O298  1  0.59362069  0.90648517  0.48736605  1
  O  O299  1  0.59384981  0.90924833  0.97545284  1
  O  O300  1  0.93204878  0.23923175  0.48700545  1
  O  O301  1  0.93134602  0.23433241  0.99109192  1
  O  O302  1  0.93155453  0.57496402  0.47088740  1
  O  O303  1  0.93218135  0.56773996  0.99305486  1
  O  O304  1  0.93406770  0.89975296  0.49108971  1
  O  O305  1  0.93032075  0.91614129  0.97869145  1
  O  O306  1  0.23353926  0.06434211  0.47738425  1
  O  O307  1  0.23097816  0.07840547  0.99428076  1
  O  O308  1  0.22863557  0.39629309  0.47162722  1
  O  O309  1  0.23623345  0.40915103  0.98764461  1
  O  O310  1  0.24205878  0.74716856  0.47206622  1
  O  O311  1  0.23831476  0.73271173  0.98172693  1
  O  O312  1  0.57133602  0.08550248  0.48241058  1
  O  O313  1  0.57527873  0.06443995  0.97177387  1
  O  O314  1  0.57589977  0.40027134  0.47278496  1
  O  O315  1  0.58120926  0.41030231  0.99347383  1
  O  O316  1  0.57879812  0.73359152  0.48004751  1
  O  O317  1  0.56788799  0.73073608  0.97939191  1
  O  O318  1  0.90591708  0.06903769  0.48680901  1
  O  O319  1  0.89786889  0.06946966  0.97431259  1
  O  O320  1  0.91657470  0.40825547  0.47841014  1
  O  O321  1  0.90537886  0.40127453  0.99188609  1
  O  O322  1  0.90238211  0.73144335  0.47914429  1
  O  O323  1  0.90143664  0.72996188  0.96846040  1
  O  O324  1  0.09298222  0.26098715  0.22552389  1
  O  O325  1  0.09553384  0.26282382  0.72264558  1
  O  O326  1  0.09959809  0.59890695  0.22709272  1
  O  O327  1  0.08628786  0.58977084  0.72260848  1
  O  O328  1  0.10459186  0.93113314  0.22555022  1
  O  O329  1  0.08226461  0.92760041  0.72805596  1
  O  O330  1  0.41365083  0.25617712  0.22632865  1
  O  O331  1  0.42334489  0.26857576  0.72334401  1
  O  O332  1  0.42002167  0.60292909  0.22835589  1
  O  O333  1  0.42595161  0.59584632  0.71961974  1
  O  O334  1  0.41284343  0.93119144  0.23699617  1
  O  O335  1  0.42528918  0.92544702  0.72917771  1
  O  O336  1  0.76112906  0.26155816  0.22969017  1
  O  O337  1  0.76507635  0.26104272  0.70969167  1
  O  O338  1  0.76422138  0.59199093  0.23310168  1
  O  O339  1  0.76471579  0.59585051  0.74616113  1
  O  O340  1  0.77120320  0.93279394  0.22345544  1
  O  O341  1  0.77237236  0.93697338  0.73181826  1
  O  O342  1  0.07519338  0.09955507  0.21773742  1
  O  O343  1  0.06814833  0.10226941  0.72873574  1
  O  O344  1  0.06598375  0.43779731  0.23127823  1
  O  O345  1  0.06843484  0.42323820  0.71878897  1
  O  O346  1  0.06987869  0.76245700  0.22565902  1
  O  O347  1  0.06074841  0.76152865  0.71942147  1
  O  O348  1  0.38872087  0.09451467  0.23002675  1
  O  O349  1  0.40116963  0.10490201  0.72167979  1
  O  O350  1  0.40382200  0.41816601  0.23068800  1
  O  O351  1  0.38953449  0.42556061  0.72283493  1
  O  O352  1  0.39372315  0.75769262  0.23628940  1
  O  O353  1  0.39778397  0.76605938  0.71528826  1
  O  O354  1  0.74194412  0.09743651  0.21820728  1
  O  O355  1  0.73742111  0.09856194  0.71834546  1
  O  O356  1  0.74634789  0.41636700  0.23251423  1
  O  O357  1  0.74677210  0.41990504  0.72470495  1
  O  O358  1  0.74366696  0.76005939  0.23327679  1
  O  O359  1  0.72827411  0.76982809  0.72154601  1
