# generated using pymatgen
data_BaLaInIrO6
_symmetry_space_group_name_H-M   'P 1'
_cell_length_a   17.53184438
_cell_length_b   17.54940612
_cell_length_c   16.50179128
_cell_angle_alpha   90.03800336
_cell_angle_beta   89.99747656
_cell_angle_gamma   90.05028050
_symmetry_Int_Tables_number   1
_chemical_formula_structural   BaLaInIrO6
_chemical_formula_sum   'Ba36 La36 In36 Ir36 O216'
_cell_volume   5077.16009451
_cell_formula_units_Z   36
loop_
 _symmetry_equiv_pos_site_id
 _symmetry_equiv_pos_as_xyz
  1  'x, y, z'
loop_
 _atom_site_type_symbol
 _atom_site_label
 _atom_site_symmetry_multiplicity
 _atom_site_fract_x
 _atom_site_fract_y
 _atom_site_fract_z
 _atom_site_occupancy
  Ba  Ba0  1  0.66947300  0.51048638  0.63003363  1
  Ba  Ba1  1  0.50202960  0.34248410  0.62720079  1
  Ba  Ba2  1  0.49834386  0.65210315  0.37186454  1
  Ba  Ba3  1  0.33862826  0.15742963  0.37436689  1
  Ba  Ba4  1  0.16660324  0.00755618  0.12607923  1
  Ba  Ba5  1  -0.00396803  0.49301282  0.37860392  1
  Ba  Ba6  1  1.00005668  0.17787235  0.62298504  1
  Ba  Ba7  1  0.33167637  0.16248910  0.87794402  1
  Ba  Ba8  1  0.32992476  0.17151074  0.62942832  1
  Ba  Ba9  1  0.67005503  0.18022885  0.12645615  1
  Ba  Ba10  1  0.17173383  0.99490364  0.87127780  1
  Ba  Ba11  1  0.49914576  0.67269921  0.12531629  1
  Ba  Ba12  1  0.33242913  0.17442723  0.12520153  1
  Ba  Ba13  1  0.32991927  0.49709497  0.37571946  1
  Ba  Ba14  1  0.33391368  0.82269069  0.87545321  1
  Ba  Ba15  1  0.16879974  0.32474561  0.87561950  1
  Ba  Ba16  1  -0.00406584  0.49091906  0.88048786  1
  Ba  Ba17  1  0.83401519  0.65390397  0.37726838  1
  Ba  Ba18  1  0.99819180  0.84084715  0.61978698  1
  Ba  Ba19  1  0.49964472  0.67388299  0.62866648  1
  Ba  Ba20  1  0.83811305  0.65552979  0.87284229  1
  Ba  Ba21  1  0.33368748  0.82231090  0.37113615  1
  Ba  Ba22  1  0.66399291  0.49534539  0.87707488  1
  Ba  Ba23  1  0.16341200  0.00736142  0.62131739  1
  Ba  Ba24  1  -0.00246353  0.15614188  0.87328765  1
  Ba  Ba25  1  0.16507352  0.67809191  0.12414596  1
  Ba  Ba26  1  0.83099779  0.00894171  0.12486405  1
  Ba  Ba27  1  0.33061825  0.51259145  0.12426966  1
  Ba  Ba28  1  0.49903274  0.32829222  0.87911045  1
  Ba  Ba29  1  0.49874280  0.34100323  0.12518043  1
  Ba  Ba30  1  0.33271333  0.49501174  0.87748518  1
  Ba  Ba31  1  0.49831295  0.66124573  0.87805170  1
  Ba  Ba32  1  0.66536234  0.15630329  0.87511489  1
  Ba  Ba33  1  0.82956373  0.98834078  0.36990001  1
  Ba  Ba34  1  0.83086990  0.00859859  0.61831870  1
  Ba  Ba35  1  0.83400383  0.67300075  0.62364971  1
  La  La36  1  0.33772872  0.51387810  0.62841650  1
  La  La37  1  0.17268063  0.98293100  0.37022880  1
  La  La38  1  0.17152899  0.32042901  0.37691444  1
  La  La39  1  0.83795672  0.32145407  0.37635547  1
  La  La40  1  0.50546154  0.97817930  0.37332641  1
  La  La41  1  0.16225576  0.34951057  0.62713081  1
  La  La42  1  0.17544309  0.65753831  0.37045170  1
  La  La43  1  0.66265932  0.48572624  0.37836782  1
  La  La44  1  0.99737519  0.51638873  0.62925624  1
  La  La45  1  -0.00211289  0.82109948  0.36781502  1
  La  La46  1  1.00648626  0.18254362  0.12683010  1
  La  La47  1  0.16675462  0.34269306  0.11715077  1
  La  La48  1  0.67462009  0.83946142  0.62096728  1
  La  La49  1  0.84468689  0.31931658  0.87599263  1
  La  La50  1  0.49299271  0.01019742  0.12279501  1
  La  La51  1  0.82854971  0.35440951  0.12985959  1
  La  La52  1  -0.00399400  0.15169372  0.37321821  1
  La  La53  1  0.16140776  0.68176201  0.62551724  1
  La  La54  1  0.67454064  0.18606018  0.62501643  1
  La  La55  1  0.49910196  0.99734227  0.87717395  1
  La  La56  1  1.00631855  0.84682884  0.12054437  1
  La  La57  1  0.67018696  0.83935943  0.12692494  1
  La  La58  1  0.66232651  0.81278336  0.37336322  1
  La  La59  1  1.00508662  0.51931628  0.12921358  1
  La  La60  1  0.66230763  0.50965571  0.12494934  1
  La  La61  1  0.17404076  0.65316627  0.87702001  1
  La  La62  1  0.00101865  0.82600572  0.87231959  1
  La  La63  1  0.82895451  0.35065069  0.62766497  1
  La  La64  1  0.49688144  0.00853106  0.62453044  1
  La  La65  1  0.65911664  0.14661426  0.37648178  1
  La  La66  1  0.65935339  0.82305540  0.86912785  1
  La  La67  1  0.33672998  0.83762903  0.12429719  1
  La  La68  1  0.83077304  0.67541202  0.13177193  1
  La  La69  1  0.49620732  0.32371202  0.37496406  1
  La  La70  1  0.83857163  0.98707021  0.87224371  1
  La  La71  1  0.33898831  0.84346855  0.63099691  1
  In  In72  1  0.16345694  0.16451357  0.00108608  1
  In  In73  1  0.50443348  0.16375963  0.74767781  1
  In  In74  1  0.33017408  0.33456941  0.50250842  1
  In  In75  1  0.67158652  0.33466564  0.75570398  1
  In  In76  1  0.16775223  0.83261567  0.49764919  1
  In  In77  1  0.50327295  0.16633374  0.50332599  1
  In  In78  1  0.83359798  0.83391975  0.49403829  1
  In  In79  1  0.50248296  0.16572090  -0.00022237  1
  In  In80  1  0.00304514  0.66548148  0.49753034  1
  In  In81  1  0.66588506  0.66275450  0.50038086  1
  In  In82  1  0.49922131  0.50101123  0.00261561  1
  In  In83  1  0.49939966  0.50084628  0.75090663  1
  In  In84  1  0.33386373  -0.00004900  0.49625146  1
  In  In85  1  0.83216033  0.16485836  0.74893453  1
  In  In86  1  -0.00074510  0.33773597  0.74807711  1
  In  In87  1  0.33297019  0.33530970  0.00256277  1
  In  In88  1  0.16424460  0.16803881  0.74755683  1
  In  In89  1  0.50071797  0.16493409  0.25123226  1
  In  In90  1  0.33292701  0.67066769  0.50247047  1
  In  In91  1  0.83320007  0.83194728  0.00057620  1
  In  In92  1  0.49892851  0.49761671  0.50207355  1
  In  In93  1  0.33205491  0.33334428  0.74775700  1
  In  In94  1  0.83232441  0.16704759  0.49598413  1
  In  In95  1  0.50154030  0.83381681  -0.00205065  1
  In  In96  1  -0.00009700  -0.00179193  0.74688745  1
  In  In97  1  -0.00198528  0.00016451  0.24797284  1
  In  In98  1  -0.00025749  0.33651233  0.25287162  1
  In  In99  1  0.16725078  0.16802416  0.25130322  1
  In  In100  1  0.83329347  0.83191212  0.75024256  1
  In  In101  1  0.67374848  0.33462441  0.00105788  1
  In  In102  1  0.83158504  0.16867908  0.25017685  1
  In  In103  1  0.16271577  0.49943729  0.25296044  1
  In  In104  1  0.00076910  0.67083386  -0.00194067  1
  In  In105  1  0.67139179  0.66667201  0.00168597  1
  In  In106  1  0.66731451  -0.00290704  -0.00304985  1
  In  In107  1  0.66370658  -0.00517665  0.24729999  1
  Ir  Ir108  1  0.32577170  0.67031040  0.75159339  1
  Ir  Ir109  1  0.50356870  0.83351009  0.50082609  1
  Ir  Ir110  1  0.33562962  -0.00790972  0.24791423  1
  Ir  Ir111  1  0.66816087  0.66219124  0.25056875  1
  Ir  Ir112  1  0.33595731  -0.00763940  0.74823893  1
  Ir  Ir113  1  0.83176124  0.50193395  0.25182727  1
  Ir  Ir114  1  0.33306728  -0.00630157  0.00283402  1
  Ir  Ir115  1  0.00380937  0.00174264  0.49166015  1
  Ir  Ir116  1  0.16493204  0.50599384  0.74725536  1
  Ir  Ir117  1  0.16268598  0.50055549  0.50520520  1
  Ir  Ir118  1  0.83434520  0.82667097  0.24817112  1
  Ir  Ir119  1  0.50295906  0.82904643  0.25098557  1
  Ir  Ir120  1  -0.00261927  -0.00096913  -0.00076474  1
  Ir  Ir121  1  0.50075143  0.49574888  0.25448512  1
  Ir  Ir122  1  0.00113191  0.33658388  0.49904076  1
  Ir  Ir123  1  0.66572549  -0.00556676  0.74423313  1
  Ir  Ir124  1  0.16518200  0.83236449  0.24469648  1
  Ir  Ir125  1  0.50422031  0.83315545  0.74361830  1
  Ir  Ir126  1  0.66034411  -0.00416541  0.49990274  1
  Ir  Ir127  1  0.16001525  0.16884169  0.49411521  1
  Ir  Ir128  1  0.33255291  0.33680629  0.25529566  1
  Ir  Ir129  1  0.32703636  0.67081679  0.00112263  1
  Ir  Ir130  1  0.83757265  0.50044725  0.00620709  1
  Ir  Ir131  1  0.67134679  0.33930793  0.25503617  1
  Ir  Ir132  1  0.16645402  0.83702990  -0.00082861  1
  Ir  Ir133  1  0.00721096  0.66827673  0.75059307  1
  Ir  Ir134  1  0.67464245  0.33371604  0.49508568  1
  Ir  Ir135  1  -0.00726757  0.33499420  0.00576191  1
  Ir  Ir136  1  0.83561453  0.50305506  0.75412927  1
  Ir  Ir137  1  0.15987219  0.50152033  0.00083289  1
  Ir  Ir138  1  -0.00126643  0.67050820  0.24886485  1
  Ir  Ir139  1  0.83873785  0.16755170  0.00323760  1
  Ir  Ir140  1  0.33264693  0.66860684  0.24682505  1
  Ir  Ir141  1  0.16909492  0.83129592  0.75194387  1
  Ir  Ir142  1  0.66801287  0.67083828  0.75093296  1
  Ir  Ir143  1  0.83328448  0.49613176  0.49885664  1
  O  O144  1  0.30261065  0.33502435  0.13837082  1
  O  O145  1  0.29337853  0.32685094  0.62287365  1
  O  O146  1  0.31180359  0.68222145  0.12390901  1
  O  O147  1  0.29873924  0.66949623  0.63211199  1
  O  O148  1  0.31127507  0.97764421  0.12503833  1
  O  O149  1  0.31478198  0.98115178  0.62728832  1
  O  O150  1  0.65319004  0.34113945  0.13727413  1
  O  O151  1  0.65591972  0.32871751  0.61407844  1
  O  O152  1  0.64992439  0.65118137  0.13336920  1
  O  O153  1  0.65099097  0.67110604  0.62973468  1
  O  O154  1  0.62937373  0.97924764  0.12476012  1
  O  O155  1  0.63236506  0.97916481  0.62219558  1
  O  O156  1  0.96271027  0.32432013  0.12421363  1
  O  O157  1  0.96584493  0.33618718  0.61606443  1
  O  O158  1  0.96929032  0.66396898  0.12832533  1
  O  O159  1  0.98422506  0.65954607  0.63086430  1
  O  O160  1  0.97723197  0.98435355  0.11931043  1
  O  O161  1  0.98168508  0.99666819  0.61163385  1
  O  O162  1  0.18118022  0.16315977  0.12682442  1
  O  O163  1  0.18028778  0.16203219  0.61127900  1
  O  O164  1  0.17688868  0.49074382  0.12170915  1
  O  O165  1  0.19642570  0.49135771  0.62579766  1
  O  O166  1  0.19821263  0.83334939  0.12228502  1
  O  O167  1  0.20055187  0.82340268  0.63103147  1
  O  O168  1  0.52117291  0.14963706  0.12884615  1
  O  O169  1  0.54085778  0.14546999  0.62298623  1
  O  O170  1  0.52780444  0.49978257  0.13654827  1
  O  O171  1  0.52106375  0.50394671  0.62591451  1
  O  O172  1  0.53226570  0.82921691  0.13150415  1
  O  O173  1  0.53625930  0.82929550  0.62051444  1
  O  O174  1  0.86952752  0.16248258  0.12207432  1
  O  O175  1  0.84690763  0.16254366  0.61961211  1
  O  O176  1  0.86863464  0.49371065  0.12920664  1
  O  O177  1  0.86267358  0.49069205  0.62638906  1
  O  O178  1  0.87075568  0.81870492  0.13057299  1
  O  O179  1  0.84662327  0.83249978  0.62219166  1
  O  O180  1  0.13054540  0.18249894  0.37575449  1
  O  O181  1  0.14781547  0.16199463  0.87671685  1
  O  O182  1  0.14383591  0.51875531  0.38389611  1
  O  O183  1  0.14087340  0.51820811  0.87150601  1
  O  O184  1  0.13564762  0.83648934  0.36539691  1
  O  O185  1  0.13591927  0.83780935  0.87587575  1
  O  O186  1  0.49379054  0.18296441  0.37612309  1
  O  O187  1  0.48514621  0.14905731  0.87236302  1
  O  O188  1  0.48048561  0.48975032  0.37263664  1
  O  O189  1  0.48347623  0.50726173  0.87570982  1
  O  O190  1  0.47890622  0.84038182  0.37651354  1
  O  O191  1  0.48132131  0.84278780  0.86273091  1
  O  O192  1  0.79345666  0.18187987  0.37596250  1
  O  O193  1  0.81552273  0.17793449  0.88330908  1
  O  O194  1  0.80088259  0.50109022  0.37483628  1
  O  O195  1  0.81274916  0.50570066  0.88210785  1
  O  O196  1  0.79997855  0.83147811  0.36583958  1
  O  O197  1  0.79753516  0.84598766  0.87471814  1
  O  O198  1  0.03639197  0.00833637  0.37357715  1
  O  O199  1  0.01983587  -0.00068396  0.88186893  1
  O  O200  1  0.03558568  0.34279774  0.38232280  1
  O  O201  1  0.01431974  0.33810483  0.88553023  1
  O  O202  1  0.03593202  0.67763975  0.36870388  1
  O  O203  1  0.03681930  0.67935395  0.87015069  1
  O  O204  1  0.36768176  -0.00393529  0.36692000  1
  O  O205  1  0.36273019  -0.00092596  0.87741949  1
  O  O206  1  0.36009979  0.34160326  0.37373863  1
  O  O207  1  0.34660815  0.33960174  0.87480359  1
  O  O208  1  0.34533229  0.66354811  0.36729031  1
  O  O209  1  0.34691643  0.66489695  0.87689271  1
  O  O210  1  0.68159158  0.00506325  0.38050809  1
  O  O211  1  0.70081765  0.00151046  0.86325208  1
  O  O212  1  0.70273159  0.34693029  0.37409239  1
  O  O213  1  0.71196221  0.33737486  0.87870134  1
  O  O214  1  0.68609948  0.67430596  0.37012589  1
  O  O215  1  0.69027792  0.68035098  0.87196875  1
  O  O216  1  0.05848778  0.09472273  0.02669582  1
  O  O217  1  0.06448894  0.10156178  0.50692193  1
  O  O218  1  0.06401894  0.42853736  0.03159787  1
  O  O219  1  0.06742855  0.43198819  0.53194195  1
  O  O220  1  0.07367534  0.77106057  0.02115493  1
  O  O221  1  0.08216830  0.75335371  0.52502042  1
  O  O222  1  0.40688117  0.07699561  0.02411983  1
  O  O223  1  0.40884993  0.08889264  0.52076542  1
  O  O224  1  0.40705378  0.42748157  0.02307202  1
  O  O225  1  0.39563741  0.43439668  0.52657594  1
  O  O226  1  0.40027400  0.76210759  0.01843569  1
  O  O227  1  0.40572934  0.77216396  0.52517327  1
  O  O228  1  0.74780494  0.09757920  0.01800357  1
  O  O229  1  0.72220548  0.09451425  0.51567820  1
  O  O230  1  0.74753483  0.43458482  0.03571043  1
  O  O231  1  0.73723684  0.43054594  0.51346928  1
  O  O232  1  0.74774938  0.75325746  0.04080840  1
  O  O233  1  0.73297959  0.76398043  0.50968729  1
  O  O234  1  0.08217325  0.26628066  0.03153000  1
  O  O235  1  0.09762838  0.27127542  0.52121706  1
  O  O236  1  0.08790614  0.58985702  0.01942027  1
  O  O237  1  0.09519492  0.58943929  0.53408640  1
  O  O238  1  0.08940334  0.92577869  0.02404210  1
  O  O239  1  0.09234374  0.92998215  0.50597284  1
  O  O240  1  0.42118439  0.25215542  0.01626353  1
  O  O241  1  0.43232967  0.26491929  0.50765382  1
  O  O242  1  0.41574491  0.59990026  0.01670926  1
  O  O243  1  0.41931101  0.59270707  0.51839273  1
  O  O244  1  0.42499020  0.92415535  0.02581285  1
  O  O245  1  0.43812843  0.92623655  0.52013525  1
  O  O246  1  0.77836964  0.26394654  0.02814252  1
  O  O247  1  0.77271709  0.27689354  0.51700055  1
  O  O248  1  0.77283966  0.59327363  0.03082152  1
  O  O249  1  0.76476702  0.58717710  0.51575883  1
  O  O250  1  0.75189324  0.91725117  0.02910026  1
  O  O251  1  0.75057950  0.92727824  0.51544519  1
  O  O252  1  0.24231236  0.06278942  0.27382187  1
  O  O253  1  0.25290136  0.06887289  0.75817248  1
  O  O254  1  0.23547122  0.40203214  0.27499972  1
  O  O255  1  0.22728762  0.41466470  0.76135670  1
  O  O256  1  0.23519588  0.73755609  0.26869916  1
  O  O257  1  0.23173112  0.73644186  0.77541471  1
  O  O258  1  0.56760117  0.06467195  0.27885741  1
  O  O259  1  0.56870070  0.04943719  0.76588895  1
  O  O260  1  0.57286452  0.40275937  0.28110965  1
  O  O261  1  0.57813988  0.40734425  0.76718559  1
  O  O262  1  0.57693504  0.73778092  0.27488887  1
  O  O263  1  0.57697730  0.74337175  0.77331387  1
  O  O264  1  0.90805851  0.07670010  0.27467146  1
  O  O265  1  0.89631029  0.06417186  0.77092797  1
  O  O266  1  0.89241927  0.40419961  0.27162369  1
  O  O267  1  0.90051054  0.40893082  0.77136006  1
  O  O268  1  0.90911217  0.74102989  0.27597150  1
  O  O269  1  0.92030225  0.74206684  0.77096659  1
  O  O270  1  0.26147916  0.24745444  0.27808394  1
  O  O271  1  0.25660342  0.23967561  0.76551134  1
  O  O272  1  0.25334486  0.58295983  0.26380660  1
  O  O273  1  0.25598241  0.57768132  0.77135864  1
  O  O274  1  0.25649622  0.90409810  0.27006995  1
  O  O275  1  0.26244906  0.90082367  0.76737900  1
  O  O276  1  0.60827113  0.24419386  0.27688339  1
  O  O277  1  0.60582518  0.23210327  0.75161388  1
  O  O278  1  0.60270313  0.56221857  0.27375378  1
  O  O279  1  0.59553463  0.58589690  0.76672185  1
  O  O280  1  0.59492997  0.89493311  0.27787896  1
  O  O281  1  0.60502982  0.89325070  0.76093276  1
  O  O282  1  0.92917186  0.24085187  0.28208928  1
  O  O283  1  0.92302583  0.24608176  0.76874423  1
  O  O284  1  0.92885469  0.57274230  0.26603794  1
  O  O285  1  0.93652221  0.57399237  0.76477482  1
  O  O286  1  0.92752796  0.89609246  0.27043174  1
  O  O287  1  0.92746741  0.90502954  0.77941871  1
  O  O288  1  0.24937371  0.23908508  0.47193552  1
  O  O289  1  0.24544137  0.25273390  0.99951250  1
  O  O290  1  0.25004816  0.57203449  0.49016587  1
  O  O291  1  0.24823578  0.58043970  0.97905026  1
  O  O292  1  0.25458199  0.91274640  0.47279581  1
  O  O293  1  0.26014972  0.90314858  0.98339661  1
  O  O294  1  0.61684428  0.23322584  0.48329839  1
  O  O295  1  0.59901746  0.24068501  0.98961076  1
  O  O296  1  0.59811351  0.56603522  0.47408900  1
  O  O297  1  0.59692150  0.57463942  0.99879680  1
  O  O298  1  0.59923078  0.89727846  0.47286177  1
  O  O299  1  0.58988746  0.90914595  0.95707892  1
  O  O300  1  0.93492722  0.24438525  0.46784021  1
  O  O301  1  0.92904389  0.24008706  0.98099089  1
  O  O302  1  0.92601498  0.56726837  0.49468873  1
  O  O303  1  0.92664496  0.57081468  0.99249899  1
  O  O304  1  0.93602261  0.90889975  0.46711076  1
  O  O305  1  0.92995247  0.90728829  0.97367915  1
  O  O306  1  0.22610690  0.07480046  0.46888389  1
  O  O307  1  0.24783630  0.06835859  0.98936175  1
  O  O308  1  0.22310144  0.40562918  0.47868894  1
  O  O309  1  0.22976108  0.41401572  0.99067878  1
  O  O310  1  0.23522649  0.73375475  0.47348263  1
  O  O311  1  0.23108987  0.74077243  0.97639399  1
  O  O312  1  0.56724796  0.05865950  0.47442564  1
  O  O313  1  0.56795323  0.06259179  0.98390391  1
  O  O314  1  0.57617770  0.39407359  0.47275341  1
  O  O315  1  0.58253339  0.41130948  0.99207920  1
  O  O316  1  0.56994922  0.74330959  0.47902500  1
  O  O317  1  0.58423810  0.74951430  0.98418810  1
  O  O318  1  0.91356417  0.07433324  0.46940565  1
  O  O319  1  0.90085638  0.06509683  0.97554816  1
  O  O320  1  0.90176575  0.39965213  0.47603520  1
  O  O321  1  0.89686755  0.40060200  0.98362755  1
  O  O322  1  0.91753534  0.74740401  0.47354241  1
  O  O323  1  0.91654772  0.74961022  0.96832685  1
  O  O324  1  0.09814313  0.27104410  0.22292378  1
  O  O325  1  0.09570019  0.27109297  0.72447085  1
  O  O326  1  0.08603594  0.59802483  0.23023832  1
  O  O327  1  0.10120522  0.60155514  0.72528754  1
  O  O328  1  0.09245444  0.92085512  0.22966796  1
  O  O329  1  0.09644957  0.91690311  0.73274842  1
  O  O330  1  0.42450960  0.26554267  0.24289886  1
  O  O331  1  0.42768540  0.25507340  0.73066946  1
  O  O332  1  0.42824637  0.59158584  0.23243047  1
  O  O333  1  0.41120867  0.59766609  0.72988149  1
  O  O334  1  0.43208882  0.92230587  0.22308497  1
  O  O335  1  0.43036957  0.91973764  0.71686033  1
  O  O336  1  0.76825468  0.27745916  0.23220093  1
  O  O337  1  0.76595683  0.26436961  0.72146950  1
  O  O338  1  0.76476177  0.59638429  0.22564814  1
  O  O339  1  0.76221523  0.59963284  0.73574896  1
  O  O340  1  0.75730970  0.91047638  0.22388341  1
  O  O341  1  0.75594393  0.92920744  0.72573950  1
  O  O342  1  0.06277987  0.10366886  0.23294222  1
  O  O343  1  0.07358838  0.09005793  0.73212862  1
  O  O344  1  0.06150380  0.43675150  0.22820291  1
  O  O345  1  0.07111087  0.43976285  0.72306708  1
  O  O346  1  0.06473685  0.76768574  0.22375328  1
  O  O347  1  0.07885673  0.75921165  0.72490449  1
  O  O348  1  0.40644214  0.07956933  0.22797433  1
  O  O349  1  0.41260716  0.07370554  0.72435610  1
  O  O350  1  0.40511387  0.42923103  0.23191271  1
  O  O351  1  0.39715574  0.43451030  0.72306146  1
  O  O352  1  0.40512334  0.76428662  0.22668345  1
  O  O353  1  0.39999699  0.76472873  0.72703652  1
  O  O354  1  0.73651526  0.09160760  0.23955608  1
  O  O355  1  0.72391436  0.09238346  0.72231696  1
  O  O356  1  0.73452113  0.43949588  0.23043854  1
  O  O357  1  0.75122855  0.43048527  0.73069309  1
  O  O358  1  0.73736618  0.75695727  0.22379688  1
  O  O359  1  0.73282940  0.76378316  0.73083888  1
