# generated using pymatgen
data_BaLaInIrO6
_symmetry_space_group_name_H-M   'P 1'
_cell_length_a   17.52932954
_cell_length_b   17.55718075
_cell_length_c   16.49399586
_cell_angle_alpha   90.03245429
_cell_angle_beta   89.99404848
_cell_angle_gamma   90.00155883
_symmetry_Int_Tables_number   1
_chemical_formula_structural   BaLaInIrO6
_chemical_formula_sum   'Ba36 La36 In36 Ir36 O216'
_cell_volume   5076.28380645
_cell_formula_units_Z   36
loop_
 _symmetry_equiv_pos_site_id
 _symmetry_equiv_pos_as_xyz
  1  'x, y, z'
loop_
 _atom_site_type_symbol
 _atom_site_label
 _atom_site_symmetry_multiplicity
 _atom_site_fract_x
 _atom_site_fract_y
 _atom_site_fract_z
 _atom_site_occupancy
  Ba  Ba0  1  0.50202748  0.65485201  0.87760422  1
  Ba  Ba1  1  0.49524599  0.33920343  0.12570201  1
  Ba  Ba2  1  1.00478780  0.50926524  0.62477226  1
  Ba  Ba3  1  0.17305158  0.65583562  0.87265383  1
  Ba  Ba4  1  0.50119000  0.64902095  0.37707673  1
  Ba  Ba5  1  0.00120971  0.15812454  0.37638145  1
  Ba  Ba6  1  0.33870465  0.17700184  0.62335784  1
  Ba  Ba7  1  0.33081060  0.15671334  0.37038362  1
  Ba  Ba8  1  0.16410585  0.67643180  0.12538891  1
  Ba  Ba9  1  0.83072453  0.34415605  0.12879727  1
  Ba  Ba10  1  0.66797437  0.17445165  0.12010006  1
  Ba  Ba11  1  0.82780137  0.66145305  0.37396797  1
  Ba  Ba12  1  0.83603590  0.67163009  0.12220771  1
  Ba  Ba13  1  0.16278716  0.34076994  0.12912177  1
  Ba  Ba14  1  0.83856639  0.99124473  0.37452215  1
  Ba  Ba15  1  0.99208477  0.83963680  0.62703845  1
  Ba  Ba16  1  0.16540035  1.00021642  0.37852799  1
  Ba  Ba17  1  0.33241048  0.48686907  0.37751567  1
  Ba  Ba18  1  1.00331002  0.51156717  0.12462419  1
  Ba  Ba19  1  0.83377733  0.34725835  0.62336881  1
  Ba  Ba20  1  0.50079577  0.99007448  0.87373038  1
  Ba  Ba21  1  0.82898111  0.66062317  0.87281066  1
  Ba  Ba22  1  0.67042369  0.84061568  0.12219870  1
  Ba  Ba23  1  0.99707769  0.17488997  0.12719911  1
  Ba  Ba24  1  0.50012444  0.00765995  0.62578741  1
  Ba  Ba25  1  0.33656063  0.50871356  0.12606290  1
  Ba  Ba26  1  0.66045223  0.49367513  0.37803155  1
  Ba  Ba27  1  0.00161158  0.82697807  0.37828845  1
  Ba  Ba28  1  0.99743642  0.17499280  0.62378744  1
  Ba  Ba29  1  0.65964431  0.49484589  0.87520100  1
  Ba  Ba30  1  0.50074728  0.00833951  0.11657140  1
  Ba  Ba31  1  0.33997186  0.82398833  0.87382605  1
  Ba  Ba32  1  -0.00186302  0.49497498  0.87714603  1
  Ba  Ba33  1  0.67013022  0.83912927  0.62728393  1
  Ba  Ba34  1  0.50051700  0.32164359  0.87553229  1
  Ba  Ba35  1  0.33581665  0.15196020  0.87484167  1
  La  La36  1  0.34564301  0.17788898  0.12041852  1
  La  La37  1  0.66117466  0.81052084  0.37185066  1
  La  La38  1  0.49489724  0.68640384  0.62306109  1
  La  La39  1  0.65677197  0.15195433  0.87393091  1
  La  La40  1  0.17461723  0.98455859  0.87379965  1
  La  La41  1  0.83134612  0.01289526  0.12726377  1
  La  La42  1  -0.00604519  0.48816437  0.37350162  1
  La  La43  1  0.49359162  0.35131419  0.62497471  1
  La  La44  1  0.17278351  0.31844010  0.87477718  1
  La  La45  1  0.82929738  0.32547831  0.87707823  1
  La  La46  1  0.32937638  0.48609625  0.87380085  1
  La  La47  1  0.83608506  0.98813561  0.87765850  1
  La  La48  1  0.33943002  0.85059775  0.62721201  1
  La  La49  1  0.00104943  0.15584560  0.87664282  1
  La  La50  1  0.33979316  0.84090489  0.12046680  1
  La  La51  1  0.32781421  0.82008486  0.37779537  1
  La  La52  1  0.84407733  0.66573850  0.62697863  1
  La  La53  1  0.83281926  0.32256568  0.37287015  1
  La  La54  1  0.65524251  0.81824951  0.87399149  1
  La  La55  1  0.66189716  0.15090980  0.37441050  1
  La  La56  1  0.16975776  0.31600479  0.37839954  1
  La  La57  1  0.50670556  0.97790668  0.37096145  1
  La  La58  1  0.16658073  0.02062946  0.62812812  1
  La  La59  1  0.99773673  0.83560763  0.13440679  1
  La  La60  1  0.16891087  0.01136961  0.12178097  1
  La  La61  1  0.66933492  0.51378494  0.12735181  1
  La  La62  1  0.66720698  0.52346251  0.62604332  1
  La  La63  1  -0.00057037  0.81839599  0.87246860  1
  La  La64  1  0.33735324  0.51678493  0.62267200  1
  La  La65  1  0.50117201  0.31772079  0.37716957  1
  La  La66  1  0.17273218  0.65450444  0.37664758  1
  La  La67  1  0.82658875  0.01640226  0.62156995  1
  La  La68  1  0.49432863  0.68188076  0.12838946  1
  La  La69  1  0.67308839  0.18259598  0.62694365  1
  La  La70  1  0.16072146  0.34403483  0.62434183  1
  La  La71  1  0.16323130  0.68490565  0.62562801  1
  In  In72  1  0.00215442  0.33263262  0.75311982  1
  In  In73  1  0.82858146  0.83124464  0.50001132  1
  In  In74  1  0.83182004  0.16748882  -0.00498835  1
  In  In75  1  0.33330774  0.66530449  0.25224980  1
  In  In76  1  0.16895159  0.49912498  0.50027087  1
  In  In77  1  0.83025560  0.49915759  -0.00032286  1
  In  In78  1  0.33462546  0.66723591  0.74758258  1
  In  In79  1  0.17003726  0.16480940  0.24491827  1
  In  In80  1  0.83210446  0.16762232  0.75595394  1
  In  In81  1  0.00296512  -0.00348733  -0.00304263  1
  In  In82  1  0.83199175  0.50392905  0.49990559  1
  In  In83  1  -0.00115561  -0.00123242  0.50442843  1
  In  In84  1  0.00157854  0.66931912  -0.00149297  1
  In  In85  1  0.50058961  0.16636969  0.74534689  1
  In  In86  1  0.66320355  -0.00292564  0.50063339  1
  In  In87  1  0.66467204  0.66740573  0.00326437  1
  In  In88  1  0.66527185  0.33486368  0.25248320  1
  In  In89  1  0.82966529  0.83201351  0.24967265  1
  In  In90  1  0.33225206  0.33409770  0.25258977  1
  In  In91  1  -0.00008728  0.66756838  0.25467438  1
  In  In92  1  0.16907183  0.83915159  0.50349821  1
  In  In93  1  0.50013407  0.16087514  0.25075111  1
  In  In94  1  0.66346103  0.33836337  0.50302979  1
  In  In95  1  0.33472816  0.66453832  -0.00081133  1
  In  In96  1  0.00130346  -0.00214143  0.24583823  1
  In  In97  1  0.16745624  0.49841977  0.00038354  1
  In  In98  1  0.66277943  0.33720263  0.74853031  1
  In  In99  1  0.82922520  0.16981034  0.50089681  1
  In  In100  1  0.33813637  0.00148089  0.49566822  1
  In  In101  1  0.33306104  0.33133529  -0.00333080  1
  In  In102  1  0.00150170  0.33248393  -0.00183729  1
  In  In103  1  0.00116426  -0.00126317  0.75354337  1
  In  In104  1  0.83055667  0.16814302  0.25050706  1
  In  In105  1  0.83020148  0.49999928  0.74970379  1
  In  In106  1  0.83049722  0.83303826  0.75263578  1
  In  In107  1  0.17088753  0.83716783  0.24879921  1
  Ir  Ir108  1  0.49611398  0.49871230  0.50269331  1
  Ir  Ir109  1  0.50098422  0.49798476  0.25017057  1
  Ir  Ir110  1  0.17022552  0.83500894  0.74967995  1
  Ir  Ir111  1  0.50273499  0.83613164  0.00099986  1
  Ir  Ir112  1  0.33951676  -0.00586843  0.24461725  1
  Ir  Ir113  1  0.66316044  0.33560483  0.00142977  1
  Ir  Ir114  1  0.50045209  0.49854657  0.00325019  1
  Ir  Ir115  1  0.33011238  0.33640089  0.74416333  1
  Ir  Ir116  1  0.00657745  0.66616952  0.50229070  1
  Ir  Ir117  1  0.50170423  0.83507559  0.74770659  1
  Ir  Ir118  1  0.65744989  0.66839750  0.50274474  1
  Ir  Ir119  1  0.33420025  0.33190229  0.50380892  1
  Ir  Ir120  1  0.50260013  0.16292466  -0.00185153  1
  Ir  Ir121  1  0.83317484  0.83636362  -0.00594225  1
  Ir  Ir122  1  0.65888429  0.67006286  0.74742591  1
  Ir  Ir123  1  0.50195667  0.16640875  0.49726226  1
  Ir  Ir124  1  0.66943020  -0.00087443  0.75219578  1
  Ir  Ir125  1  0.17020267  0.16909939  0.75023091  1
  Ir  Ir126  1  0.00180784  0.33517922  0.49729517  1
  Ir  Ir127  1  0.67128618  -0.00277083  -0.00037631  1
  Ir  Ir128  1  0.49701963  0.83077828  0.49801259  1
  Ir  Ir129  1  0.66591469  -0.00281984  0.24778915  1
  Ir  Ir130  1  0.16221436  0.49953959  0.25670175  1
  Ir  Ir131  1  0.49974448  0.83434214  0.24958710  1
  Ir  Ir132  1  0.17036405  0.17059967  0.50557901  1
  Ir  Ir133  1  0.17062831  0.16270194  -0.00290362  1
  Ir  Ir134  1  -0.00000183  0.33757852  0.25658522  1
  Ir  Ir135  1  0.49604798  0.50116763  0.74488444  1
  Ir  Ir136  1  0.33279746  0.66775782  0.50196109  1
  Ir  Ir137  1  0.65779906  0.66312065  0.25110386  1
  Ir  Ir138  1  0.16999563  0.83731602  -0.00172167  1
  Ir  Ir139  1  0.17278887  0.49672645  0.74597282  1
  Ir  Ir140  1  0.32985224  -0.00250603  0.75178998  1
  Ir  Ir141  1  0.00813544  0.66782775  0.74696961  1
  Ir  Ir142  1  0.33105002  -0.00374463  -0.00087113  1
  Ir  Ir143  1  0.83008363  0.50140850  0.25323672  1
  O  O144  1  0.31730914  0.32118058  0.12361770  1
  O  O145  1  0.29949392  0.33224480  0.62393028  1
  O  O146  1  0.31789710  0.67241146  0.12569119  1
  O  O147  1  0.30142820  0.65672139  0.62107272  1
  O  O148  1  0.30633511  0.98248267  0.12225524  1
  O  O149  1  0.30538101  0.98965891  0.63043008  1
  O  O150  1  0.64249161  0.32861299  0.12089028  1
  O  O151  1  0.62410641  0.31660247  0.62410410  1
  O  O152  1  0.63103828  0.66239030  0.13142785  1
  O  O153  1  0.63105337  0.67184571  0.62453362  1
  O  O154  1  0.64645849  0.99435244  0.12281987  1
  O  O155  1  0.64687746  0.99302191  0.63371107  1
  O  O156  1  0.98294909  0.33164188  0.13605463  1
  O  O157  1  0.98601141  0.33183945  0.61895385  1
  O  O158  1  0.98729208  0.68031850  0.12499914  1
  O  O159  1  0.97925898  0.66409616  0.62439389  1
  O  O160  1  0.96536855  0.98316418  0.11655222  1
  O  O161  1  0.96355612  0.99980613  0.63229831  1
  O  O162  1  0.20781283  0.15545153  0.11480435  1
  O  O163  1  0.19351148  0.16159587  0.62926675  1
  O  O164  1  0.18564446  0.49553166  0.13761736  1
  O  O165  1  0.20147458  0.48502316  0.62629754  1
  O  O166  1  0.20386916  0.83202501  0.11612303  1
  O  O167  1  0.20374344  0.82391059  0.63085218  1
  O  O168  1  0.51521851  0.16662711  0.11907068  1
  O  O169  1  0.53322607  0.16153303  0.61630034  1
  O  O170  1  0.53131118  0.49232900  0.12693417  1
  O  O171  1  0.52712995  0.48923154  0.62355222  1
  O  O172  1  0.52357361  0.82361205  0.12580507  1
  O  O173  1  0.52240150  0.82685071  0.62293914  1
  O  O174  1  0.84488453  0.15628884  0.12121451  1
  O  O175  1  0.84647670  0.15278759  0.62947523  1
  O  O176  1  0.85128207  0.50037784  0.13535782  1
  O  O177  1  0.85494813  0.51634439  0.62467302  1
  O  O178  1  0.86042268  0.82994331  0.11296718  1
  O  O179  1  0.83609307  0.80480918  0.62786885  1
  O  O180  1  0.15294501  0.17098278  0.38384204  1
  O  O181  1  0.13913710  0.17504415  0.87308118  1
  O  O182  1  0.13443112  0.51119041  0.37645112  1
  O  O183  1  0.15132816  0.50177177  0.86223695  1
  O  O184  1  0.15488889  0.84815642  0.37698074  1
  O  O185  1  0.13672454  0.84597617  0.87324917  1
  O  O186  1  0.47602370  0.17677753  0.38041565  1
  O  O187  1  0.48768872  0.15943163  0.87743551  1
  O  O188  1  0.47721251  0.50064344  0.37680622  1
  O  O189  1  0.46730024  0.50448766  0.87353865  1
  O  O190  1  0.46661408  0.83932397  0.37368143  1
  O  O191  1  0.48643143  0.83525971  0.87421903  1
  O  O192  1  0.79829304  0.17764078  0.37612680  1
  O  O193  1  0.79043040  0.18418384  0.87607353  1
  O  O194  1  0.81090463  0.50255562  0.37233616  1
  O  O195  1  0.80849404  0.50666242  0.87287140  1
  O  O196  1  0.79551124  0.83712757  0.37442323  1
  O  O197  1  0.79503935  0.84697641  0.87855697  1
  O  O198  1  0.01736976  0.00080845  0.37534996  1
  O  O199  1  0.04128222  0.01328298  0.87502214  1
  O  O200  1  0.03204757  0.34546896  0.37768821  1
  O  O201  1  0.04119844  0.33648993  0.87398882  1
  O  O202  1  0.03701761  0.67026995  0.38415724  1
  O  O203  1  0.02621467  0.68102798  0.86696717  1
  O  O204  1  0.36793685  0.00095912  0.36496724  1
  O  O205  1  0.35275933  -0.00193767  0.87626551  1
  O  O206  1  0.36536911  0.33253199  0.38489478  1
  O  O207  1  0.35254636  0.34529500  0.86369645  1
  O  O208  1  0.35692793  0.67971650  0.38237961  1
  O  O209  1  0.35324823  0.66692001  0.87238887  1
  O  O210  1  0.68455217  0.00599293  0.36729516  1
  O  O211  1  0.69906724  0.00841970  0.87594523  1
  O  O212  1  0.69801930  0.34374223  0.37917222  1
  O  O213  1  0.69166556  0.34333788  0.88062902  1
  O  O214  1  0.67589407  0.66624838  0.37710264  1
  O  O215  1  0.67165878  0.66787539  0.87027199  1
  O  O216  1  0.08362034  0.09283111  0.02371728  1
  O  O217  1  0.08378664  0.09749885  0.52409863  1
  O  O218  1  0.07407362  0.42495594  0.01872114  1
  O  O219  1  0.07553154  0.42177367  0.51679313  1
  O  O220  1  0.07157515  0.77994264  0.01441197  1
  O  O221  1  0.07682014  0.75638273  0.52608869  1
  O  O222  1  0.40171718  0.09221568  0.02167310  1
  O  O223  1  0.41276092  0.09611187  0.51633513  1
  O  O224  1  0.40928633  0.42989835  0.00960674  1
  O  O225  1  0.39973947  0.42950576  0.52938497  1
  O  O226  1  0.41501969  0.76142507  0.02365014  1
  O  O227  1  0.39998235  0.76401656  0.52912246  1
  O  O228  1  0.74306302  0.08238021  0.01680858  1
  O  O229  1  0.72345375  0.10056215  0.51973777  1
  O  O230  1  0.72541983  0.42845616  0.02563179  1
  O  O231  1  0.73062854  0.43967398  0.52929137  1
  O  O232  1  0.74615631  0.76174206  0.00931720  1
  O  O233  1  0.71995377  0.76343505  0.49961818  1
  O  O234  1  0.10100929  0.25039380  0.01624434  1
  O  O235  1  0.10221884  0.26894553  0.51753686  1
  O  O236  1  0.09762460  0.59649761  0.00811780  1
  O  O237  1  0.10333172  0.60265112  0.52330731  1
  O  O238  1  0.10992198  0.93282188  0.01623197  1
  O  O239  1  0.10313050  0.93634755  0.53429689  1
  O  O240  1  0.42324614  0.24706602  0.01283458  1
  O  O241  1  0.43624707  0.26648397  0.52375337  1
  O  O242  1  0.43837588  0.59383728  0.02793586  1
  O  O243  1  0.42786082  0.59672147  0.53040792  1
  O  O244  1  0.41976424  0.91895060  0.02359954  1
  O  O245  1  0.43425770  0.92434028  0.51346497  1
  O  O246  1  0.75560262  0.27046041  0.01294798  1
  O  O247  1  0.75341467  0.26108760  0.52831932  1
  O  O248  1  0.74788080  0.58644068  0.02695921  1
  O  O249  1  0.75576117  0.60784213  0.52617487  1
  O  O250  1  0.76855305  0.93172208  0.02180674  1
  O  O251  1  0.76390609  0.93445137  0.52631359  1
  O  O252  1  0.24619031  0.05943355  0.25661609  1
  O  O253  1  0.23439135  0.06706830  0.77133717  1
  O  O254  1  0.22869390  0.40553282  0.28034568  1
  O  O255  1  0.23442449  0.40035461  0.77132719  1
  O  O256  1  0.23995814  0.73853897  0.28244880  1
  O  O257  1  0.23796604  0.74356270  0.76197034  1
  O  O258  1  0.57026277  0.06183764  0.27299491  1
  O  O259  1  0.57998203  0.06820779  0.76830782  1
  O  O260  1  0.56175472  0.40102135  0.27504434  1
  O  O261  1  0.55821804  0.40713474  0.76146556  1
  O  O262  1  0.56473413  0.73673783  0.26973148  1
  O  O263  1  0.56550541  0.73951233  0.76553722  1
  O  O264  1  0.90500848  0.07419799  0.25408487  1
  O  O265  1  0.90575634  0.07210879  0.78792169  1
  O  O266  1  0.90132706  0.40810540  0.28130988  1
  O  O267  1  0.90130809  0.40060998  0.77310090  1
  O  O268  1  0.90256668  0.73733203  0.26618414  1
  O  O269  1  0.91753372  0.73989152  0.76377839  1
  O  O270  1  0.25051373  0.24646906  0.27253784  1
  O  O271  1  0.26211181  0.24326209  0.77270318  1
  O  O272  1  0.25181574  0.57171551  0.27573112  1
  O  O273  1  0.27110430  0.55852766  0.76160320  1
  O  O274  1  0.28369006  0.89558024  0.26329189  1
  O  O275  1  0.25899396  0.90605758  0.77423277  1
  O  O276  1  0.59418206  0.23535010  0.27922782  1
  O  O277  1  0.59893139  0.23203209  0.77224698  1
  O  O278  1  0.59450235  0.56409613  0.25908611  1
  O  O279  1  0.59392711  0.56817842  0.75252358  1
  O  O280  1  0.59747911  0.90066927  0.27545357  1
  O  O281  1  0.60131310  0.90191935  0.77483116  1
  O  O282  1  0.92704385  0.25214344  0.27646585  1
  O  O283  1  0.93458809  0.23381035  0.77956216  1
  O  O284  1  0.92738757  0.56523113  0.27542755  1
  O  O285  1  0.93298240  0.58327436  0.76201273  1
  O  O286  1  0.93129391  0.89772410  0.25572807  1
  O  O287  1  0.92890339  0.90142481  0.78211562  1
  O  O288  1  0.26214013  0.24340560  0.47867623  1
  O  O289  1  0.25610381  0.23538708  0.97552029  1
  O  O290  1  0.26407657  0.57680165  0.48082994  1
  O  O291  1  0.27046658  0.56277663  0.97874520  1
  O  O292  1  0.27820099  0.89687552  0.48713011  1
  O  O293  1  0.26249405  0.90504726  0.97524277  1
  O  O294  1  0.59195415  0.23328162  0.46987063  1
  O  O295  1  0.59829704  0.23426240  0.97538245  1
  O  O296  1  0.59370098  0.56565023  0.49869965  1
  O  O297  1  0.58846411  0.56844985  0.99306929  1
  O  O298  1  0.59032609  0.89795852  0.46762435  1
  O  O299  1  0.59906101  0.90558174  0.97653196  1
  O  O300  1  0.92441623  0.25279541  0.47599668  1
  O  O301  1  0.93124791  0.23615281  0.97015002  1
  O  O302  1  0.93987156  0.57251774  0.47795543  1
  O  O303  1  0.92065435  0.58029983  0.98726699  1
  O  O304  1  0.92585485  0.90077732  0.49055397  1
  O  O305  1  0.92303501  0.90452608  0.96258570  1
  O  O306  1  0.24013435  0.07690719  0.49573306  1
  O  O307  1  0.23647469  0.06468839  0.97539954  1
  O  O308  1  0.23871672  0.39620925  0.47917618  1
  O  O309  1  0.23949327  0.40272138  0.96982332  1
  O  O310  1  0.24000424  0.73374937  0.47856299  1
  O  O311  1  0.23749968  0.74709977  0.98160280  1
  O  O312  1  0.56447077  0.07168651  0.46746387  1
  O  O313  1  0.58273658  0.07355398  0.97612133  1
  O  O314  1  0.55417157  0.39959796  0.48235807  1
  O  O315  1  0.56834984  0.40314697  0.98356703  1
  O  O316  1  0.55956690  0.73343561  0.48787156  1
  O  O317  1  0.57629280  0.74924522  0.98466525  1
  O  O318  1  0.90436993  0.07638802  0.49068232  1
  O  O319  1  0.90909395  0.07288614  0.96815921  1
  O  O320  1  0.91058371  0.40657054  0.47333407  1
  O  O321  1  0.89670276  0.39789599  0.97627970  1
  O  O322  1  0.90976242  0.72829078  0.49225227  1
  O  O323  1  0.90799442  0.75286126  0.96716487  1
  O  O324  1  0.08866164  0.26464967  0.24712395  1
  O  O325  1  0.10802691  0.26330043  0.72844369  1
  O  O326  1  0.09748000  0.59226031  0.24109623  1
  O  O327  1  0.10793799  0.59657694  0.72201208  1
  O  O328  1  0.09955548  0.92842907  0.21009412  1
  O  O329  1  0.10639189  0.92928508  0.72934900  1
  O  O330  1  0.42043104  0.25106729  0.23672880  1
  O  O331  1  0.42633039  0.27022475  0.72399584  1
  O  O332  1  0.43572948  0.59552194  0.22821559  1
  O  O333  1  0.43168241  0.59414188  0.71577462  1
  O  O334  1  0.43775452  0.93136363  0.23226008  1
  O  O335  1  0.42143253  0.92107920  0.72597147  1
  O  O336  1  0.76375830  0.26712282  0.24151719  1
  O  O337  1  0.75830253  0.26352776  0.72835455  1
  O  O338  1  0.75383429  0.59309024  0.22819330  1
  O  O339  1  0.75308980  0.60674387  0.72231693  1
  O  O340  1  0.76191754  0.93507656  0.22343438  1
  O  O341  1  0.76840409  0.94038124  0.73406881  1
  O  O342  1  0.08330578  0.08864480  0.22259687  1
  O  O343  1  0.08179559  0.09814303  0.73018121  1
  O  O344  1  0.06618280  0.43297934  0.24327779  1
  O  O345  1  0.08394736  0.42615908  0.72487685  1
  O  O346  1  0.07277323  0.76663043  0.23133502  1
  O  O347  1  0.08197790  0.76069447  0.72574820  1
  O  O348  1  0.39863846  0.09062345  0.22121815  1
  O  O349  1  0.40465533  0.08630085  0.73407632  1
  O  O350  1  0.40862252  0.43140320  0.23861621  1
  O  O351  1  0.39676165  0.43433845  0.72101397  1
  O  O352  1  0.40652874  0.76845049  0.22677441  1
  O  O353  1  0.40948804  0.76423965  0.71946610  1
  O  O354  1  0.72958415  0.09024269  0.23565188  1
  O  O355  1  0.73117762  0.09254327  0.72873740  1
  O  O356  1  0.73502892  0.43758203  0.22969857  1
  O  O357  1  0.72695047  0.43744449  0.72056122  1
  O  O358  1  0.72579800  0.75621632  0.24252587  1
  O  O359  1  0.72579834  0.76326384  0.75439715  1
