# generated using pymatgen
data_BaLaInIrO6
_symmetry_space_group_name_H-M   'P 1'
_cell_length_a   17.50792842
_cell_length_b   17.53765503
_cell_length_c   16.49148391
_cell_angle_alpha   90.01813088
_cell_angle_beta   89.96721845
_cell_angle_gamma   89.96026397
_symmetry_Int_Tables_number   1
_chemical_formula_structural   BaLaInIrO6
_chemical_formula_sum   'Ba36 La36 In36 Ir36 O216'
_cell_volume   5063.67499770
_cell_formula_units_Z   36
loop_
 _symmetry_equiv_pos_site_id
 _symmetry_equiv_pos_as_xyz
  1  'x, y, z'
loop_
 _atom_site_type_symbol
 _atom_site_label
 _atom_site_symmetry_multiplicity
 _atom_site_fract_x
 _atom_site_fract_y
 _atom_site_fract_z
 _atom_site_occupancy
  Ba  Ba0  1  0.66893725  0.17096964  0.62125247  1
  Ba  Ba1  1  0.33249726  0.15899687  0.87518903  1
  Ba  Ba2  1  0.99518623  0.17282586  0.62166692  1
  Ba  Ba3  1  0.16996071  0.99240305  0.37476149  1
  Ba  Ba4  1  0.83536142  0.32175282  0.87419086  1
  Ba  Ba5  1  0.66388552  0.48919202  0.87547809  1
  Ba  Ba6  1  0.00326887  0.49268113  0.37824987  1
  Ba  Ba7  1  0.66698316  0.17396150  0.12936531  1
  Ba  Ba8  1  0.66502377  0.82147702  0.87264668  1
  Ba  Ba9  1  1.00205455  0.50700902  0.12248447  1
  Ba  Ba10  1  0.50282774  0.98948581  0.37689657  1
  Ba  Ba11  1  0.33129956  0.82688643  0.87141565  1
  Ba  Ba12  1  -0.00137038  0.49433611  0.87556218  1
  Ba  Ba13  1  0.32833842  0.49049003  0.38138828  1
  Ba  Ba14  1  0.82787286  0.66333947  0.37442180  1
  Ba  Ba15  1  0.33171107  0.49400854  0.87550501  1
  Ba  Ba16  1  0.33280597  0.83916622  0.12045917  1
  Ba  Ba17  1  0.16780130  0.34178122  0.12508248  1
  Ba  Ba18  1  0.66671352  0.50825910  0.12427156  1
  Ba  Ba19  1  0.49861502  0.65772485  0.87294123  1
  Ba  Ba20  1  0.83885112  0.99454789  0.37902988  1
  Ba  Ba21  1  0.49989471  0.00967450  0.62302827  1
  Ba  Ba22  1  0.83387889  0.67240402  0.12313826  1
  Ba  Ba23  1  0.16878984  0.66933319  0.12593798  1
  Ba  Ba24  1  0.17024130  0.65815183  0.87264269  1
  Ba  Ba25  1  0.16265004  0.99454512  0.87293944  1
  Ba  Ba26  1  0.99796993  0.50952735  0.62910522  1
  Ba  Ba27  1  0.49787690  0.34425831  0.12965109  1
  Ba  Ba28  1  0.66501069  0.84009449  0.12127042  1
  Ba  Ba29  1  0.16565248  0.32865402  0.87485673  1
  Ba  Ba30  1  0.67121477  0.83418490  0.37287127  1
  Ba  Ba31  1  0.33754376  0.50966510  0.12742785  1
  Ba  Ba32  1  1.00349760  0.84527420  0.62322473  1
  Ba  Ba33  1  0.16406899  0.67603963  0.62476756  1
  Ba  Ba34  1  0.50053461  0.31699687  0.37310403  1
  Ba  Ba35  1  0.16660509  0.65924773  0.37908883  1
  La  La36  1  0.16504126  0.34567983  0.62985605  1
  La  La37  1  0.34074417  0.17629776  0.62203904  1
  La  La38  1  0.49621140  0.34479172  0.62619838  1
  La  La39  1  0.83044688  0.68542647  0.62730116  1
  La  La40  1  0.33307433  0.82044524  0.37535466  1
  La  La41  1  1.00475041  0.17681827  0.12195300  1
  La  La42  1  0.49611162  0.01343427  0.12524755  1
  La  La43  1  0.65994337  0.14486909  0.37346335  1
  La  La44  1  0.33349022  0.51984460  0.63175079  1
  La  La45  1  0.50654875  0.32016062  0.88177012  1
  La  La46  1  0.66017063  0.14588451  0.87793929  1
  La  La47  1  0.33163860  0.84741336  0.62330456  1
  La  La48  1  0.83947595  0.98558801  0.87048401  1
  La  La49  1  0.16659569  0.01102809  0.12136790  1
  La  La50  1  -0.00555790  0.81545300  0.86865255  1
  La  La51  1  0.51098249  0.65934001  0.36764084  1
  La  La52  1  0.49328303  0.68891841  0.62930818  1
  La  La53  1  0.83536582  0.32358166  0.37658781  1
  La  La54  1  0.82623758  0.00921063  0.11956431  1
  La  La55  1  -0.00732054  0.81829084  0.37681437  1
  La  La56  1  0.83536304  0.65419960  0.87409470  1
  La  La57  1  0.33191571  0.15164498  0.37356985  1
  La  La58  1  0.82436074  0.34851659  0.12544664  1
  La  La59  1  0.83018703  0.01450125  0.62562594  1
  La  La60  1  0.65800753  0.48427387  0.37618410  1
  La  La61  1  0.67176815  0.85173065  0.62418678  1
  La  La62  1  0.00008852  0.15932519  0.37731015  1
  La  La63  1  1.01026739  0.84286870  0.12902307  1
  La  La64  1  0.49511262  0.67936558  0.11771448  1
  La  La65  1  0.34208556  0.18068957  0.12113758  1
  La  La66  1  0.16497156  0.01353203  0.62781527  1
  La  La67  1  0.50470247  0.98149887  0.87478286  1
  La  La68  1  0.82666913  0.34955443  0.62697901  1
  La  La69  1  0.17570326  0.32007697  0.38064120  1
  La  La70  1  0.00352893  0.16452720  0.86739388  1
  La  La71  1  0.67082122  0.51945829  0.62339699  1
  In  In72  1  0.50026817  0.50129058  0.50461670  1
  In  In73  1  0.33401274  0.33140964  0.25453915  1
  In  In74  1  0.66688850  0.66895739  0.24703274  1
  In  In75  1  0.16575201  0.49847660  0.25203031  1
  In  In76  1  0.66490789  0.67332779  0.50272181  1
  In  In77  1  0.16587364  0.83593476  0.49797666  1
  In  In78  1  0.16867074  0.16536996  0.24781167  1
  In  In79  1  0.00080000  0.00039337  0.24911273  1
  In  In80  1  -0.00240839  0.33244338  0.25246355  1
  In  In81  1  0.49901559  0.50221172  0.25324506  1
  In  In82  1  0.50230970  0.16599231  0.74830967  1
  In  In83  1  -0.00425315  -0.00133262  -0.00045517  1
  In  In84  1  0.16534442  0.49879294  0.50565768  1
  In  In85  1  0.33293865  0.66756948  -0.00231840  1
  In  In86  1  0.83303554  0.16216858  -0.00138449  1
  In  In87  1  -0.00008113  0.66821003  -0.00009249  1
  In  In88  1  0.17091790  0.16707352  0.00028967  1
  In  In89  1  0.49851806  0.83628198  0.24968595  1
  In  In90  1  0.66695293  0.32824383  0.00171812  1
  In  In91  1  0.83513726  0.16684871  0.25276901  1
  In  In92  1  0.83169133  0.17013610  0.49961529  1
  In  In93  1  0.16896054  0.83495816  0.25223744  1
  In  In94  1  0.33348610  0.00202036  0.74999356  1
  In  In95  1  0.33794187  0.66800340  0.49975461  1
  In  In96  1  0.82961780  0.50410175  0.50032495  1
  In  In97  1  0.16496399  0.83546317  -0.00211614  1
  In  In98  1  -0.00194935  0.32719000  -0.00049283  1
  In  In99  1  0.83211328  0.50152850  0.25497062  1
  In  In100  1  0.33470442  0.33454617  0.74975992  1
  In  In101  1  0.83222147  0.49886211  -0.00033660  1
  In  In102  1  0.83501361  0.83294951  -0.00347117  1
  In  In103  1  0.83720938  0.83630512  0.24583190  1
  In  In104  1  0.82923576  0.50086457  0.74892954  1
  In  In105  1  -0.00189393  0.33018625  0.74578682  1
  In  In106  1  0.66345633  0.33086563  0.50261321  1
  In  In107  1  0.50249028  0.49942682  0.74916772  1
  Ir  Ir108  1  0.33649073  0.00088628  0.24850366  1
  Ir  Ir109  1  0.16767672  0.16543910  0.74377465  1
  Ir  Ir110  1  0.66458530  0.67188207  0.74721970  1
  Ir  Ir111  1  0.66335513  0.32607063  0.74944559  1
  Ir  Ir112  1  0.66644242  -0.00289933  0.50141332  1
  Ir  Ir113  1  0.33125235  0.32678151  0.50570434  1
  Ir  Ir114  1  0.66287966  -0.00045050  -0.00072624  1
  Ir  Ir115  1  0.49963012  0.49945590  -0.00095765  1
  Ir  Ir116  1  0.50006947  0.16192614  0.24925572  1
  Ir  Ir117  1  0.49863662  0.16350585  -0.00032006  1
  Ir  Ir118  1  0.66844502  0.33005241  0.25260334  1
  Ir  Ir119  1  0.33976068  0.33442582  -0.00034708  1
  Ir  Ir120  1  0.16835752  0.50106425  0.75107268  1
  Ir  Ir121  1  -0.00036625  0.66953760  0.74718358  1
  Ir  Ir122  1  -0.00197067  0.00190351  0.74659270  1
  Ir  Ir123  1  0.83695309  0.83913869  0.50549345  1
  Ir  Ir124  1  0.49791132  0.83661951  0.50401710  1
  Ir  Ir125  1  -0.00419827  0.66885701  0.50211198  1
  Ir  Ir126  1  0.49960020  0.16464831  0.49683423  1
  Ir  Ir127  1  0.16997927  0.16629963  0.50309909  1
  Ir  Ir128  1  0.00417977  0.00359734  0.50467253  1
  Ir  Ir129  1  0.00335284  0.32926835  0.50148813  1
  Ir  Ir130  1  0.33193609  0.67391035  0.74605909  1
  Ir  Ir131  1  0.66860344  -0.00218613  0.75181851  1
  Ir  Ir132  1  0.83337202  0.83640324  0.74554399  1
  Ir  Ir133  1  0.33921661  0.67149736  0.25274822  1
  Ir  Ir134  1  0.16476594  0.83617047  0.74686104  1
  Ir  Ir135  1  0.17009376  0.49794214  -0.00153718  1
  Ir  Ir136  1  0.66171297  0.66756329  -0.00460855  1
  Ir  Ir137  1  0.66561286  0.00066017  0.24571876  1
  Ir  Ir138  1  0.00007512  0.66841605  0.25413888  1
  Ir  Ir139  1  0.33792494  0.00033645  0.00190500  1
  Ir  Ir140  1  0.33383985  0.00185561  0.49615973  1
  Ir  Ir141  1  0.82625773  0.16182552  0.75013233  1
  Ir  Ir142  1  0.50244870  0.83563795  -0.00327519  1
  Ir  Ir143  1  0.50250247  0.83528876  0.74728466  1
  O  O144  1  0.32027192  0.32346496  0.12140384  1
  O  O145  1  0.30174769  0.31276373  0.62255066  1
  O  O146  1  0.32438278  0.67293496  0.13120514  1
  O  O147  1  0.31523207  0.68187048  0.62854704  1
  O  O148  1  0.30577721  0.99544489  0.12590113  1
  O  O149  1  0.30507728  0.99045282  0.61687900  1
  O  O150  1  0.64588466  0.32796725  0.13387015  1
  O  O151  1  0.63114952  0.32026261  0.63245144  1
  O  O152  1  0.63087476  0.66676322  0.11402531  1
  O  O153  1  0.63099648  0.66734810  0.62987256  1
  O  O154  1  0.63244312  0.99878685  0.12283416  1
  O  O155  1  0.64505757  0.98949470  0.62633716  1
  O  O156  1  0.95844697  0.31310317  0.12665110  1
  O  O157  1  0.96522011  0.32667128  0.61820126  1
  O  O158  1  0.98745318  0.66932140  0.13368755  1
  O  O159  1  0.96713562  0.66746068  0.62299587  1
  O  O160  1  0.95913074  0.98033975  0.12474700  1
  O  O161  1  0.96881457  0.99751917  0.62505454  1
  O  O162  1  0.20901067  0.15559273  0.12402249  1
  O  O163  1  0.20383744  0.15484254  0.62324235  1
  O  O164  1  0.18573779  0.50015097  0.11955770  1
  O  O165  1  0.19427984  0.49010288  0.63210813  1
  O  O166  1  0.18080456  0.82462938  0.12630850  1
  O  O167  1  0.19417439  0.83536242  0.62655712  1
  O  O168  1  0.52060220  0.15102930  0.12453818  1
  O  O169  1  0.51972501  0.16524198  0.61669611  1
  O  O170  1  0.51465050  0.50400665  0.11908473  1
  O  O171  1  0.53886249  0.48114979  0.62815781  1
  O  O172  1  0.51355827  0.82248584  0.11768454  1
  O  O173  1  0.53244808  0.82924263  0.62562503  1
  O  O174  1  0.86458658  0.14528988  0.12773847  1
  O  O175  1  0.84449909  0.15279873  0.62909970  1
  O  O176  1  0.85019293  0.48585185  0.12778951  1
  O  O177  1  0.84898893  0.48761901  0.62468746  1
  O  O178  1  0.87207426  0.83211877  0.11968388  1
  O  O179  1  0.85614864  0.82711347  0.62617291  1
  O  O180  1  0.13835120  0.17461329  0.38344911  1
  O  O181  1  0.14090091  0.16817000  0.86601348  1
  O  O182  1  0.15674626  0.49998606  0.38073086  1
  O  O183  1  0.14922599  0.50095846  0.87228979  1
  O  O184  1  0.13051918  0.84108232  0.37553909  1
  O  O185  1  0.13399577  0.84014437  0.86573523  1
  O  O186  1  0.47002337  0.16213633  0.37301940  1
  O  O187  1  0.48152285  0.17812781  0.87890163  1
  O  O188  1  0.47577031  0.52521450  0.38123743  1
  O  O189  1  0.48406584  0.49599921  0.87781676  1
  O  O190  1  0.47064072  0.83606959  0.38347452  1
  O  O191  1  0.48054602  0.84672473  0.87130157  1
  O  O192  1  0.79313831  0.17808750  0.37772216  1
  O  O193  1  0.79675570  0.16461944  0.86832376  1
  O  O194  1  0.79303689  0.50458994  0.37970977  1
  O  O195  1  0.81259846  0.51585746  0.87172219  1
  O  O196  1  0.82115068  0.83906195  0.38593872  1
  O  O197  1  0.81015290  0.84783664  0.86318469  1
  O  O198  1  0.02532706  0.01674215  0.38618608  1
  O  O199  1  0.01353811  0.02185471  0.86563029  1
  O  O200  1  0.04026110  0.33059111  0.38667805  1
  O  O201  1  0.01648570  0.31355760  0.86970130  1
  O  O202  1  0.01937772  0.67941775  0.37874980  1
  O  O203  1  0.02053900  0.67462161  0.86635000  1
  O  O204  1  0.35883608  0.01517458  0.37192572  1
  O  O205  1  0.36789527  0.00402112  0.88062146  1
  O  O206  1  0.35086224  0.33281217  0.38869338  1
  O  O207  1  0.36856972  0.33544173  0.87826611  1
  O  O208  1  0.37090113  0.67462747  0.37370033  1
  O  O209  1  0.34689816  0.66478324  0.86599352  1
  O  O210  1  0.68877919  0.00513631  0.37353659  1
  O  O211  1  0.69769851  0.00578176  0.87510101  1
  O  O212  1  0.69626410  0.33981747  0.37188616  1
  O  O213  1  0.68302089  0.32987468  0.86757883  1
  O  O214  1  0.67416563  0.68289000  0.37777799  1
  O  O215  1  0.69623242  0.66930727  0.86958408  1
  O  O216  1  0.07154529  0.09320976  0.02489680  1
  O  O217  1  0.08260161  0.09037408  0.53184124  1
  O  O218  1  0.08440384  0.42342040  0.00697080  1
  O  O219  1  0.07470692  0.41546456  0.53149374  1
  O  O220  1  0.05698953  0.77356057  0.01055134  1
  O  O221  1  0.07053391  0.75529795  0.51459205  1
  O  O222  1  0.40620853  0.09333022  0.02925639  1
  O  O223  1  0.39925255  0.10106526  0.51705981  1
  O  O224  1  0.40906327  0.42770618  0.01790375  1
  O  O225  1  0.39651527  0.42084086  0.53475203  1
  O  O226  1  0.41713063  0.75965374  0.00870177  1
  O  O227  1  0.40671058  0.77218195  0.52873327  1
  O  O228  1  0.72917025  0.08994097  0.01617139  1
  O  O229  1  0.74236820  0.08247170  0.51422828  1
  O  O230  1  0.74069130  0.42068677  0.01644356  1
  O  O231  1  0.73077524  0.43119777  0.52963783  1
  O  O232  1  0.73507507  0.75467815  0.01061381  1
  O  O233  1  0.74231874  0.77199395  0.52964687  1
  O  O234  1  0.09122864  0.25307203  0.02777742  1
  O  O235  1  0.10252227  0.26138122  0.52910374  1
  O  O236  1  0.09529736  0.58550784  0.00882333  1
  O  O237  1  0.08253260  0.59344143  0.51726226  1
  O  O238  1  0.09722333  0.93364060  0.02652818  1
  O  O239  1  0.09706263  0.93660690  0.52630304  1
  O  O240  1  0.42949759  0.25823112  0.02217924  1
  O  O241  1  0.42857550  0.25940760  0.52763401  1
  O  O242  1  0.43165459  0.59410794  0.01597559  1
  O  O243  1  0.42963723  0.59584819  0.54288115  1
  O  O244  1  0.43804195  0.93583441  0.01908094  1
  O  O245  1  0.42308973  0.92796281  0.52452350  1
  O  O246  1  0.76752205  0.26081846  0.02519853  1
  O  O247  1  0.76903958  0.27130005  0.52443228  1
  O  O248  1  0.74864327  0.59761432  0.01032499  1
  O  O249  1  0.76232087  0.60515685  0.53698147  1
  O  O250  1  0.75858356  0.93241934  0.01913771  1
  O  O251  1  0.76275357  0.92921679  0.53158716  1
  O  O252  1  0.24825230  0.07029155  0.26837484  1
  O  O253  1  0.23415990  0.07310807  0.76019169  1
  O  O254  1  0.23501647  0.39812957  0.27447324  1
  O  O255  1  0.23901505  0.41022632  0.76280270  1
  O  O256  1  0.24971638  0.74229151  0.27873303  1
  O  O257  1  0.23633373  0.74481183  0.76664982  1
  O  O258  1  0.57415482  0.07342677  0.26877159  1
  O  O259  1  0.57470749  0.06602964  0.77945043  1
  O  O260  1  0.58144902  0.40469876  0.27362073  1
  O  O261  1  0.56454297  0.38544423  0.77028486  1
  O  O262  1  0.56086170  0.73329119  0.25637984  1
  O  O263  1  0.56922744  0.74025611  0.76369772  1
  O  O264  1  0.91943856  0.08371910  0.28252907  1
  O  O265  1  0.89269339  0.06249480  0.76399262  1
  O  O266  1  0.89892934  0.40217215  0.28156201  1
  O  O267  1  0.90306507  0.40386130  0.75769666  1
  O  O268  1  0.91264543  0.73927205  0.27038565  1
  O  O269  1  0.90189912  0.73989021  0.77063224  1
  O  O270  1  0.26138946  0.23636491  0.28253111  1
  O  O271  1  0.25759110  0.23519480  0.76203097  1
  O  O272  1  0.26998253  0.58123493  0.26429685  1
  O  O273  1  0.26729681  0.57377684  0.75319458  1
  O  O274  1  0.27471244  0.90635017  0.27638095  1
  O  O275  1  0.25593619  0.90611502  0.76003366  1
  O  O276  1  0.59821924  0.23014417  0.27557002  1
  O  O277  1  0.60495750  0.22881344  0.77489572  1
  O  O278  1  0.59641338  0.57002862  0.27968653  1
  O  O279  1  0.59998288  0.57687946  0.76188473  1
  O  O280  1  0.59430360  0.91181642  0.26096064  1
  O  O281  1  0.59497877  0.90840915  0.76894581  1
  O  O282  1  0.92355823  0.24293095  0.29559038  1
  O  O283  1  0.92203521  0.22373928  0.76713412  1
  O  O284  1  0.93186826  0.57832237  0.26872876  1
  O  O285  1  0.92320566  0.58611100  0.76625567  1
  O  O286  1  0.93635322  0.90052611  0.27815448  1
  O  O287  1  0.93003322  0.90589304  0.77183589  1
  O  O288  1  0.26504895  0.23179384  0.47470437  1
  O  O289  1  0.26910834  0.24527412  0.98494491  1
  O  O290  1  0.26538835  0.57071567  0.50451441  1
  O  O291  1  0.25689233  0.57095230  0.98939591  1
  O  O292  1  0.27111662  0.90719018  0.47532452  1
  O  O293  1  0.26659424  0.91490731  0.98237838  1
  O  O294  1  0.59623566  0.22692528  0.47319484  1
  O  O295  1  0.59287613  0.23089541  0.97564653  1
  O  O296  1  0.60673557  0.56466430  0.48701514  1
  O  O297  1  0.58984693  0.57314910  0.97751410  1
  O  O298  1  0.59498170  0.90328534  0.49020174  1
  O  O299  1  0.59090472  0.91119824  0.97576951  1
  O  O300  1  0.93436339  0.23953961  0.47391809  1
  O  O301  1  0.93861574  0.21624625  0.97717369  1
  O  O302  1  0.92497416  0.58165473  0.48438802  1
  O  O303  1  0.91903268  0.58240377  0.98406799  1
  O  O304  1  0.93538397  0.90886326  0.47974596  1
  O  O305  1  0.93125097  0.90202474  0.95714893  1
  O  O306  1  0.24503666  0.07784409  0.47427096  1
  O  O307  1  0.24695733  0.06894699  0.98287366  1
  O  O308  1  0.23345895  0.38821762  0.49142182  1
  O  O309  1  0.24744929  0.40510142  0.98176188  1
  O  O310  1  0.25036065  0.75010798  0.47590677  1
  O  O311  1  0.24214385  0.74431405  0.98354574  1
  O  O312  1  0.57636299  0.07405688  0.47537656  1
  O  O313  1  0.56566567  0.06801863  0.97221397  1
  O  O314  1  0.56947320  0.40269878  0.47735443  1
  O  O315  1  0.56540283  0.40181306  0.98287186  1
  O  O316  1  0.55504964  0.73777110  0.48797493  1
  O  O317  1  0.57029704  0.73959830  0.97853702  1
  O  O318  1  0.91649747  0.07898975  0.48812624  1
  O  O319  1  0.88641186  0.05366501  0.98223171  1
  O  O320  1  0.90883475  0.39592060  0.47867721  1
  O  O321  1  0.90928986  0.40490616  0.98302313  1
  O  O322  1  0.90665046  0.74554247  0.48260886  1
  O  O323  1  0.90089069  0.73785374  0.96087870  1
  O  O324  1  0.08388610  0.24894351  0.22631909  1
  O  O325  1  0.09969279  0.25655757  0.72019551  1
  O  O326  1  0.09133736  0.59974467  0.24414002  1
  O  O327  1  0.09165214  0.59482540  0.73097110  1
  O  O328  1  0.09963618  0.93230413  0.21990319  1
  O  O329  1  0.09738654  0.93546311  0.72427849  1
  O  O330  1  0.42453210  0.24644310  0.23127011  1
  O  O331  1  0.43319250  0.26520981  0.72549377  1
  O  O332  1  0.43566193  0.60985056  0.23027992  1
  O  O333  1  0.42411441  0.60211728  0.72401638  1
  O  O334  1  0.43043791  0.93731921  0.22531971  1
  O  O335  1  0.42785770  0.92273727  0.73039899  1
  O  O336  1  0.76369596  0.26615717  0.22887165  1
  O  O337  1  0.76466477  0.26354755  0.72545003  1
  O  O338  1  0.75779325  0.59292330  0.23040560  1
  O  O339  1  0.75718313  0.60564506  0.72252847  1
  O  O340  1  0.75981709  0.93438329  0.22399112  1
  O  O341  1  0.76520286  0.93119197  0.72048973  1
  O  O342  1  0.07877301  0.08951726  0.21184098  1
  O  O343  1  0.07348512  0.09241562  0.72339218  1
  O  O344  1  0.07042460  0.42583862  0.23270305  1
  O  O345  1  0.08250096  0.42426509  0.73380999  1
  O  O346  1  0.06414300  0.76351588  0.23951389  1
  O  O347  1  0.07089091  0.76405581  0.73198464  1
  O  O348  1  0.40333749  0.09542627  0.22136494  1
  O  O349  1  0.40217839  0.09894767  0.72477739  1
  O  O350  1  0.41003618  0.42337564  0.24361478  1
  O  O351  1  0.40364763  0.43187004  0.71765412  1
  O  O352  1  0.39913561  0.76690125  0.24285958  1
  O  O353  1  0.40493109  0.76850316  0.72243752  1
  O  O354  1  0.73989242  0.08690921  0.23397537  1
  O  O355  1  0.73572593  0.08821548  0.73002016  1
  O  O356  1  0.73578840  0.41808851  0.23332520  1
  O  O357  1  0.72583079  0.42320441  0.72317782  1
  O  O358  1  0.74277392  0.76398047  0.23260781  1
  O  O359  1  0.73680124  0.76752717  0.71970967  1
