# generated using pymatgen
data_BaLaInIrO6
_symmetry_space_group_name_H-M   'P 1'
_cell_length_a   17.51465036
_cell_length_b   17.52988276
_cell_length_c   16.48056035
_cell_angle_alpha   89.99770573
_cell_angle_beta   89.98078122
_cell_angle_gamma   89.94210568
_symmetry_Int_Tables_number   1
_chemical_formula_structural   BaLaInIrO6
_chemical_formula_sum   'Ba36 La36 In36 Ir36 O216'
_cell_volume   5060.01973661
_cell_formula_units_Z   36
loop_
 _symmetry_equiv_pos_site_id
 _symmetry_equiv_pos_as_xyz
  1  'x, y, z'
loop_
 _atom_site_type_symbol
 _atom_site_label
 _atom_site_symmetry_multiplicity
 _atom_site_fract_x
 _atom_site_fract_y
 _atom_site_fract_z
 _atom_site_occupancy
  Ba  Ba0  1  0.66245413  0.49397810  0.86990174  1
  Ba  Ba1  1  0.66908867  0.84067648  0.12674454  1
  Ba  Ba2  1  0.16443047  0.33774095  0.62399304  1
  Ba  Ba3  1  0.50400721  0.67336416  0.12316877  1
  Ba  Ba4  1  0.33131799  0.17344159  0.62773664  1
  Ba  Ba5  1  0.16202636  0.99405125  0.87551031  1
  Ba  Ba6  1  0.49884917  0.34366587  0.12910708  1
  Ba  Ba7  1  1.00012304  0.50913899  0.12733702  1
  Ba  Ba8  1  0.33517472  0.16511862  0.37858779  1
  Ba  Ba9  1  0.99876679  0.84404965  0.12943614  1
  Ba  Ba10  1  0.16381154  0.32532596  0.37392261  1
  Ba  Ba11  1  0.83306321  0.31783539  0.36787029  1
  Ba  Ba12  1  0.83109914  0.67628946  0.12520423  1
  Ba  Ba13  1  1.00518496  0.51232879  0.62231735  1
  Ba  Ba14  1  0.16551469  0.33992185  0.12467334  1
  Ba  Ba15  1  0.50394939  0.32232809  0.37397284  1
  Ba  Ba16  1  0.66904305  0.50944391  0.12764737  1
  Ba  Ba17  1  0.16350031  0.67397828  0.62222582  1
  Ba  Ba18  1  -0.00116480  0.82759182  0.87656892  1
  Ba  Ba19  1  0.83056740  0.67778278  0.62615365  1
  Ba  Ba20  1  0.66073960  0.82643727  0.87720887  1
  Ba  Ba21  1  0.16067734  0.32628122  0.87516503  1
  Ba  Ba22  1  0.50073069  0.67307552  0.62468367  1
  Ba  Ba23  1  -0.00162221  0.49399204  0.87582642  1
  Ba  Ba24  1  0.16586396  0.00747538  0.63039887  1
  Ba  Ba25  1  -0.00296186  0.15448656  0.37581378  1
  Ba  Ba26  1  0.83485326  0.98994469  0.87819652  1
  Ba  Ba27  1  0.66696633  0.48346675  0.37097749  1
  Ba  Ba28  1  0.33034221  0.50234938  0.62514061  1
  Ba  Ba29  1  0.33186676  0.49572892  0.87562942  1
  Ba  Ba30  1  0.00207904  0.82618139  0.37321256  1
  Ba  Ba31  1  0.49557131  0.34618048  0.61703852  1
  Ba  Ba32  1  0.83275915  0.00691691  0.12528641  1
  Ba  Ba33  1  0.50006946  0.65737032  0.87549194  1
  Ba  Ba34  1  0.16395486  0.65843171  0.37358244  1
  Ba  Ba35  1  0.32978524  0.82581927  0.87030696  1
  La  La36  1  0.82509898  0.34960561  0.12367353  1
  La  La37  1  0.83985422  0.98741765  0.37569678  1
  La  La38  1  0.34028749  0.51437441  0.12693788  1
  La  La39  1  0.32836428  0.81824015  0.37754748  1
  La  La40  1  0.50788591  0.99255209  0.38084560  1
  La  La41  1  0.15912107  0.01536132  0.12954517  1
  La  La42  1  -0.00619688  0.48012250  0.37552617  1
  La  La43  1  0.16439674  0.67769411  0.12082502  1
  La  La44  1  0.49937037  0.01050042  0.12188515  1
  La  La45  1  0.82574470  0.35058206  0.61857293  1
  La  La46  1  -0.00431531  0.15823040  0.87503922  1
  La  La47  1  0.67202980  0.18440613  0.62380124  1
  La  La48  1  0.33459385  0.18074060  0.12643644  1
  La  La49  1  0.67058549  0.51879655  0.62180858  1
  La  La50  1  0.33159722  0.16314823  0.87990040  1
  La  La51  1  0.16874984  0.98569784  0.37729833  1
  La  La52  1  0.33451134  0.85084992  0.62398708  1
  La  La53  1  0.67304256  0.84965036  0.62365264  1
  La  La54  1  0.50608290  0.64812393  0.37369123  1
  La  La55  1  1.00043420  0.17363284  0.12566120  1
  La  La56  1  1.00311216  0.84228951  0.62380312  1
  La  La57  1  0.66654365  0.15503422  0.87633002  1
  La  La58  1  0.67367707  0.18517885  0.12636450  1
  La  La59  1  0.33453762  0.48445933  0.37422232  1
  La  La60  1  0.84398807  0.64837063  0.36920136  1
  La  La61  1  0.17251928  0.65215550  0.87212208  1
  La  La62  1  0.66975008  0.81656143  0.37557171  1
  La  La63  1  1.00401279  0.17771999  0.62493524  1
  La  La64  1  0.66133773  0.15762426  0.37178952  1
  La  La65  1  0.49360678  0.01025107  0.63312726  1
  La  La66  1  0.50400764  0.98493578  0.87741986  1
  La  La67  1  0.49800425  0.33319420  0.85814851  1
  La  La68  1  0.83466219  0.01336215  0.62748661  1
  La  La69  1  0.34349181  0.84881110  0.12421036  1
  La  La70  1  0.83623870  0.65360005  0.88028984  1
  La  La71  1  0.83989800  0.31541001  0.87578516  1
  In  In72  1  -0.00122033  0.67167869  0.75119899  1
  In  In73  1  0.66593115  0.00223550  0.00537798  1
  In  In74  1  -0.00351679  0.33248040  0.00383010  1
  In  In75  1  0.33122026  0.33091106  0.75163338  1
  In  In76  1  0.16717204  0.50049697  0.24953829  1
  In  In77  1  0.33163644  0.33130455  0.49854617  1
  In  In78  1  0.17177212  0.83421208  0.24834113  1
  In  In79  1  0.33486590  0.33384684  0.00038509  1
  In  In80  1  0.49899905  0.83452762  0.25435323  1
  In  In81  1  0.50517068  0.16575926  0.50465666  1
  In  In82  1  0.83380070  0.83478134  0.25118899  1
  In  In83  1  0.66759984  0.33220098  -0.00853515  1
  In  In84  1  0.33497423  0.00341177  0.25079668  1
  In  In85  1  0.33759081  0.00140636  0.49923846  1
  In  In86  1  0.50177577  0.16367643  0.24777040  1
  In  In87  1  0.16803883  0.49960377  0.00303701  1
  In  In88  1  0.66743225  0.00415276  0.74870916  1
  In  In89  1  0.00252212  0.67093768  0.00158930  1
  In  In90  1  -0.00717563  0.33143466  0.74801465  1
  In  In91  1  0.16581831  0.50131057  0.49413773  1
  In  In92  1  0.16532435  0.83432710  0.75105980  1
  In  In93  1  0.50043493  0.49782468  0.00029787  1
  In  In94  1  0.50040400  0.50236764  0.74448461  1
  In  In95  1  0.50122057  0.83183900  0.74667127  1
  In  In96  1  -0.00343470  0.67060576  0.49838197  1
  In  In97  1  0.50380179  0.83197579  0.49915647  1
  In  In98  1  0.83044756  0.16359350  0.49848755  1
  In  In99  1  0.33324991  0.00346398  0.75614523  1
  In  In100  1  0.33386115  0.67152478  0.00123358  1
  In  In101  1  0.16165531  0.16107173  0.49830655  1
  In  In102  1  0.16322575  0.49863972  0.74823720  1
  In  In103  1  0.66859512  0.67089645  0.74935306  1
  In  In104  1  -0.00049381  -0.00099625  0.00162597  1
  In  In105  1  0.66847758  0.66548118  0.25236424  1
  In  In106  1  0.83177494  0.49848114  0.74926775  1
  In  In107  1  0.50232415  0.16730572  0.00039042  1
  Ir  Ir108  1  0.00123561  0.66722636  0.24875196  1
  Ir  Ir109  1  0.50574582  0.16831456  0.75377179  1
  Ir  Ir110  1  0.16703440  0.16165577  0.00178551  1
  Ir  Ir111  1  0.16095082  0.16404545  0.75606652  1
  Ir  Ir112  1  -0.00580820  0.32643748  0.24806639  1
  Ir  Ir113  1  0.33029477  0.00110507  0.00403099  1
  Ir  Ir114  1  0.83281505  0.16790994  0.00234384  1
  Ir  Ir115  1  -0.00913658  0.32953628  0.49722068  1
  Ir  Ir116  1  0.67127780  -0.00074032  0.49944031  1
  Ir  Ir117  1  0.83685016  0.49738067  0.25001625  1
  Ir  Ir118  1  0.33072966  0.66900183  0.74327764  1
  Ir  Ir119  1  0.83209829  0.16539467  0.74745983  1
  Ir  Ir120  1  -0.00233082  -0.00616603  0.50113790  1
  Ir  Ir121  1  0.83371080  0.83699922  0.74818122  1
  Ir  Ir122  1  0.67188173  0.32917707  0.74387500  1
  Ir  Ir123  1  -0.00816759  0.00182958  0.74681966  1
  Ir  Ir124  1  0.67024740  0.33137520  0.25050359  1
  Ir  Ir125  1  0.83063013  0.83234034  -0.00428634  1
  Ir  Ir126  1  0.49893559  0.83590769  0.00389765  1
  Ir  Ir127  1  0.17243272  0.83669479  0.00390678  1
  Ir  Ir128  1  0.66924214  0.00163367  0.25817926  1
  Ir  Ir129  1  0.17051551  0.83478285  0.49952016  1
  Ir  Ir130  1  0.83154018  0.49799098  0.49522791  1
  Ir  Ir131  1  0.33837430  0.66937470  0.49753292  1
  Ir  Ir132  1  0.33549101  0.66602360  0.25493923  1
  Ir  Ir133  1  0.50474536  0.50434505  0.49384845  1
  Ir  Ir134  1  0.16432869  0.16538001  0.24689060  1
  Ir  Ir135  1  0.33175079  0.33130373  0.24931558  1
  Ir  Ir136  1  0.67127387  0.66752452  0.49564932  1
  Ir  Ir137  1  0.82877918  0.50039980  0.00041319  1
  Ir  Ir138  1  0.83022321  0.16331612  0.24710062  1
  Ir  Ir139  1  0.00101756  0.00456205  0.25417150  1
  Ir  Ir140  1  0.67082925  0.66923775  -0.00103974  1
  Ir  Ir141  1  0.83082718  0.83641695  0.50313854  1
  Ir  Ir142  1  0.49816965  0.49871881  0.25137819  1
  Ir  Ir143  1  0.66771377  0.33354329  0.50077768  1
  O  O144  1  0.31285620  0.32153029  0.13124931  1
  O  O145  1  0.31715948  0.33362644  0.62526132  1
  O  O146  1  0.30323791  0.65540366  0.13638865  1
  O  O147  1  0.31208344  0.65797923  0.61784264  1
  O  O148  1  0.29504894  0.98790230  0.12186820  1
  O  O149  1  0.31568999  0.99427882  0.62733301  1
  O  O150  1  0.65506639  0.32759978  0.12846128  1
  O  O151  1  0.64387591  0.32096686  0.62306813  1
  O  O152  1  0.65608438  0.67067348  0.12204738  1
  O  O153  1  0.65229448  0.66398608  0.61408143  1
  O  O154  1  0.63776587  0.99481870  0.13784466  1
  O  O155  1  0.63416187  0.98838369  0.61724331  1
  O  O156  1  0.96178309  0.31669372  0.12970103  1
  O  O157  1  0.96208095  0.31893819  0.61771814  1
  O  O158  1  0.98035156  0.67243309  0.13123219  1
  O  O159  1  0.97833211  0.67937638  0.62263807  1
  O  O160  1  0.98338048  1.00739514  0.13291305  1
  O  O161  1  0.96734768  0.98327750  0.62314699  1
  O  O162  1  0.19725991  0.15281138  0.12349534  1
  O  O163  1  0.17783546  0.16241072  0.63479372  1
  O  O164  1  0.20387387  0.49936079  0.12955345  1
  O  O165  1  0.17975043  0.49483152  0.61934853  1
  O  O166  1  0.20514580  0.82543774  0.12286928  1
  O  O167  1  0.19689096  0.83524567  0.61836491  1
  O  O168  1  0.54072232  0.14952997  0.12614933  1
  O  O169  1  0.54010487  0.15115267  0.63522921  1
  O  O170  1  0.51950339  0.49941544  0.13205518  1
  O  O171  1  0.53245476  0.50277623  0.61264647  1
  O  O172  1  0.51864960  0.83190192  0.12353722  1
  O  O173  1  0.54137018  0.82658869  0.62081313  1
  O  O174  1  0.86285192  0.16170045  0.12372035  1
  O  O175  1  0.86453198  0.15446440  0.62770205  1
  O  O176  1  0.85206449  0.48574432  0.12539229  1
  O  O177  1  0.85382564  0.48903126  0.61501802  1
  O  O178  1  0.84681994  0.83216782  0.11866588  1
  O  O179  1  0.86441520  0.83261474  0.62574809  1
  O  O180  1  0.14359080  0.16892107  0.36589984  1
  O  O181  1  0.13173480  0.16540638  0.87987782  1
  O  O182  1  0.12918335  0.50064406  0.36970575  1
  O  O183  1  0.14699206  0.51798481  0.87657221  1
  O  O184  1  0.15150087  0.84270317  0.37897958  1
  O  O185  1  0.14899497  0.83983735  0.88518057  1
  O  O186  1  0.49193808  0.15949324  0.37449168  1
  O  O187  1  0.47436887  0.18503639  0.87211681  1
  O  O188  1  0.47230245  0.50814460  0.37230065  1
  O  O189  1  0.48966437  0.49623260  0.87332728  1
  O  O190  1  0.46441361  0.85457973  0.37753417  1
  O  O191  1  0.48003786  0.84577637  0.88262731  1
  O  O192  1  0.79918780  0.16294709  0.36910749  1
  O  O193  1  0.80161082  0.17695907  0.87542709  1
  O  O194  1  0.81385023  0.50994447  0.37258370  1
  O  O195  1  0.81164453  0.50977894  0.88115749  1
  O  O196  1  0.80326798  0.85083185  0.38431012  1
  O  O197  1  0.80781858  0.83916658  0.87043457  1
  O  O198  1  0.03074594  0.00007462  0.37847936  1
  O  O199  1  0.00981499  0.01613574  0.86958382  1
  O  O200  1  0.01459303  0.33824499  0.37270907  1
  O  O201  1  0.00524077  0.32485687  0.87666674  1
  O  O202  1  0.01254810  0.66809750  0.36793226  1
  O  O203  1  0.03377308  0.67458396  0.87831816  1
  O  O204  1  0.37313373  0.01174204  0.37456354  1
  O  O205  1  0.36703854  0.01433694  0.88458937  1
  O  O206  1  0.35398069  0.33714298  0.36754650  1
  O  O207  1  0.36474153  0.31444123  0.87592465  1
  O  O208  1  0.37079973  0.68320804  0.37550741  1
  O  O209  1  0.34950174  0.67374540  0.86381768  1
  O  O210  1  0.70509944  0.01771661  0.37887502  1
  O  O211  1  0.68770282  0.01744106  0.87723643  1
  O  O212  1  0.68542369  0.32249154  0.37732009  1
  O  O213  1  0.70450410  0.33220845  0.86261638  1
  O  O214  1  0.70574051  0.67284576  0.37951005  1
  O  O215  1  0.69833678  0.66747834  0.87848258  1
  O  O216  1  0.07629588  0.09236398  0.02541945  1
  O  O217  1  0.06013521  0.08930361  0.52628288  1
  O  O218  1  0.07020584  0.42395237  0.01857369  1
  O  O219  1  0.06229624  0.41697308  0.50657819  1
  O  O220  1  0.08447458  0.76748447  0.02832890  1
  O  O221  1  0.07314904  0.77281883  0.51713215  1
  O  O222  1  0.39790106  0.08986573  0.02907638  1
  O  O223  1  0.42125243  0.08497936  0.53322453  1
  O  O224  1  0.40079756  0.43186305  0.02903716  1
  O  O225  1  0.41337919  0.43714838  0.50563542  1
  O  O226  1  0.40344304  0.77047108  0.02367577  1
  O  O227  1  0.39736777  0.76639057  0.52051915  1
  O  O228  1  0.73579482  0.10468025  0.02452958  1
  O  O229  1  0.73572303  0.09129398  0.53356015  1
  O  O230  1  0.73969518  0.42918411  0.01593457  1
  O  O231  1  0.73570032  0.42917320  0.52405872  1
  O  O232  1  0.73903999  0.76195621  0.01138534  1
  O  O233  1  0.73155982  0.77183318  0.51904435  1
  O  O234  1  0.08886907  0.24419404  0.02590999  1
  O  O235  1  0.07545021  0.25283843  0.52029793  1
  O  O236  1  0.09660259  0.59996866  0.03009805  1
  O  O237  1  0.08924745  0.59466029  0.50848588  1
  O  O238  1  0.10319177  0.93030618  0.02708722  1
  O  O239  1  0.09896769  0.92871509  0.51617746  1
  O  O240  1  0.42090736  0.24917820  0.03163486  1
  O  O241  1  0.42658682  0.25614817  0.50976876  1
  O  O242  1  0.42260426  0.59196729  0.01963694  1
  O  O243  1  0.43928222  0.60594820  0.50200008  1
  O  O244  1  0.42725979  0.93160685  0.02882989  1
  O  O245  1  0.43417380  0.92651008  0.53509256  1
  O  O246  1  0.76996344  0.26366982  0.02184351  1
  O  O247  1  0.75969848  0.26371914  0.52601060  1
  O  O248  1  0.76511281  0.60145654  0.01266299  1
  O  O249  1  0.75967651  0.58892333  0.52187317  1
  O  O250  1  0.75825137  0.92226655  0.01401078  1
  O  O251  1  0.76551994  0.93279569  0.53010057  1
  O  O252  1  0.22793698  0.06932202  0.26859168  1
  O  O253  1  0.24064060  0.08374668  0.77743641  1
  O  O254  1  0.24615551  0.40514608  0.27003377  1
  O  O255  1  0.24142784  0.40820962  0.77008534  1
  O  O256  1  0.24907988  0.73855174  0.27358041  1
  O  O257  1  0.23681312  0.73418450  0.76573530  1
  O  O258  1  0.57612139  0.06368201  0.27910106  1
  O  O259  1  0.56995619  0.07845288  0.78425720  1
  O  O260  1  0.57333258  0.40484418  0.26706310  1
  O  O261  1  0.57980714  0.39376683  0.76346901  1
  O  O262  1  0.57149186  0.73970382  0.28101410  1
  O  O263  1  0.57351695  0.74014753  0.76973205  1
  O  O264  1  0.89927391  0.06870086  0.27500084  1
  O  O265  1  0.89478842  0.06762618  0.76142092  1
  O  O266  1  0.90892088  0.40633600  0.27016841  1
  O  O267  1  0.88617265  0.39144330  0.76379210  1
  O  O268  1  0.90552013  0.73499625  0.27165705  1
  O  O269  1  0.89371210  0.74270842  0.77633447  1
  O  O270  1  0.26428609  0.23161268  0.25945902  1
  O  O271  1  0.25535823  0.22992054  0.77811422  1
  O  O272  1  0.27228698  0.57255001  0.28033454  1
  O  O273  1  0.26104606  0.58242725  0.76371452  1
  O  O274  1  0.26552163  0.90644249  0.28103292  1
  O  O275  1  0.25589896  0.91075203  0.76193268  1
  O  O276  1  0.60563638  0.23487475  0.26358938  1
  O  O277  1  0.60443096  0.23430039  0.77501274  1
  O  O278  1  0.58676322  0.57403828  0.27120506  1
  O  O279  1  0.59704227  0.57142111  0.74896046  1
  O  O280  1  0.60251730  0.90918839  0.28662085  1
  O  O281  1  0.58792083  0.91734839  0.76869553  1
  O  O282  1  0.92621293  0.22886015  0.26280163  1
  O  O283  1  0.92546980  0.22705123  0.77379855  1
  O  O284  1  0.93052913  0.56972595  0.27485426  1
  O  O285  1  0.91749390  0.58089031  0.77267840  1
  O  O286  1  0.92642779  0.91552232  0.27248727  1
  O  O287  1  0.92732835  0.90443035  0.76267198  1
  O  O288  1  0.24877927  0.24133889  0.48858271  1
  O  O289  1  0.26028341  0.22724194  0.98375259  1
  O  O290  1  0.27476710  0.57744238  0.47089073  1
  O  O291  1  0.25568792  0.58427291  0.98239767  1
  O  O292  1  0.26717639  0.89883423  0.47815318  1
  O  O293  1  0.26599468  0.90603423  0.98464309  1
  O  O294  1  0.60909329  0.23185499  0.48694999  1
  O  O295  1  0.61105785  0.22468524  0.98480206  1
  O  O296  1  0.60041297  0.57663981  0.47197145  1
  O  O297  1  0.59960957  0.58093079  0.98870560  1
  O  O298  1  0.60657121  0.90754569  0.46871198  1
  O  O299  1  0.58479448  0.90969448  0.98607645  1
  O  O300  1  0.92270403  0.23904250  0.48266673  1
  O  O301  1  0.92472873  0.23240650  0.97770525  1
  O  O302  1  0.92205328  0.56805010  0.47113961  1
  O  O303  1  0.91755918  0.57451986  0.98646644  1
  O  O304  1  0.92578387  0.90212257  0.47990155  1
  O  O305  1  0.92142798  0.90477190  0.98897785  1
  O  O306  1  0.23255406  0.06375707  0.47559243  1
  O  O307  1  0.24348613  0.07381744  0.97516103  1
  O  O308  1  0.24986922  0.41737652  0.46958266  1
  O  O309  1  0.23930705  0.40262778  0.98124514  1
  O  O310  1  0.24296410  0.74060156  0.47648410  1
  O  O311  1  0.23279583  0.74163857  0.98203882  1
  O  O312  1  0.58349040  0.06758105  0.47265686  1
  O  O313  1  0.56011488  0.06289810  0.97884861  1
  O  O314  1  0.57309336  0.40699621  0.47936275  1
  O  O315  1  0.56567473  0.39251935  0.97422494  1
  O  O316  1  0.58011384  0.73621307  0.46320714  1
  O  O317  1  0.57079286  0.74141896  0.98283924  1
  O  O318  1  0.89979450  0.05839814  0.48482815  1
  O  O319  1  0.90698386  0.08120032  0.98284102  1
  O  O320  1  0.90151965  0.40585681  0.47265789  1
  O  O321  1  0.88963846  0.40174781  0.98492618  1
  O  O322  1  0.89149745  0.74117191  0.47321958  1
  O  O323  1  0.89968820  0.73975009  0.97597441  1
  O  O324  1  0.08274667  0.25150312  0.22028094  1
  O  O325  1  0.08538771  0.24734057  0.73268382  1
  O  O326  1  0.09553171  0.60150621  0.22374244  1
  O  O327  1  0.09372988  0.59849804  0.73802177  1
  O  O328  1  0.09905589  0.93853378  0.23538814  1
  O  O329  1  0.08071376  0.93190742  0.73360001  1
  O  O330  1  0.42077714  0.25713084  0.23296444  1
  O  O331  1  0.43803029  0.25432359  0.72950953  1
  O  O332  1  0.42633280  0.59259809  0.23224155  1
  O  O333  1  0.41950277  0.59761439  0.73174246  1
  O  O334  1  0.42946748  0.92959629  0.21645994  1
  O  O335  1  0.42774818  0.92759143  0.72961913  1
  O  O336  1  0.76421728  0.25983068  0.22086014  1
  O  O337  1  0.76915521  0.26274204  0.71902030  1
  O  O338  1  0.76673350  0.58895626  0.23968155  1
  O  O339  1  0.75400028  0.58748261  0.72787793  1
  O  O340  1  0.76159866  0.93722158  0.24461334  1
  O  O341  1  0.76534994  0.93073424  0.71952469  1
  O  O342  1  0.07040427  0.09775989  0.22378125  1
  O  O343  1  0.05736110  0.09899586  0.73284290  1
  O  O344  1  0.06623485  0.41571685  0.23543784  1
  O  O345  1  0.06634360  0.42221683  0.73476501  1
  O  O346  1  0.07725047  0.75548757  0.23158365  1
  O  O347  1  0.06516633  0.77431261  0.72678460  1
  O  O348  1  0.40774291  0.09286237  0.21037029  1
  O  O349  1  0.41725466  0.09603900  0.73604206  1
  O  O350  1  0.39695292  0.43176888  0.23297844  1
  O  O351  1  0.41864553  0.41665857  0.74344045  1
  O  O352  1  0.39742690  0.76184556  0.22984399  1
  O  O353  1  0.39589797  0.76507967  0.71995509  1
  O  O354  1  0.73023826  0.10117213  0.22941053  1
  O  O355  1  0.73588052  0.10278911  0.72234977  1
  O  O356  1  0.74670925  0.42074401  0.22855779  1
  O  O357  1  0.73164638  0.42377189  0.71316903  1
  O  O358  1  0.73571775  0.76687373  0.24908056  1
  O  O359  1  0.73864087  0.77500663  0.72541841  1
