# generated using pymatgen
data_BaLaInIrO6
_symmetry_space_group_name_H-M   'P 1'
_cell_length_a   17.53515000
_cell_length_b   17.56865309
_cell_length_c   16.49636894
_cell_angle_alpha   89.94474662
_cell_angle_beta   89.96588719
_cell_angle_gamma   90.02284550
_symmetry_Int_Tables_number   1
_chemical_formula_structural   BaLaInIrO6
_chemical_formula_sum   'Ba36 La36 In36 Ir36 O216'
_cell_volume   5082.01567122
_cell_formula_units_Z   36
loop_
 _symmetry_equiv_pos_site_id
 _symmetry_equiv_pos_as_xyz
  1  'x, y, z'
loop_
 _atom_site_type_symbol
 _atom_site_label
 _atom_site_symmetry_multiplicity
 _atom_site_fract_x
 _atom_site_fract_y
 _atom_site_fract_z
 _atom_site_occupancy
  Ba  Ba0  1  0.33542725  0.84315530  0.12652306  1
  Ba  Ba1  1  0.00212740  0.15705983  0.37824069  1
  Ba  Ba2  1  0.50024071  0.34012692  0.62537144  1
  Ba  Ba3  1  0.00117176  0.82923141  0.87034936  1
  Ba  Ba4  1  0.16836405  0.68252920  0.12689498  1
  Ba  Ba5  1  -0.00071351  0.48952291  0.87417334  1
  Ba  Ba6  1  0.66605183  0.85265905  0.62215211  1
  Ba  Ba7  1  0.66161476  0.82847774  0.87007499  1
  Ba  Ba8  1  0.17073920  0.32296350  0.87120834  1
  Ba  Ba9  1  0.33405105  0.17391629  0.12523572  1
  Ba  Ba10  1  0.32681320  0.48562678  0.37700264  1
  Ba  Ba11  1  0.33343216  0.50541352  0.12645323  1
  Ba  Ba12  1  0.49914460  0.99346971  0.87676126  1
  Ba  Ba13  1  0.49628215  0.32325894  0.87244499  1
  Ba  Ba14  1  0.00022071  0.15830832  0.87650905  1
  Ba  Ba15  1  0.49886447  0.99300107  0.37441258  1
  Ba  Ba16  1  0.16290125  0.00899310  0.62580491  1
  Ba  Ba17  1  1.00709054  0.84673399  0.12222061  1
  Ba  Ba18  1  1.00394201  0.17405733  0.62385411  1
  Ba  Ba19  1  0.16902052  0.00525039  0.13014535  1
  Ba  Ba20  1  0.16311981  0.66302477  0.37497508  1
  Ba  Ba21  1  0.66287928  0.17357877  0.12717042  1
  Ba  Ba22  1  0.33334449  0.82400308  0.87427337  1
  Ba  Ba23  1  0.66622431  0.16124275  0.87756684  1
  Ba  Ba24  1  0.16567306  0.99375063  0.37786474  1
  Ba  Ba25  1  0.16728918  0.67662405  0.62389693  1
  Ba  Ba26  1  0.49616025  0.00826090  0.62866807  1
  Ba  Ba27  1  0.66592095  0.50912301  0.62534611  1
  Ba  Ba28  1  0.49763495  0.33694850  0.12260372  1
  Ba  Ba29  1  0.83672879  0.00603045  0.62709255  1
  Ba  Ba30  1  0.33703383  0.50571761  0.62613716  1
  Ba  Ba31  1  0.66711183  0.48409428  0.37419761  1
  Ba  Ba32  1  0.17096308  0.32132998  0.37505195  1
  Ba  Ba33  1  0.00064748  0.83151377  0.37258013  1
  Ba  Ba34  1  1.00010239  0.84395041  0.62283972  1
  Ba  Ba35  1  0.83524027  0.65806291  0.87279456  1
  La  La36  1  0.33807675  0.84484700  0.62434576  1
  La  La37  1  -0.00792510  0.48509490  0.37667789  1
  La  La38  1  0.82984689  0.34304845  0.62582994  1
  La  La39  1  0.50508953  0.65366149  0.87720403  1
  La  La40  1  0.66226483  0.48545295  0.87504515  1
  La  La41  1  0.33902733  0.17812034  0.62055590  1
  La  La42  1  0.17021038  0.65102471  0.87448248  1
  La  La43  1  0.49982443  0.31678683  0.37445636  1
  La  La44  1  0.83570257  0.98831540  0.87608984  1
  La  La45  1  0.84040988  0.98822105  0.37879418  1
  La  La46  1  0.66841517  0.51158782  0.12468241  1
  La  La47  1  1.00800998  0.52041726  0.12358857  1
  La  La48  1  0.32736277  0.15270763  0.37293842  1
  La  La49  1  0.83777636  0.31628663  0.37758995  1
  La  La50  1  0.84203558  0.65586950  0.37782888  1
  La  La51  1  0.83183674  0.01565106  0.12706558  1
  La  La52  1  0.84057271  0.31965903  0.87260884  1
  La  La53  1  0.67016620  0.85123259  0.12238002  1
  La  La54  1  0.16474649  0.35099562  0.12606054  1
  La  La55  1  0.82970987  0.34460685  0.12670319  1
  La  La56  1  0.83232381  0.68470291  0.12093583  1
  La  La57  1  0.50192735  0.64739747  0.37259358  1
  La  La58  1  0.66223489  0.81589534  0.37807562  1
  La  La59  1  0.82964458  0.68816558  0.62587141  1
  La  La60  1  0.33407241  0.48592206  0.87342782  1
  La  La61  1  0.16553331  0.34799471  0.62232110  1
  La  La62  1  0.49182287  0.01899042  0.12229942  1
  La  La63  1  1.00427050  0.51203062  0.63003205  1
  La  La64  1  1.00780451  0.17969756  0.12682005  1
  La  La65  1  0.32093747  0.82316992  0.37669689  1
  La  La66  1  0.49300450  0.67976649  0.12324329  1
  La  La67  1  0.32527922  0.14972179  0.87495916  1
  La  La68  1  0.66732682  0.17099466  0.62748125  1
  La  La69  1  0.49278469  0.67970962  0.62306972  1
  La  La70  1  0.17014912  0.98392762  0.87917943  1
  La  La71  1  0.66163525  0.15537158  0.37588847  1
  In  In72  1  0.33038564  0.33060579  0.00104702  1
  In  In73  1  0.83368606  0.50026451  0.50128443  1
  In  In74  1  0.83544901  0.49970534  0.00164659  1
  In  In75  1  0.83014392  0.83520679  0.24831336  1
  In  In76  1  0.66518670  -0.00042204  0.25197347  1
  In  In77  1  0.83422427  0.50122937  0.24730704  1
  In  In78  1  0.00080576  0.66827793  0.74948074  1
  In  In79  1  0.16364413  0.50190767  0.25504675  1
  In  In80  1  0.33390624  0.66612476  -0.00284086  1
  In  In81  1  0.66717983  0.66826725  -0.00016155  1
  In  In82  1  0.49935723  0.83258463  0.75140084  1
  In  In83  1  0.33597695  0.66460798  0.25012359  1
  In  In84  1  0.49796325  0.83241006  0.49640536  1
  In  In85  1  0.66569012  0.33006562  0.49791975  1
  In  In86  1  0.83317867  0.50095594  0.74835210  1
  In  In87  1  0.00280799  0.00162718  0.75372060  1
  In  In88  1  -0.00185871  0.33397563  0.25081812  1
  In  In89  1  0.66922507  0.33252614  0.00236252  1
  In  In90  1  -0.00129452  0.66786487  0.49936065  1
  In  In91  1  0.16605769  0.16504664  0.00112750  1
  In  In92  1  0.50012960  0.83289271  0.25360757  1
  In  In93  1  0.82869824  0.83566651  0.75209415  1
  In  In94  1  0.33363505  0.00085254  0.50177160  1
  In  In95  1  0.00215719  0.67074361  -0.00254710  1
  In  In96  1  -0.00068665  0.33366843  0.00195600  1
  In  In97  1  0.33269804  0.32949672  0.74659815  1
  In  In98  1  0.66697552  0.66406510  0.50025697  1
  In  In99  1  0.66703003  0.66586532  0.24733291  1
  In  In100  1  0.66565082  0.00238356  -0.00003215  1
  In  In101  1  -0.00163902  0.00409739  0.24916016  1
  In  In102  1  0.00075987  0.33113669  0.50211989  1
  In  In103  1  0.50084650  0.49929132  0.00130584  1
  In  In104  1  0.83546878  0.16446450  0.74972840  1
  In  In105  1  0.66852999  0.33072051  0.74894545  1
  In  In106  1  0.33278060  0.66411489  0.50041914  1
  In  In107  1  0.49986799  0.50241297  0.74758281  1
  Ir  Ir108  1  0.33373013  0.32974753  0.49815701  1
  Ir  Ir109  1  0.83056362  0.16782225  0.25205237  1
  Ir  Ir110  1  0.66985055  0.00642402  0.49714546  1
  Ir  Ir111  1  0.33467709  0.33020975  0.25275210  1
  Ir  Ir112  1  0.33643050  0.00266209  0.24785983  1
  Ir  Ir113  1  0.50339351  0.83289437  0.00165255  1
  Ir  Ir114  1  0.16774074  0.49898238  0.74906782  1
  Ir  Ir115  1  -0.00212586  0.00188953  0.00102020  1
  Ir  Ir116  1  0.17060260  0.16835504  0.25088624  1
  Ir  Ir117  1  -0.00210816  0.66824604  0.25075733  1
  Ir  Ir118  1  0.66422593  0.66740899  0.74856412  1
  Ir  Ir119  1  0.49990468  0.16653041  0.49876364  1
  Ir  Ir120  1  0.17138579  0.83340346  0.75016988  1
  Ir  Ir121  1  0.00227869  0.33102208  0.74905172  1
  Ir  Ir122  1  0.33330931  0.66633669  0.74976262  1
  Ir  Ir123  1  0.49797938  0.16218909  0.74794546  1
  Ir  Ir124  1  0.16733815  0.83668742  -0.00188101  1
  Ir  Ir125  1  -0.00083782  0.00096830  0.49957692  1
  Ir  Ir126  1  0.16775564  0.83483991  0.50052567  1
  Ir  Ir127  1  0.17223027  0.16727205  0.50073091  1
  Ir  Ir128  1  0.66649407  0.33010692  0.25063374  1
  Ir  Ir129  1  0.83458917  0.83852930  0.00321476  1
  Ir  Ir130  1  0.83102411  0.16520985  0.49771561  1
  Ir  Ir131  1  0.16796911  0.83655115  0.25177009  1
  Ir  Ir132  1  0.83867729  0.16449188  0.00742675  1
  Ir  Ir133  1  0.49775790  0.49629364  0.49468056  1
  Ir  Ir134  1  0.32823962  0.00016506  0.75208017  1
  Ir  Ir135  1  0.82597553  0.83923658  0.49733985  1
  Ir  Ir136  1  0.16999730  0.16605518  0.74737794  1
  Ir  Ir137  1  0.66440583  0.00618831  0.74784456  1
  Ir  Ir138  1  0.33502331  -0.00241264  -0.00047246  1
  Ir  Ir139  1  0.50324347  0.49233752  0.25288338  1
  Ir  Ir140  1  0.49736333  0.16859798  0.25379681  1
  Ir  Ir141  1  0.16604732  0.49975774  -0.00156420  1
  Ir  Ir142  1  0.16329851  0.49793806  0.50522382  1
  Ir  Ir143  1  0.49611813  0.16484958  -0.00372660  1
  O  O144  1  0.30358658  0.32826877  0.13203894  1
  O  O145  1  0.30336233  0.31902542  0.61859750  1
  O  O146  1  0.31729812  0.66191563  0.12251339  1
  O  O147  1  0.31350848  0.66017638  0.63203787  1
  O  O148  1  0.31684478  0.99975364  0.12324793  1
  O  O149  1  0.31071740  0.99068428  0.63265566  1
  O  O150  1  0.64470471  0.32647754  0.13269071  1
  O  O151  1  0.64575083  0.30856669  0.62207591  1
  O  O152  1  0.62675877  0.65111403  0.12380181  1
  O  O153  1  0.63088124  0.66467297  0.62930507  1
  O  O154  1  0.62995668  0.99402243  0.12589329  1
  O  O155  1  0.64410716  1.01245994  0.62247530  1
  O  O156  1  0.96608350  0.31631794  0.12856036  1
  O  O157  1  0.97137199  0.33192460  0.63024897  1
  O  O158  1  0.97251415  0.66104919  0.13013887  1
  O  O159  1  0.96789805  0.65707367  0.62253892  1
  O  O160  1  0.96813458  1.00228457  0.12059953  1
  O  O161  1  0.98868368  1.00309262  0.62146255  1
  O  O162  1  0.18586519  0.16214462  0.13254748  1
  O  O163  1  0.20207996  0.16511298  0.62323339  1
  O  O164  1  0.18234264  0.49398082  0.11934899  1
  O  O165  1  0.19025113  0.48763831  0.62627685  1
  O  O166  1  0.18689499  0.83876470  0.12562863  1
  O  O167  1  0.20087349  0.83313548  0.62629823  1
  O  O168  1  0.51675571  0.15745925  0.12566282  1
  O  O169  1  0.53092647  0.16240968  0.62275881  1
  O  O170  1  0.53301327  0.48861905  0.13330517  1
  O  O171  1  0.51547371  0.49678433  0.61495789  1
  O  O172  1  0.53373036  0.82157802  0.12188958  1
  O  O173  1  0.51973316  0.81906616  0.62547595  1
  O  O174  1  0.86817822  0.15366623  0.13171374  1
  O  O175  1  0.85308867  0.15950560  0.61613484  1
  O  O176  1  0.87716102  0.47867902  0.12731506  1
  O  O177  1  0.87273323  0.48094343  0.62369350  1
  O  O178  1  0.85865419  0.82600847  0.11988607  1
  O  O179  1  0.84582385  0.83142722  0.61805778  1
  O  O180  1  0.15063072  0.16743096  0.37511931  1
  O  O181  1  0.14993128  0.16718918  0.86783343  1
  O  O182  1  0.13096986  0.49820038  0.38509823  1
  O  O183  1  0.14652305  0.51012756  0.87292192  1
  O  O184  1  0.14779856  0.83502611  0.37741233  1
  O  O185  1  0.14790923  0.84616026  0.87496814  1
  O  O186  1  0.46587178  0.17377371  0.37662905  1
  O  O187  1  0.46461489  0.16400339  0.87214253  1
  O  O188  1  0.47458173  0.50542492  0.37343796  1
  O  O189  1  0.46606030  0.51832080  0.87261032  1
  O  O190  1  0.45575457  0.84140875  0.37488333  1
  O  O191  1  0.48429939  0.83793817  0.88056002  1
  O  O192  1  0.79862522  0.17708850  0.37366069  1
  O  O193  1  0.81816264  0.17937705  0.88664662  1
  O  O194  1  0.81148883  0.52287833  0.37257561  1
  O  O195  1  0.79808326  0.50227956  0.87500576  1
  O  O196  1  0.79783347  0.84749424  0.37622812  1
  O  O197  1  0.81066963  0.84871928  0.88378899  1
  O  O198  1  0.01285792  0.00188798  0.37908081  1
  O  O199  1  0.03074237  0.00294069  0.88322016  1
  O  O200  1  0.02384067  0.34230880  0.37593068  1
  O  O201  1  0.02220083  0.32848444  0.86972656  1
  O  O202  1  0.01281191  0.67530453  0.36973646  1
  O  O203  1  0.03496629  0.67242583  0.87322598  1
  O  O204  1  0.35090015  0.01167443  0.36924826  1
  O  O205  1  0.35201593  0.01122923  0.87503074  1
  O  O206  1  0.36401305  0.33066328  0.37556460  1
  O  O207  1  0.34040206  0.34672717  0.87311210  1
  O  O208  1  0.36580403  0.68048918  0.37574272  1
  O  O209  1  0.36406223  0.66736717  0.86794808  1
  O  O210  1  0.70051877  0.01566530  0.37836459  1
  O  O211  1  0.69309969  0.00426763  0.87047916  1
  O  O212  1  0.69799001  0.32737707  0.36910196  1
  O  O213  1  0.70408087  0.33747947  0.87665674  1
  O  O214  1  0.70616045  0.67543617  0.37320085  1
  O  O215  1  0.68824733  0.67415811  0.86726652  1
  O  O216  1  0.06371776  0.09560924  0.02559819  1
  O  O217  1  0.07697139  0.09634466  0.51524873  1
  O  O218  1  0.07040673  0.43410865  0.02609556  1
  O  O219  1  0.07360390  0.42826880  0.53179376  1
  O  O220  1  0.07832475  0.76685480  0.01378737  1
  O  O221  1  0.07811912  0.76193026  0.51428831  1
  O  O222  1  0.40641518  0.08862425  0.01742047  1
  O  O223  1  0.40702181  0.09990891  0.52164137  1
  O  O224  1  0.40199208  0.42850414  0.00731084  1
  O  O225  1  0.40355402  0.42366122  0.51491132  1
  O  O226  1  0.41324996  0.76518426  0.01648744  1
  O  O227  1  0.40356012  0.75788437  0.53340505  1
  O  O228  1  0.74917206  0.09357940  0.02433268  1
  O  O229  1  0.73068158  0.10651125  0.51598049  1
  O  O230  1  0.73855570  0.43010211  0.03674510  1
  O  O231  1  0.74276808  0.42041649  0.52021599  1
  O  O232  1  0.74097741  0.76962022  0.02771171  1
  O  O233  1  0.73602824  0.77061729  0.51323585  1
  O  O234  1  0.09678539  0.26371281  0.03128612  1
  O  O235  1  0.10378011  0.26004583  0.52325780  1
  O  O236  1  0.10115318  0.59291416  0.01403618  1
  O  O237  1  0.09038507  0.58345178  0.52580131  1
  O  O238  1  0.09838058  0.93593426  0.01318724  1
  O  O239  1  0.09212857  0.92665873  0.51791448  1
  O  O240  1  0.42586239  0.25236380  0.01059966  1
  O  O241  1  0.42594745  0.25718016  0.52228238  1
  O  O242  1  0.43940954  0.60370760  0.01876251  1
  O  O243  1  0.43601361  0.59419493  0.51281330  1
  O  O244  1  0.43649215  0.93104388  0.02390271  1
  O  O245  1  0.42075726  0.92290898  0.52465243  1
  O  O246  1  0.77441751  0.26009720  0.02720000  1
  O  O247  1  0.76857213  0.25854023  0.51921223  1
  O  O248  1  0.76539816  0.60012035  0.03047220  1
  O  O249  1  0.76861894  0.60322702  0.52935065  1
  O  O250  1  0.76633211  0.93120383  0.02718265  1
  O  O251  1  0.76464567  0.94007570  0.51151389  1
  O  O252  1  0.24439428  0.07726214  0.27330252  1
  O  O253  1  0.23631464  0.07142297  0.77865266  1
  O  O254  1  0.24139254  0.39928989  0.26019819  1
  O  O255  1  0.23607179  0.40833677  0.75683514  1
  O  O256  1  0.24567409  0.75266295  0.27015965  1
  O  O257  1  0.23654022  0.73153870  0.77382270  1
  O  O258  1  0.57287741  0.08243789  0.27041817  1
  O  O259  1  0.57230260  0.07642461  0.76767707  1
  O  O260  1  0.56788370  0.39339803  0.27684220  1
  O  O261  1  0.58323895  0.41506642  0.77168298  1
  O  O262  1  0.57320167  0.73497815  0.28715371  1
  O  O263  1  0.56602565  0.72871006  0.77057311  1
  O  O264  1  0.89390939  0.07408157  0.27391418  1
  O  O265  1  0.90211209  0.06999226  0.77881099  1
  O  O266  1  0.89957360  0.40259643  0.28309051  1
  O  O267  1  0.90877843  0.39439148  0.77248313  1
  O  O268  1  0.89733551  0.72942704  0.26632797  1
  O  O269  1  0.90309756  0.74150122  0.75645842  1
  O  O270  1  0.26895920  0.23410234  0.27474519  1
  O  O271  1  0.26618307  0.22632556  0.76563467  1
  O  O272  1  0.25594639  0.57552709  0.26951195  1
  O  O273  1  0.26380869  0.56945180  0.77743296  1
  O  O274  1  0.26586386  0.90694675  0.27389574  1
  O  O275  1  0.25634368  0.91151502  0.77726193  1
  O  O276  1  0.59289244  0.23769212  0.28092345  1
  O  O277  1  0.58645122  0.23453416  0.76640287  1
  O  O278  1  0.59108568  0.56350174  0.27194503  1
  O  O279  1  0.60008302  0.57481794  0.77661241  1
  O  O280  1  0.60232740  0.89754557  0.27771348  1
  O  O281  1  0.59034967  0.91804200  0.75951611  1
  O  O282  1  0.91787333  0.23762625  0.27455649  1
  O  O283  1  0.93105651  0.24340971  0.76725524  1
  O  O284  1  0.93762967  0.57218793  0.27176994  1
  O  O285  1  0.93107314  0.56861050  0.76296779  1
  O  O286  1  0.91701077  0.91579528  0.27011630  1
  O  O287  1  0.91891382  0.91504651  0.76705473  1
  O  O288  1  0.27114788  0.23113036  0.47881342  1
  O  O289  1  0.26510149  0.23015210  0.97570964  1
  O  O290  1  0.25110379  0.57128780  0.48531158  1
  O  O291  1  0.26132058  0.56506628  0.97047888  1
  O  O292  1  0.26011975  0.90273462  0.48211124  1
  O  O293  1  0.26031415  0.91020701  0.97829654  1
  O  O294  1  0.58917251  0.23569128  0.46799958  1
  O  O295  1  0.58498037  0.23840942  0.98505129  1
  O  O296  1  0.58707068  0.56792060  0.47529037  1
  O  O297  1  0.60112298  0.56848788  0.96963814  1
  O  O298  1  0.60428345  0.90901282  0.47429437  1
  O  O299  1  0.59671385  0.89883750  0.99070671  1
  O  O300  1  0.91988320  0.23636389  0.47996175  1
  O  O301  1  0.93119455  0.22718599  0.99529885  1
  O  O302  1  0.93305138  0.56918254  0.47069613  1
  O  O303  1  0.93377826  0.57123290  0.99156714  1
  O  O304  1  0.92128913  0.91257794  0.47825580  1
  O  O305  1  0.92430916  0.91276131  0.97454804  1
  O  O306  1  0.24418736  0.08017905  0.48213390  1
  O  O307  1  0.24057686  0.06583996  0.97720675  1
  O  O308  1  0.23645311  0.39995210  0.48862926  1
  O  O309  1  0.22785474  0.40402931  0.99334880  1
  O  O310  1  0.24185155  0.74878807  0.48070877  1
  O  O311  1  0.23256642  0.73938296  0.97459329  1
  O  O312  1  0.57760714  0.07948758  0.47179394  1
  O  O313  1  0.56922603  0.07714289  0.98746977  1
  O  O314  1  0.56268084  0.40045215  0.47463257  1
  O  O315  1  0.58024218  0.41061252  0.97211654  1
  O  O316  1  0.57092189  0.73561011  0.46834003  1
  O  O317  1  0.56414578  0.73650647  0.97946453  1
  O  O318  1  0.90008108  0.06956943  0.47586296  1
  O  O319  1  0.89836036  0.06362989  0.98199152  1
  O  O320  1  0.90498027  0.40197637  0.46935976  1
  O  O321  1  0.89700178  0.39271120  0.97526717  1
  O  O322  1  0.89123907  0.74153542  0.48327740  1
  O  O323  1  0.90077725  0.74447521  0.98620843  1
  O  O324  1  0.10055729  0.25995408  0.22501962  1
  O  O325  1  0.10412789  0.26443112  0.72223684  1
  O  O326  1  0.08691554  0.59805708  0.23001933  1
  O  O327  1  0.09647241  0.58708457  0.73170798  1
  O  O328  1  0.09237929  0.92374773  0.24014098  1
  O  O329  1  0.10016473  0.92378115  0.74155664  1
  O  O330  1  0.42988425  0.26242973  0.24033359  1
  O  O331  1  0.42411392  0.24689120  0.72486628  1
  O  O332  1  0.44115039  0.58844478  0.23287869  1
  O  O333  1  0.43185033  0.60675811  0.72689797  1
  O  O334  1  0.43086032  0.93728856  0.22408492  1
  O  O335  1  0.41311003  0.92257888  0.73382878  1
  O  O336  1  0.76628418  0.26657945  0.22832920  1
  O  O337  1  0.76657623  0.25894586  0.72643769  1
  O  O338  1  0.76190268  0.59391712  0.21065290  1
  O  O339  1  0.75979461  0.60428306  0.72193454  1
  O  O340  1  0.75890915  0.93116219  0.21312291  1
  O  O341  1  0.75245018  0.93433119  0.73789991  1
  O  O342  1  0.07233330  0.10273120  0.23167506  1
  O  O343  1  0.07901398  0.09846767  0.73496605  1
  O  O344  1  0.06971285  0.43072256  0.22144543  1
  O  O345  1  0.07329258  0.42706792  0.72235295  1
  O  O346  1  0.07044587  0.76258298  0.23326172  1
  O  O347  1  0.08323882  0.76328388  0.72961728  1
  O  O348  1  0.40807303  0.09433000  0.22877622  1
  O  O349  1  0.39665935  0.09415584  0.72708921  1
  O  O350  1  0.40671485  0.42241454  0.23444331  1
  O  O351  1  0.40702065  0.42456578  0.74023016  1
  O  O352  1  0.41735527  0.75129255  0.22137037  1
  O  O353  1  0.39658387  0.76010805  0.72468602  1
  O  O354  1  0.74361062  0.09652032  0.23155327  1
  O  O355  1  0.73144638  0.09812881  0.73151764  1
  O  O356  1  0.73229831  0.42390305  0.22326259  1
  O  O357  1  0.74924477  0.41913152  0.71841679  1
  O  O358  1  0.73390760  0.76571017  0.21596685  1
  O  O359  1  0.73385569  0.75770561  0.72591297  1
