# generated using pymatgen
data_BaLaInIrO6
_symmetry_space_group_name_H-M   'P 1'
_cell_length_a   17.52730404
_cell_length_b   17.55965807
_cell_length_c   16.50181751
_cell_angle_alpha   90.03243714
_cell_angle_beta   90.01654299
_cell_angle_gamma   89.98907658
_symmetry_Int_Tables_number   1
_chemical_formula_structural   BaLaInIrO6
_chemical_formula_sum   'Ba36 La36 In36 Ir36 O216'
_cell_volume   5078.82044999
_cell_formula_units_Z   36
loop_
 _symmetry_equiv_pos_site_id
 _symmetry_equiv_pos_as_xyz
  1  'x, y, z'
loop_
 _atom_site_type_symbol
 _atom_site_label
 _atom_site_symmetry_multiplicity
 _atom_site_fract_x
 _atom_site_fract_y
 _atom_site_fract_z
 _atom_site_occupancy
  Ba  Ba0  1  0.16711630  0.67252873  0.62508865  1
  Ba  Ba1  1  0.16430387  0.34185951  0.62635214  1
  Ba  Ba2  1  0.83492268  0.00850072  0.12728329  1
  Ba  Ba3  1  0.99830555  0.50878022  0.12800563  1
  Ba  Ba4  1  0.66684322  0.51036359  0.62663940  1
  Ba  Ba5  1  0.83335433  0.32580587  0.37235853  1
  Ba  Ba6  1  0.83350299  0.65726507  0.37332137  1
  Ba  Ba7  1  0.33070978  0.15226949  0.87047951  1
  Ba  Ba8  1  0.16937228  0.65721301  0.87362729  1
  Ba  Ba9  1  0.49803175  0.67225664  0.61942991  1
  Ba  Ba10  1  0.66596701  0.82577025  0.37044088  1
  Ba  Ba11  1  0.83184353  0.67381353  0.12728253  1
  Ba  Ba12  1  0.83017778  0.99073780  0.37143061  1
  Ba  Ba13  1  0.16743891  0.32660452  0.87538378  1
  Ba  Ba14  1  0.49877035  0.34223621  0.62609759  1
  Ba  Ba15  1  0.00375774  0.49188703  0.87579739  1
  Ba  Ba16  1  0.83716426  0.32602884  0.87662355  1
  Ba  Ba17  1  0.50382864  0.65611096  0.37397847  1
  Ba  Ba18  1  1.00070020  0.17468817  0.12669765  1
  Ba  Ba19  1  0.50303536  0.32005455  0.37952054  1
  Ba  Ba20  1  -0.00504900  0.82158982  0.37227669  1
  Ba  Ba21  1  0.16567437  0.65338552  0.37659253  1
  Ba  Ba22  1  0.66892471  0.50355218  0.12310673  1
  Ba  Ba23  1  0.66858223  0.17288607  0.12741870  1
  Ba  Ba24  1  0.66108634  0.49042245  0.37221467  1
  Ba  Ba25  1  0.66330902  0.15458862  0.37483517  1
  Ba  Ba26  1  0.50404405  0.32059534  0.87381616  1
  Ba  Ba27  1  0.66619971  0.15705652  0.87581861  1
  Ba  Ba28  1  0.33124244  0.49091597  0.37741037  1
  Ba  Ba29  1  0.16644381  0.32491488  0.37596602  1
  Ba  Ba30  1  0.99817036  0.50690256  0.62861654  1
  Ba  Ba31  1  -0.00318918  0.16263694  0.87474344  1
  Ba  Ba32  1  0.83575065  0.99745688  0.87780021  1
  Ba  Ba33  1  0.00258691  0.82881038  0.87754830  1
  Ba  Ba34  1  0.33628532  0.16033200  0.37697493  1
  Ba  Ba35  1  0.99594169  0.17621525  0.62333758  1
  La  La36  1  0.82746047  0.01685882  0.62196811  1
  La  La37  1  0.33863138  0.18560457  0.12794316  1
  La  La38  1  0.82712864  0.33969985  0.12097802  1
  La  La39  1  0.82874527  0.68434818  0.62586130  1
  La  La40  1  0.67346932  0.18426709  0.62041584  1
  La  La41  1  0.83167356  0.34724686  0.62374945  1
  La  La42  1  0.49823719  0.01247450  0.62364240  1
  La  La43  1  0.99732276  0.84533152  0.12602398  1
  La  La44  1  -0.00840823  0.15694808  0.37654262  1
  La  La45  1  0.50043126  0.01548303  0.12933811  1
  La  La46  1  0.66424759  0.48182164  0.87365501  1
  La  La47  1  0.16567081  0.01395301  0.62210805  1
  La  La48  1  0.15930362  0.68294729  0.12783494  1
  La  La49  1  0.33548259  0.18088131  0.62500791  1
  La  La50  1  0.16546050  0.99817771  0.87262341  1
  La  La51  1  0.99934269  0.84399326  0.62536927  1
  La  La52  1  0.50329371  0.65158198  0.87355327  1
  La  La53  1  0.33939798  0.84868287  0.62632020  1
  La  La54  1  0.33538395  0.51228714  0.62037110  1
  La  La55  1  0.49524666  0.34844138  0.13314949  1
  La  La56  1  0.32574562  0.82049228  0.37335039  1
  La  La57  1  0.16543702  0.35185490  0.12503420  1
  La  La58  1  0.33613136  0.84962669  0.12091219  1
  La  La59  1  0.67197034  0.85103018  0.12741109  1
  La  La60  1  0.33002716  0.82158384  0.87335308  1
  La  La61  1  0.66666290  0.82042564  0.87633732  1
  La  La62  1  0.33542567  0.51119644  0.12837296  1
  La  La63  1  0.16882489  0.98801294  0.37281745  1
  La  La64  1  0.16232908  0.01449679  0.12505150  1
  La  La65  1  0.66960707  0.84747656  0.62203712  1
  La  La66  1  0.32431933  0.48796354  0.86708990  1
  La  La67  1  0.51024113  0.98892039  0.37673276  1
  La  La68  1  0.84385062  0.65485354  0.87613423  1
  La  La69  1  -0.00469768  0.48598871  0.38207120  1
  La  La70  1  0.49853165  0.68034056  0.13017873  1
  La  La71  1  0.50530327  0.99319826  0.87784594  1
  In  In72  1  0.00356924  0.00015462  0.25148461  1
  In  In73  1  0.83409514  0.49839546  0.25283066  1
  In  In74  1  0.16515173  0.16497999  0.74786345  1
  In  In75  1  0.83192389  0.50386513  0.75080245  1
  In  In76  1  0.33583773  0.00192789  0.49603767  1
  In  In77  1  0.49695855  0.16558853  0.00184429  1
  In  In78  1  0.33104483  0.33293808  0.49828044  1
  In  In79  1  0.16949975  0.50464957  0.00287331  1
  In  In80  1  0.50052842  0.49898465  0.50014778  1
  In  In81  1  0.16615120  0.83445649  0.50143314  1
  In  In82  1  0.33471887  0.33470331  0.00188546  1
  In  In83  1  0.66529901  0.66682216  0.24561122  1
  In  In84  1  0.50139364  0.83355484  0.75067568  1
  In  In85  1  0.66838081  0.66816972  0.50051934  1
  In  In86  1  0.33236959  0.66975538  0.49802536  1
  In  In87  1  0.33412250  0.33315292  0.74828273  1
  In  In88  1  0.50186439  0.16180752  0.74800190  1
  In  In89  1  0.16937719  0.83608906  -0.00129472  1
  In  In90  1  -0.00138671  -0.00103975  0.49962988  1
  In  In91  1  -0.00060900  0.66986153  0.75130593  1
  In  In92  1  0.83146853  0.83325858  0.00062919  1
  In  In93  1  0.83189391  0.50095860  -0.00018529  1
  In  In94  1  0.49674735  0.83447779  0.24849919  1
  In  In95  1  0.66357781  0.32926708  0.00059936  1
  In  In96  1  0.00140452  0.33142239  0.25098595  1
  In  In97  1  0.82951249  0.16802076  0.75056135  1
  In  In98  1  -0.00370093  0.66640411  0.50096553  1
  In  In99  1  -0.00136599  -0.00053469  0.74760634  1
  In  In100  1  0.00016541  0.33435414  0.00447241  1
  In  In101  1  0.17110703  0.16717447  0.00253991  1
  In  In102  1  0.33473071  0.00263681  0.24933693  1
  In  In103  1  0.50103769  0.83522499  -0.00106849  1
  In  In104  1  0.49793495  0.50288178  -0.00059128  1
  In  In105  1  0.49803452  0.50206362  0.75104361  1
  In  In106  1  0.33550600  0.66785048  0.00172053  1
  In  In107  1  0.83142248  0.83744990  0.75170482  1
  Ir  Ir108  1  0.49948764  0.16688573  0.25133036  1
  Ir  Ir109  1  0.32989382  0.33258188  0.25008976  1
  Ir  Ir110  1  0.00412404  0.66968773  0.24758694  1
  Ir  Ir111  1  0.66435191  -0.00311321  0.74786401  1
  Ir  Ir112  1  -0.00069304  0.33429334  0.74817407  1
  Ir  Ir113  1  0.17454998  0.83697953  0.74666250  1
  Ir  Ir114  1  0.66492885  0.66865005  -0.00718154  1
  Ir  Ir115  1  0.33473041  -0.00209335  0.00023430  1
  Ir  Ir116  1  0.83368836  0.49647581  0.50187231  1
  Ir  Ir117  1  0.66973185  0.33091080  0.49981977  1
  Ir  Ir118  1  0.83217705  0.16585423  0.25257848  1
  Ir  Ir119  1  0.32806045  0.66725640  0.24588864  1
  Ir  Ir120  1  0.83468985  0.83259669  0.24885822  1
  Ir  Ir121  1  0.00419220  0.00090089  0.00340985  1
  Ir  Ir122  1  0.00083602  0.67191029  0.00482434  1
  Ir  Ir123  1  0.16369153  0.16498222  0.49507153  1
  Ir  Ir124  1  0.66494102  0.00046177  0.25106977  1
  Ir  Ir125  1  0.83247295  0.83444311  0.49957611  1
  Ir  Ir126  1  0.66599087  -0.00191514  -0.00200444  1
  Ir  Ir127  1  0.16216205  0.49829357  0.50068041  1
  Ir  Ir128  1  0.17090769  0.83342613  0.24805604  1
  Ir  Ir129  1  0.66856273  0.67207159  0.75403638  1
  Ir  Ir130  1  0.16851248  0.50121200  0.74780970  1
  Ir  Ir131  1  0.50480637  0.16268219  0.50257310  1
  Ir  Ir132  1  0.66145996  0.32912489  0.25112046  1
  Ir  Ir133  1  0.33436082  -0.00475750  0.74762420  1
  Ir  Ir134  1  0.83444499  0.16295578  0.00579836  1
  Ir  Ir135  1  0.33433552  0.67229679  0.75022387  1
  Ir  Ir136  1  0.49594501  0.49746367  0.24738547  1
  Ir  Ir137  1  0.16996055  0.50231348  0.25188232  1
  Ir  Ir138  1  0.17004673  0.16604763  0.25219923  1
  Ir  Ir139  1  -0.00085627  0.33065638  0.50126347  1
  Ir  Ir140  1  0.50016707  0.83881259  0.50238696  1
  Ir  Ir141  1  0.66391329  -0.00190399  0.50278099  1
  Ir  Ir142  1  0.83161239  0.16695186  0.49575172  1
  Ir  Ir143  1  0.66839032  0.33310177  0.74544942  1
  O  O144  1  0.30137473  0.32554523  0.13296015  1
  O  O145  1  0.31473103  0.31595236  0.62202629  1
  O  O146  1  0.29674412  0.65291888  0.12890207  1
  O  O147  1  0.31718043  0.65648100  0.63068406  1
  O  O148  1  0.29928146  0.98857734  0.11951560  1
  O  O149  1  0.30252282  0.98671648  0.62693460  1
  O  O150  1  0.63347472  0.33208683  0.13207256  1
  O  O151  1  0.64851200  0.32614527  0.62190596  1
  O  O152  1  0.63105858  0.66095533  0.11064600  1
  O  O153  1  0.64755302  0.67187074  0.63512746  1
  O  O154  1  0.63602627  0.99018387  0.12428596  1
  O  O155  1  0.63369479  0.98524210  0.62532701  1
  O  O156  1  0.96224529  0.33091881  0.13017658  1
  O  O157  1  0.96968555  0.33290095  0.62312578  1
  O  O158  1  0.98278402  0.67456802  0.12651793  1
  O  O159  1  0.96438663  0.66637839  0.62624283  1
  O  O160  1  0.98825329  0.98945618  0.12427309  1
  O  O161  1  0.96362849  0.98483401  0.62092140  1
  O  O162  1  0.20306897  0.14946025  0.13403695  1
  O  O163  1  0.19797935  0.15256340  0.61493284  1
  O  O164  1  0.20062842  0.49806087  0.13383641  1
  O  O165  1  0.19606794  0.50012737  0.62351429  1
  O  O166  1  0.20105094  0.82340380  0.12902101  1
  O  O167  1  0.20523121  0.82982049  0.62897699  1
  O  O168  1  0.51855062  0.15341810  0.13209751  1
  O  O169  1  0.53587094  0.15005166  0.62041602  1
  O  O170  1  0.51797272  0.49106946  0.12908380  1
  O  O171  1  0.51626196  0.50863022  0.62791359  1
  O  O172  1  0.53613786  0.82383283  0.12142674  1
  O  O173  1  0.53229045  0.83387434  0.62227820  1
  O  O174  1  0.85248305  0.16914784  0.13185756  1
  O  O175  1  0.84431302  0.15811765  0.61606483  1
  O  O176  1  0.84661236  0.48165904  0.12662024  1
  O  O177  1  0.84819494  0.48739801  0.62195183  1
  O  O178  1  0.86168125  0.83124384  0.12827189  1
  O  O179  1  0.85994880  0.82602139  0.61944702  1
  O  O180  1  0.13043774  0.17028882  0.37317031  1
  O  O181  1  0.15022678  0.15216437  0.87596649  1
  O  O182  1  0.13316649  0.49917613  0.37692995  1
  O  O183  1  0.15609656  0.50184658  0.86973916  1
  O  O184  1  0.14511631  0.84753038  0.36693045  1
  O  O185  1  0.15386905  0.85325296  0.86789093  1
  O  O186  1  0.48342085  0.16379865  0.37876316  1
  O  O187  1  0.48378158  0.15048131  0.87461139  1
  O  O188  1  0.48192068  0.49732377  0.36715436  1
  O  O189  1  0.46200502  0.51254538  0.87473356  1
  O  O190  1  0.46642315  0.84811275  0.37993595  1
  O  O191  1  0.46633347  0.85286920  0.87473244  1
  O  O192  1  0.81166736  0.16676634  0.37274856  1
  O  O193  1  0.81825183  0.16313363  0.88368787  1
  O  O194  1  0.81286262  0.49781910  0.38407246  1
  O  O195  1  0.79777911  0.51534673  0.87475559  1
  O  O196  1  0.81171514  0.83494708  0.37487173  1
  O  O197  1  0.80087621  0.84395401  0.87678261  1
  O  O198  1  0.03213798  0.00705433  0.37527171  1
  O  O199  1  0.02802847  0.00405472  0.87987391  1
  O  O200  1  0.01828165  0.33536515  0.38127949  1
  O  O201  1  0.01710711  0.33052864  0.86913403  1
  O  O202  1  0.01764961  0.66918312  0.36848450  1
  O  O203  1  0.01993577  0.67413382  0.88501766  1
  O  O204  1  0.37452350  0.00408736  0.37263258  1
  O  O205  1  0.36789335  0.00010869  0.87573895  1
  O  O206  1  0.35152385  0.33147773  0.37038630  1
  O  O207  1  0.35375323  0.35122974  0.87495940  1
  O  O208  1  0.35462954  0.68197713  0.36450954  1
  O  O209  1  0.36385280  0.68566195  0.87120303  1
  O  O210  1  0.68430103  0.00093229  0.37728530  1
  O  O211  1  0.68864044  0.00598426  0.87258872  1
  O  O212  1  0.68475606  0.32759866  0.37828015  1
  O  O213  1  0.68465773  0.33471846  0.86534345  1
  O  O214  1  0.68218488  0.67191374  0.37372068  1
  O  O215  1  0.70437820  0.68288466  0.87360007  1
  O  O216  1  0.07861403  0.08575455  0.02555287  1
  O  O217  1  0.07637003  0.09513981  0.51615955  1
  O  O218  1  0.07970063  0.42684776  0.02570966  1
  O  O219  1  0.06410602  0.42890300  0.51279445  1
  O  O220  1  0.06945017  0.76594419  0.02781228  1
  O  O221  1  0.06723039  0.76496055  0.52357692  1
  O  O222  1  0.39521916  0.09295488  0.02930890  1
  O  O223  1  0.40956059  0.09629145  0.52916093  1
  O  O224  1  0.40408938  0.43158024  0.03480763  1
  O  O225  1  0.40231959  0.42803596  0.52353108  1
  O  O226  1  0.40367142  0.76788804  0.03106084  1
  O  O227  1  0.40542611  0.77428707  0.52245605  1
  O  O228  1  0.73948449  0.08998650  0.01907529  1
  O  O229  1  0.73553264  0.09211999  0.52601702  1
  O  O230  1  0.74329171  0.41669816  0.01254715  1
  O  O231  1  0.74305339  0.41971793  0.52604749  1
  O  O232  1  0.72468295  0.76586734  0.02097308  1
  O  O233  1  0.74086296  0.76694589  0.52867018  1
  O  O234  1  0.10031409  0.26407897  0.02773611  1
  O  O235  1  0.09217767  0.25839753  0.51939035  1
  O  O236  1  0.09877615  0.60735291  0.02498309  1
  O  O237  1  0.09061903  0.58643773  0.51622932  1
  O  O238  1  0.09864236  0.93302556  0.02183773  1
  O  O239  1  0.09667497  0.93006886  0.53017584  1
  O  O240  1  0.43168007  0.26441606  0.03462983  1
  O  O241  1  0.43033540  0.24837699  0.52106352  1
  O  O242  1  0.44242944  0.60985293  0.02093540  1
  O  O243  1  0.41570911  0.58860268  0.51027176  1
  O  O244  1  0.43177078  0.93891954  0.02686981  1
  O  O245  1  0.43285840  0.92911927  0.52963803  1
  O  O246  1  0.76608442  0.25492681  0.02213317  1
  O  O247  1  0.76405251  0.26125220  0.52556846  1
  O  O248  1  0.75402173  0.60208529  0.01434696  1
  O  O249  1  0.77193639  0.59370730  0.52511733  1
  O  O250  1  0.75277322  0.92610571  0.02446122  1
  O  O251  1  0.76097962  0.93006297  0.52749500  1
  O  O252  1  0.23225787  0.06771383  0.27701740  1
  O  O253  1  0.23783817  0.05552048  0.76667412  1
  O  O254  1  0.23724967  0.40504470  0.26881163  1
  O  O255  1  0.23922463  0.41431902  0.76532439  1
  O  O256  1  0.23887322  0.74049563  0.27272199  1
  O  O257  1  0.24219954  0.74296590  0.77151769  1
  O  O258  1  0.56396777  0.06633150  0.26981364  1
  O  O259  1  0.56405134  0.05378054  0.76399615  1
  O  O260  1  0.56251039  0.39872886  0.26449757  1
  O  O261  1  0.58045754  0.40817062  0.76945714  1
  O  O262  1  0.56594214  0.73750670  0.25779698  1
  O  O263  1  0.57306688  0.73584942  0.78216275  1
  O  O264  1  0.91043200  0.08031685  0.27083309  1
  O  O265  1  0.90083018  0.07287656  0.75338264  1
  O  O266  1  0.92091942  0.41820345  0.28017413  1
  O  O267  1  0.91084509  0.40633795  0.75863822  1
  O  O268  1  0.90726175  0.73887250  0.26606104  1
  O  O269  1  0.89340922  0.73374668  0.76935036  1
  O  O270  1  0.26494067  0.23280923  0.26452770  1
  O  O271  1  0.25968542  0.23597587  0.75820565  1
  O  O272  1  0.26211199  0.57408048  0.27167458  1
  O  O273  1  0.26828982  0.57019704  0.76648713  1
  O  O274  1  0.26476765  0.89986456  0.27295473  1
  O  O275  1  0.27473296  0.89685442  0.76982074  1
  O  O276  1  0.58995423  0.23782705  0.26838310  1
  O  O277  1  0.60127083  0.23883481  0.75334210  1
  O  O278  1  0.58283775  0.57000992  0.25865866  1
  O  O279  1  0.60325763  0.57742842  0.78237969  1
  O  O280  1  0.58902215  0.91580355  0.26718857  1
  O  O281  1  0.60405945  0.90058316  0.77403849  1
  O  O282  1  0.92651342  0.23207650  0.27503887  1
  O  O283  1  0.92459693  0.24759001  0.75904587  1
  O  O284  1  0.93720292  0.57718717  0.26825166  1
  O  O285  1  0.92292151  0.57789616  0.77797256  1
  O  O286  1  0.92805562  0.90267819  0.25842030  1
  O  O287  1  0.93573439  0.89800866  0.75909576  1
  O  O288  1  0.25391009  0.23327270  0.48458306  1
  O  O289  1  0.27379261  0.22834124  0.99500892  1
  O  O290  1  0.25135360  0.57005646  0.48993657  1
  O  O291  1  0.27607097  0.56356317  0.98035367  1
  O  O292  1  0.26264589  0.90893583  0.46790528  1
  O  O293  1  0.27790378  0.89939964  0.98111148  1
  O  O294  1  0.60362803  0.23037565  0.49324453  1
  O  O295  1  0.59280291  0.23600460  0.98492460  1
  O  O296  1  0.59273121  0.57662885  0.48804467  1
  O  O297  1  0.60059274  0.57652006  0.96211228  1
  O  O298  1  0.59222315  0.90844006  0.47752692  1
  O  O299  1  0.59947638  0.90638588  0.97012677  1
  O  O300  1  0.92999867  0.23375867  0.47606785  1
  O  O301  1  0.92182084  0.23425892  0.99133953  1
  O  O302  1  0.92670718  0.56260510  0.47785299  1
  O  O303  1  0.92727714  0.58401541  0.98534349  1
  O  O304  1  0.92193895  0.90223089  0.48121287  1
  O  O305  1  0.93323170  0.90959927  0.99235467  1
  O  O306  1  0.22897568  0.06987268  0.47336086  1
  O  O307  1  0.23638579  0.05371839  0.98014629  1
  O  O308  1  0.23360066  0.41157149  0.48737735  1
  O  O309  1  0.23619245  0.40319165  0.99543326  1
  O  O310  1  0.24494116  0.74690952  0.47571324  1
  O  O311  1  0.24159318  0.74213641  0.98161628  1
  O  O312  1  0.56552880  0.06212545  0.48303406  1
  O  O313  1  0.56693756  0.05893939  0.98856678  1
  O  O314  1  0.57963783  0.40123989  0.48775380  1
  O  O315  1  0.57764755  0.41483300  0.97496766  1
  O  O316  1  0.56931904  0.75170340  0.48355229  1
  O  O317  1  0.57347985  0.73627792  0.96399260  1
  O  O318  1  0.90565167  0.07901310  0.47729243  1
  O  O319  1  0.91131799  0.07178663  0.98844565  1
  O  O320  1  0.90406975  0.40087759  0.48506425  1
  O  O321  1  0.91014217  0.41066228  0.98127456  1
  O  O322  1  0.89631619  0.74062010  0.48652123  1
  O  O323  1  0.90488932  0.73652406  0.98055753  1
  O  O324  1  0.10519148  0.26015319  0.22545548  1
  O  O325  1  0.08474986  0.26006324  0.73490144  1
  O  O326  1  0.10216799  0.60246023  0.22669937  1
  O  O327  1  0.09586776  0.59059082  0.73569654  1
  O  O328  1  0.10563517  0.92687633  0.22400571  1
  O  O329  1  0.10835248  0.92835382  0.72308311  1
  O  O330  1  0.42749345  0.26329648  0.22427299  1
  O  O331  1  0.42545778  0.25141654  0.73086274  1
  O  O332  1  0.42272313  0.59405628  0.21777470  1
  O  O333  1  0.42789036  0.60906088  0.74261713  1
  O  O334  1  0.42563710  0.92691692  0.21222127  1
  O  O335  1  0.42975463  0.93222794  0.72070583  1
  O  O336  1  0.76076951  0.26149841  0.22764018  1
  O  O337  1  0.75963117  0.26373338  0.71959860  1
  O  O338  1  0.75551678  0.58806582  0.23413549  1
  O  O339  1  0.76364655  0.61022186  0.72909475  1
  O  O340  1  0.75570538  0.92304936  0.22621405  1
  O  O341  1  0.75993212  0.93562979  0.71758720  1
  O  O342  1  0.08340164  0.09416521  0.23228045  1
  O  O343  1  0.08003328  0.08394867  0.71796424  1
  O  O344  1  0.08562033  0.42630225  0.22923797  1
  O  O345  1  0.07573393  0.42896502  0.73303535  1
  O  O346  1  0.07458241  0.76715667  0.22004782  1
  O  O347  1  0.07517076  0.77287824  0.72628465  1
  O  O348  1  0.40675444  0.09972212  0.22398714  1
  O  O349  1  0.39840278  0.08862419  0.71750087  1
  O  O350  1  0.39906635  0.42632504  0.22386751  1
  O  O351  1  0.39599893  0.43818541  0.72631089  1
  O  O352  1  0.39607614  0.75966090  0.21886134  1
  O  O353  1  0.39615136  0.76933235  0.72854697  1
  O  O354  1  0.74085507  0.08915906  0.23405620  1
  O  O355  1  0.72705140  0.09305267  0.72114021  1
  O  O356  1  0.73905057  0.41092965  0.23546801  1
  O  O357  1  0.73875019  0.42377687  0.73727406  1
  O  O358  1  0.73931946  0.76797858  0.22345695  1
  O  O359  1  0.72693957  0.77093422  0.72904281  1
