# generated using pymatgen
data_BaLaInIrO6
_symmetry_space_group_name_H-M   'P 1'
_cell_length_a   17.51720735
_cell_length_b   17.54715326
_cell_length_c   16.47943191
_cell_angle_alpha   90.00514670
_cell_angle_beta   90.00886671
_cell_angle_gamma   89.97626162
_symmetry_Int_Tables_number   1
_chemical_formula_structural   BaLaInIrO6
_chemical_formula_sum   'Ba36 La36 In36 Ir36 O216'
_cell_volume   5065.39983572
_cell_formula_units_Z   36
loop_
 _symmetry_equiv_pos_site_id
 _symmetry_equiv_pos_as_xyz
  1  'x, y, z'
loop_
 _atom_site_type_symbol
 _atom_site_label
 _atom_site_symmetry_multiplicity
 _atom_site_fract_x
 _atom_site_fract_y
 _atom_site_fract_z
 _atom_site_occupancy
  Ba  Ba0  1  0.16989392  0.67274134  0.12296390  1
  Ba  Ba1  1  0.50103233  0.00640981  0.62683989  1
  Ba  Ba2  1  0.83107744  0.32485285  0.87211550  1
  Ba  Ba3  1  0.83825036  0.65199463  0.37840038  1
  Ba  Ba4  1  0.83421224  0.32303772  0.37229960  1
  Ba  Ba5  1  0.33206037  0.82752202  0.37829241  1
  Ba  Ba6  1  0.50009541  0.33963470  0.62697036  1
  Ba  Ba7  1  0.16046560  0.34571718  0.12576240  1
  Ba  Ba8  1  0.66829128  0.17764983  0.62298405  1
  Ba  Ba9  1  0.16497203  0.98709274  0.37672517  1
  Ba  Ba10  1  0.66300085  0.82937105  0.87182388  1
  Ba  Ba11  1  0.16949702  0.00585450  0.12418690  1
  Ba  Ba12  1  0.49825008  0.32148055  0.87803463  1
  Ba  Ba13  1  -0.00367637  0.15898918  0.87751542  1
  Ba  Ba14  1  0.16793018  0.66190816  0.37624669  1
  Ba  Ba15  1  0.66220365  0.17544020  0.12635462  1
  Ba  Ba16  1  0.99832485  0.51334910  0.62484352  1
  Ba  Ba17  1  0.83014607  0.67900886  0.62484218  1
  Ba  Ba18  1  1.00196218  0.17370978  0.62821772  1
  Ba  Ba19  1  0.83350344  0.99450023  0.87113111  1
  Ba  Ba20  1  0.66459535  0.16013137  0.87358691  1
  Ba  Ba21  1  0.66727385  0.15873718  0.37324033  1
  Ba  Ba22  1  0.49948722  0.99082227  0.38236148  1
  Ba  Ba23  1  0.33550282  0.82913006  0.86820526  1
  Ba  Ba24  1  0.00046988  0.48788547  0.87081632  1
  Ba  Ba25  1  0.32893547  0.49146137  0.87837540  1
  Ba  Ba26  1  0.16841136  0.32187106  0.37663084  1
  Ba  Ba27  1  0.50339922  0.65927743  0.37695312  1
  Ba  Ba28  1  0.33158706  0.51260902  0.12674772  1
  Ba  Ba29  1  0.83115004  0.67362399  0.12771770  1
  Ba  Ba30  1  0.66905686  0.49028490  0.37533056  1
  Ba  Ba31  1  0.83542546  0.33761707  0.12195132  1
  Ba  Ba32  1  0.50511283  0.67531914  0.62109547  1
  Ba  Ba33  1  0.83457072  0.01443614  0.62408609  1
  Ba  Ba34  1  0.49737478  0.68057852  0.12482489  1
  Ba  Ba35  1  0.16253047  0.01283474  0.62220345  1
  La  La36  1  0.49445280  0.34890399  0.12562315  1
  La  La37  1  0.33150989  0.83541964  0.14033816  1
  La  La38  1  0.50408235  0.64628242  0.87117919  1
  La  La39  1  0.33125238  0.49067883  0.37835319  1
  La  La40  1  0.16959159  0.98683586  0.86834520  1
  La  La41  1  -0.00775350  0.82138414  0.87266722  1
  La  La42  1  -0.00223664  0.15280445  0.37678542  1
  La  La43  1  0.33570873  0.84872995  0.61953777  1
  La  La44  1  0.33629820  0.17897712  0.62273421  1
  La  La45  1  0.84180991  0.98692362  0.37907570  1
  La  La46  1  0.84095758  0.65308024  0.87248835  1
  La  La47  1  -0.00888775  0.48379297  0.37465812  1
  La  La48  1  1.00866282  0.51564596  0.12921095  1
  La  La49  1  0.67494427  0.51087842  0.62729712  1
  La  La50  1  0.33961601  0.51735449  0.62508406  1
  La  La51  1  0.32878010  0.15596670  0.87358209  1
  La  La52  1  0.33741440  0.18155279  0.12780762  1
  La  La53  1  0.66375985  0.48264395  0.87608246  1
  La  La54  1  0.50628538  -0.00697866  0.12540044  1
  La  La55  1  0.67019796  0.51209543  0.12400354  1
  La  La56  1  0.16266574  0.34381417  0.62596601  1
  La  La57  1  0.82643915  0.34058330  0.62546094  1
  La  La58  1  1.00523732  0.84501460  0.12271119  1
  La  La59  1  0.15990388  0.68537280  0.62703150  1
  La  La60  1  0.17254300  0.31386687  0.87373273  1
  La  La61  1  1.00136683  0.17990050  0.12225604  1
  La  La62  1  0.50068917  0.99607286  0.86973271  1
  La  La63  1  0.32759180  0.14920252  0.37919913  1
  La  La64  1  0.66587917  0.82158888  0.37957782  1
  La  La65  1  0.50898119  0.32074971  0.37143591  1
  La  La66  1  0.67305610  0.85428694  0.62099415  1
  La  La67  1  1.00110802  0.84845424  0.62403335  1
  La  La68  1  0.16835151  0.65462017  0.87369453  1
  La  La69  1  0.82879680  0.01639777  0.12378931  1
  La  La70  1  0.67465861  0.84955629  0.12797539  1
  La  La71  1  -0.00455240  0.81585257  0.37552752  1
  In  In72  1  0.50087252  0.83433907  -0.00299087  1
  In  In73  1  0.33167267  0.33515903  0.74927321  1
  In  In74  1  0.83540484  0.49650814  0.24712218  1
  In  In75  1  0.16455645  0.50297698  0.25636842  1
  In  In76  1  0.33375848  0.33462893  0.50091776  1
  In  In77  1  0.49896912  0.83113526  0.74549259  1
  In  In78  1  0.49466444  0.16223331  0.00216297  1
  In  In79  1  0.67043593  0.66623310  0.50057950  1
  In  In80  1  0.33043004  0.33382243  0.00316012  1
  In  In81  1  0.49997877  0.50212299  0.00196313  1
  In  In82  1  0.66773916  0.66750488  0.24948491  1
  In  In83  1  0.83144962  0.16688853  -0.00028807  1
  In  In84  1  0.33252762  0.66971734  0.50218909  1
  In  In85  1  0.83534168  0.49836570  0.00112316  1
  In  In86  1  0.00126150  0.00095641  0.75012336  1
  In  In87  1  -0.00013557  -0.00170089  0.00026352  1
  In  In88  1  0.33490944  0.33274533  0.25386111  1
  In  In89  1  0.66986026  0.66922540  0.75223039  1
  In  In90  1  0.66700955  -0.00060113  -0.00149967  1
  In  In91  1  0.33473485  0.67390852  -0.00370293  1
  In  In92  1  -0.00250798  -0.00046285  0.24755453  1
  In  In93  1  0.00062950  0.32958825  0.25277997  1
  In  In94  1  0.33271581  -0.00057983  0.25023629  1
  In  In95  1  0.49756939  0.16177772  0.24953200  1
  In  In96  1  0.83520258  0.49855785  0.75067438  1
  In  In97  1  0.83517767  0.16921521  0.49917557  1
  In  In98  1  0.50105682  0.49889366  0.50186072  1
  In  In99  1  0.00179077  0.33415226  -0.00456920  1
  In  In100  1  0.16550720  0.50185406  0.50018099  1
  In  In101  1  0.16700248  0.83222629  -0.00435263  1
  In  In102  1  0.66731045  0.66827573  -0.00247466  1
  In  In103  1  0.33389529  -0.00012073  -0.00214618  1
  In  In104  1  0.49971411  0.16539636  0.50108564  1
  In  In105  1  0.83394861  0.83266137  0.00194142  1
  In  In106  1  0.16693805  0.49980581  0.74828587  1
  In  In107  1  0.16528169  0.83082677  0.25088288  1
  Ir  Ir108  1  0.83564465  0.83654146  0.49927370  1
  Ir  Ir109  1  0.00152929  0.67369060  0.74868484  1
  Ir  Ir110  1  0.50267204  0.83741414  0.49984271  1
  Ir  Ir111  1  0.66314185  0.33247342  0.24831324  1
  Ir  Ir112  1  0.67215860  -0.00082630  0.49676289  1
  Ir  Ir113  1  0.83274521  0.17077237  0.74816842  1
  Ir  Ir114  1  0.66166711  0.33418266  0.74814578  1
  Ir  Ir115  1  0.16536870  0.16487183  0.49928210  1
  Ir  Ir116  1  0.33984670  0.66707891  0.25358452  1
  Ir  Ir117  1  0.49709490  0.16465199  0.74771350  1
  Ir  Ir118  1  0.50046032  0.49936876  0.25110133  1
  Ir  Ir119  1  0.33116007  0.66839736  0.74746220  1
  Ir  Ir120  1  0.66083604  0.33259697  0.00270893  1
  Ir  Ir121  1  0.16921046  0.16613690  0.74974830  1
  Ir  Ir122  1  0.16272187  0.83392317  0.50502744  1
  Ir  Ir123  1  0.50681423  0.83676198  0.25654613  1
  Ir  Ir124  1  0.00211318  0.33028600  0.50485875  1
  Ir  Ir125  1  0.16528423  0.83360509  0.74747530  1
  Ir  Ir126  1  0.00013554  0.67018288  0.50336342  1
  Ir  Ir127  1  0.67203776  -0.00339011  0.25644025  1
  Ir  Ir128  1  0.16554874  0.16414483  0.25034776  1
  Ir  Ir129  1  0.83570942  0.83485365  0.25415550  1
  Ir  Ir130  1  0.83377872  0.83507786  0.74597663  1
  Ir  Ir131  1  -0.00190756  0.66874750  0.25020565  1
  Ir  Ir132  1  0.33076033  0.00318062  0.74620167  1
  Ir  Ir133  1  0.00144654  0.32946796  0.74415553  1
  Ir  Ir134  1  0.32789613  -0.00015415  0.50491539  1
  Ir  Ir135  1  0.00187699  -0.00147864  0.49699942  1
  Ir  Ir136  1  0.50143357  0.49955230  0.74912283  1
  Ir  Ir137  1  0.66666108  0.33554823  0.49791702  1
  Ir  Ir138  1  0.83750341  0.49392070  0.50184713  1
  Ir  Ir139  1  -0.00032037  0.66729601  -0.00374777  1
  Ir  Ir140  1  0.83141162  0.16215970  0.25243426  1
  Ir  Ir141  1  0.16177865  0.50437033  -0.00130050  1
  Ir  Ir142  1  0.66947621  0.00221058  0.74519759  1
  Ir  Ir143  1  0.16705152  0.16489328  -0.00061149  1
  O  O144  1  0.30549506  0.31855320  0.12833238  1
  O  O145  1  0.29669571  0.31729029  0.62619215  1
  O  O146  1  0.32419847  0.67170143  0.13291903  1
  O  O147  1  0.29636890  0.65786053  0.63007467  1
  O  O148  1  0.32231135  0.97535797  0.12344046  1
  O  O149  1  0.30726684  0.98810115  0.62616628  1
  O  O150  1  0.63123548  0.33052494  0.12505491  1
  O  O151  1  0.64652597  0.33927804  0.62159424  1
  O  O152  1  0.64331320  0.65148017  0.12557093  1
  O  O153  1  0.65407869  0.65292816  0.62553431  1
  O  O154  1  0.64314470  0.99012802  0.13753811  1
  O  O155  1  0.65023180  0.99309822  0.61848184  1
  O  O156  1  0.99013556  0.31660305  0.12546494  1
  O  O157  1  0.96657450  0.32559230  0.62355179  1
  O  O158  1  0.97762013  0.65164434  0.12161292  1
  O  O159  1  0.97605764  0.67041316  0.62560078  1
  O  O160  1  0.96194786  0.98229635  0.12684186  1
  O  O161  1  0.98443009  0.98968091  0.61929034  1
  O  O162  1  0.19890771  0.16351603  0.12419697  1
  O  O163  1  0.19871905  0.16493682  0.62491228  1
  O  O164  1  0.17719002  0.50469577  0.12075454  1
  O  O165  1  0.20062423  0.48807679  0.62535205  1
  O  O166  1  0.19786739  0.82524023  0.12311350  1
  O  O167  1  0.19733063  0.82539312  0.62738620  1
  O  O168  1  0.51329838  0.13034673  0.12652852  1
  O  O169  1  0.51950586  0.16225963  0.62990873  1
  O  O170  1  0.53349858  0.49433004  0.13079096  1
  O  O171  1  0.53655323  0.49860425  0.63324096  1
  O  O172  1  0.53188883  0.84076640  0.13691326  1
  O  O173  1  0.53237268  0.83697626  0.61864986  1
  O  O174  1  0.86091225  0.15835130  0.13458408  1
  O  O175  1  0.84906487  0.17785103  0.62793639  1
  O  O176  1  0.87472945  0.49525759  0.12452208  1
  O  O177  1  0.85027844  0.48247115  0.62222408  1
  O  O178  1  0.86914363  0.83011128  0.13658391  1
  O  O179  1  0.86545891  0.83551563  0.62210917  1
  O  O180  1  0.13285865  0.16461654  0.37402202  1
  O  O181  1  0.14327965  0.17586328  0.87384881  1
  O  O182  1  0.12324927  0.50987138  0.37927962  1
  O  O183  1  0.14679720  0.51595735  0.87651923  1
  O  O184  1  0.13439814  0.83016974  0.38363454  1
  O  O185  1  0.13012206  0.84167276  0.86504081  1
  O  O186  1  0.46819568  0.17553079  0.37606221  1
  O  O187  1  0.46887408  0.16157053  0.86730095  1
  O  O188  1  0.46821887  0.49901197  0.37011877  1
  O  O189  1  0.47699446  0.50270000  0.86678324  1
  O  O190  1  0.48044845  0.83565974  0.37879841  1
  O  O191  1  0.48787644  0.85953382  0.86865545  1
  O  O192  1  0.81579730  0.16421643  0.37134095  1
  O  O193  1  0.81702747  0.16741983  0.86751571  1
  O  O194  1  0.82334653  0.49498095  0.38218827  1
  O  O195  1  0.80249915  0.50855713  0.87425903  1
  O  O196  1  0.80272809  0.84438553  0.37678467  1
  O  O197  1  0.81441856  0.83574163  0.86475254  1
  O  O198  1  0.01570912  0.01254355  0.37621148  1
  O  O199  1  0.03222850  0.00118065  0.87398517  1
  O  O200  1  0.02123889  0.34090232  0.38444899  1
  O  O201  1  0.03509307  0.33067805  0.86423320  1
  O  O202  1  0.01951862  0.68162512  0.37623281  1
  O  O203  1  0.03120694  0.68249256  0.87259035  1
  O  O204  1  0.34746074  0.00848685  0.38397346  1
  O  O205  1  0.36240444  0.01529418  0.86395090  1
  O  O206  1  0.37370804  0.34522630  0.37644104  1
  O  O207  1  0.34635735  0.32691254  0.87625789  1
  O  O208  1  0.35521089  0.67157197  0.37239738  1
  O  O209  1  0.36721048  0.67442338  0.86383741  1
  O  O210  1  0.70500764  -0.00240708  0.37650762  1
  O  O211  1  0.68295023  -0.00268212  0.86576173  1
  O  O212  1  0.68737926  0.33386934  0.37431207  1
  O  O213  1  0.68288898  0.34308969  0.87572628  1
  O  O214  1  0.68916466  0.68277680  0.37572514  1
  O  O215  1  0.70911893  0.67699518  0.87388739  1
  O  O216  1  0.07210630  0.10142475  0.02765834  1
  O  O217  1  0.06820210  0.09615231  0.51249726  1
  O  O218  1  0.06799687  0.43947575  0.01884088  1
  O  O219  1  0.07349949  0.41746414  0.52822054  1
  O  O220  1  0.06192902  0.76095781  0.01911598  1
  O  O221  1  0.06673241  0.76643892  0.52849081  1
  O  O222  1  0.38064855  0.11139835  0.01035714  1
  O  O223  1  0.39522459  0.09237837  0.51988375  1
  O  O224  1  0.40968026  0.42487755  0.02322498  1
  O  O225  1  0.40161929  0.43379583  0.53172199  1
  O  O226  1  0.39451244  0.78020010  0.02413178  1
  O  O227  1  0.40814978  0.76947394  0.52391109  1
  O  O228  1  0.73972814  0.09170117  0.02160738  1
  O  O229  1  0.74208718  0.08931172  0.51277519  1
  O  O230  1  0.72765475  0.42674283  0.02031540  1
  O  O231  1  0.74030079  0.42727015  0.52649462  1
  O  O232  1  0.73547552  0.76793700  0.03013288  1
  O  O233  1  0.74091721  0.77197729  0.52083982  1
  O  O234  1  0.10228131  0.25861702  0.01036034  1
  O  O235  1  0.09839029  0.26215393  0.52665175  1
  O  O236  1  0.09434885  0.60020638  0.01140822  1
  O  O237  1  0.09456387  0.60582612  0.52947709  1
  O  O238  1  0.08819887  0.91968649  0.02765801  1
  O  O239  1  0.08920935  0.92150241  0.52308448  1
  O  O240  1  0.42974980  0.26139063  0.03343960  1
  O  O241  1  0.41812029  0.25151378  0.52753828  1
  O  O242  1  0.42929400  0.60081327  0.00330758  1
  O  O243  1  0.42170014  0.59130561  0.52538044  1
  O  O244  1  0.44526948  0.94667893  0.00610221  1
  O  O245  1  0.41969441  0.92418998  0.52500442  1
  O  O246  1  0.75113269  0.26297257  0.01320262  1
  O  O247  1  0.76242207  0.26955479  0.51750925  1
  O  O248  1  0.75597814  0.58569016  0.02576491  1
  O  O249  1  0.76523358  0.58168989  0.51907199  1
  O  O250  1  0.76654695  0.93066155  0.03151777  1
  O  O251  1  0.76477597  0.92739342  0.51860227  1
  O  O252  1  0.23146340  0.07496527  0.26895481  1
  O  O253  1  0.23978217  0.07484267  0.77914506  1
  O  O254  1  0.24888977  0.41720184  0.27696646  1
  O  O255  1  0.22904502  0.39813807  0.77383992  1
  O  O256  1  0.24998824  0.73828440  0.26510663  1
  O  O257  1  0.23410898  0.73482685  0.77140456  1
  O  O258  1  0.57993725  0.06419321  0.27295118  1
  O  O259  1  0.57116058  0.07117484  0.77041034  1
  O  O260  1  0.56610566  0.40023193  0.27063049  1
  O  O261  1  0.57221241  0.40943829  0.77630924  1
  O  O262  1  0.57648036  0.74885394  0.27227756  1
  O  O263  1  0.56555841  0.73209211  0.77244089  1
  O  O264  1  0.89510049  0.06736484  0.27261839  1
  O  O265  1  0.90581721  0.08036878  0.75975530  1
  O  O266  1  0.91021401  0.40625646  0.27104307  1
  O  O267  1  0.91005891  0.40044488  0.76032538  1
  O  O268  1  0.90531992  0.74346632  0.27749822  1
  O  O269  1  0.90434393  0.74133939  0.77453845  1
  O  O270  1  0.26153839  0.22831546  0.27760777  1
  O  O271  1  0.25896276  0.23221499  0.77178030  1
  O  O272  1  0.27054497  0.57531440  0.27342323  1
  O  O273  1  0.26198421  0.57976079  0.77104147  1
  O  O274  1  0.26032475  0.90468001  0.26551330  1
  O  O275  1  0.25279677  0.91282407  0.77212956  1
  O  O276  1  0.58990948  0.24493792  0.26975046  1
  O  O277  1  0.58777164  0.23821100  0.76670073  1
  O  O278  1  0.58808836  0.56873023  0.26974863  1
  O  O279  1  0.59407620  0.56620598  0.77748757  1
  O  O280  1  0.60574984  0.90101352  0.27940719  1
  O  O281  1  0.59736522  0.91415047  0.75101860  1
  O  O282  1  0.92913173  0.22511002  0.27155676  1
  O  O283  1  0.92640679  0.24162491  0.76755183  1
  O  O284  1  0.93680488  0.57241056  0.27204337  1
  O  O285  1  0.92776841  0.58520849  0.77037720  1
  O  O286  1  0.92344621  0.90229434  0.28686092  1
  O  O287  1  0.93129807  0.89768554  0.76424930  1
  O  O288  1  0.25889557  0.22937021  0.47702994  1
  O  O289  1  0.25910878  0.23086595  0.97493215  1
  O  O290  1  0.26456207  0.57077881  0.47543194  1
  O  O291  1  0.25188401  0.57603751  0.98446867  1
  O  O292  1  0.25793333  0.90272347  0.49049293  1
  O  O293  1  0.25176893  0.91613193  0.96378828  1
  O  O294  1  0.59262284  0.24749449  0.47939207  1
  O  O295  1  0.59176114  0.24088616  0.98624620  1
  O  O296  1  0.59451791  0.57268121  0.48644537  1
  O  O297  1  0.59745932  0.56699787  0.96656889  1
  O  O298  1  0.60342067  0.90346458  0.47898025  1
  O  O299  1  0.60569873  0.89666913  1.00358880  1
  O  O300  1  0.93798733  0.23626182  0.47755840  1
  O  O301  1  0.92965900  0.23564340  0.99623815  1
  O  O302  1  0.93481397  0.56622802  0.48015434  1
  O  O303  1  0.92909658  0.58094448  0.97159386  1
  O  O304  1  0.93245123  0.90388903  0.47362323  1
  O  O305  1  0.93427679  0.89334896  0.97491745  1
  O  O306  1  0.23773242  0.07436463  0.47676857  1
  O  O307  1  0.22675939  0.07172121  0.97064806  1
  O  O308  1  0.24337666  0.41023565  0.47359496  1
  O  O309  1  0.22489371  0.40746765  0.97959098  1
  O  O310  1  0.23202588  0.74361353  0.49417114  1
  O  O311  1  0.23303807  0.73437765  0.96706400  1
  O  O312  1  0.58164378  0.07089914  0.48485357  1
  O  O313  1  0.56449270  0.06401840  0.97673078  1
  O  O314  1  0.57126230  0.39864821  0.47547858  1
  O  O315  1  0.57383222  0.40295940  0.98716397  1
  O  O316  1  0.57793876  0.75287905  0.48162045  1
  O  O317  1  0.56122420  0.72954922  0.96960476  1
  O  O318  1  0.91031812  0.06961051  0.47640360  1
  O  O319  1  0.90176340  0.06711841  0.99263801  1
  O  O320  1  0.91099423  0.40168777  0.48288415  1
  O  O321  1  0.90718577  0.40544010  0.97631377  1
  O  O322  1  0.90842585  0.74651365  0.47672754  1
  O  O323  1  0.90626105  0.73239670  0.97208481  1
  O  O324  1  0.09693143  0.25243671  0.23467654  1
  O  O325  1  0.10231236  0.26287639  0.72488539  1
  O  O326  1  0.08819912  0.60044445  0.23096542  1
  O  O327  1  0.09678929  0.60514929  0.73034340  1
  O  O328  1  0.08566094  0.92034491  0.22843354  1
  O  O329  1  0.09405842  0.92001813  0.72439989  1
  O  O330  1  0.43198344  0.26315341  0.22046726  1
  O  O331  1  0.42188718  0.24998737  0.72791429  1
  O  O332  1  0.43243350  0.59316478  0.23224834  1
  O  O333  1  0.42513915  0.59277708  0.72297798  1
  O  O334  1  0.43903551  0.92878539  0.23604447  1
  O  O335  1  0.41431754  0.92485909  0.72617549  1
  O  O336  1  0.75987389  0.25839599  0.23091295  1
  O  O337  1  0.76033165  0.26736218  0.72662906  1
  O  O338  1  0.75583391  0.58459039  0.23509991  1
  O  O339  1  0.75867646  0.58766204  0.72823607  1
  O  O340  1  0.76883084  0.92957667  0.22807510  1
  O  O341  1  0.76108450  0.92735014  0.72085484  1
  O  O342  1  0.06739575  0.10168347  0.22711341  1
  O  O343  1  0.08136990  0.09444691  0.73579689  1
  O  O344  1  0.06724851  0.43271447  0.23357442  1
  O  O345  1  0.07194260  0.41774043  0.72283581  1
  O  O346  1  0.06146871  0.76336462  0.22969860  1
  O  O347  1  0.07230633  0.76512267  0.71871938  1
  O  O348  1  0.38832258  0.10457785  0.24074839  1
  O  O349  1  0.39938350  0.09703714  0.72246261  1
  O  O350  1  0.41596955  0.42789699  0.22439306  1
  O  O351  1  0.40486869  0.43469962  0.72424304  1
  O  O352  1  0.40970654  0.76876988  0.23493852  1
  O  O353  1  0.39552914  0.76147509  0.71842828  1
  O  O354  1  0.74137975  0.08822192  0.22680112  1
  O  O355  1  0.74091797  0.09771929  0.73148925  1
  O  O356  1  0.73179687  0.42364483  0.22367648  1
  O  O357  1  0.73173707  0.42455586  0.73118990  1
  O  O358  1  0.74188024  0.77098357  0.23048649  1
  O  O359  1  0.73845732  0.77388152  0.72130032  1
