# generated using pymatgen
data_BaLaInIrO6
_symmetry_space_group_name_H-M   'P 1'
_cell_length_a   17.51329443
_cell_length_b   17.54098170
_cell_length_c   16.48273995
_cell_angle_alpha   89.94258462
_cell_angle_beta   90.00904441
_cell_angle_gamma   90.00873038
_symmetry_Int_Tables_number   1
_chemical_formula_structural   BaLaInIrO6
_chemical_formula_sum   'Ba36 La36 In36 Ir36 O216'
_cell_volume   5063.50126257
_cell_formula_units_Z   36
loop_
 _symmetry_equiv_pos_site_id
 _symmetry_equiv_pos_as_xyz
  1  'x, y, z'
loop_
 _atom_site_type_symbol
 _atom_site_label
 _atom_site_symmetry_multiplicity
 _atom_site_fract_x
 _atom_site_fract_y
 _atom_site_fract_z
 _atom_site_occupancy
  Ba  Ba0  1  -0.00061522  0.82569446  0.87526998  1
  Ba  Ba1  1  0.16677813  0.00633566  0.12418838  1
  Ba  Ba2  1  0.83437122  0.98265197  0.37687490  1
  Ba  Ba3  1  0.50094070  0.66187216  0.87211643  1
  Ba  Ba4  1  0.66503420  0.49178590  0.37333063  1
  Ba  Ba5  1  0.33282012  0.16201445  0.87022284  1
  Ba  Ba6  1  0.50289409  0.32557646  0.87245845  1
  Ba  Ba7  1  0.83330670  0.67214939  0.12863151  1
  Ba  Ba8  1  -0.00473439  0.49384081  0.37406291  1
  Ba  Ba9  1  0.66510483  0.49205252  0.87349458  1
  Ba  Ba10  1  0.66573547  0.51014525  0.62564321  1
  Ba  Ba11  1  0.49762275  0.00470924  0.12288389  1
  Ba  Ba12  1  0.83005002  0.00804636  0.12660593  1
  Ba  Ba13  1  0.50222290  0.33911367  0.62415942  1
  Ba  Ba14  1  0.33409119  0.83012167  0.87630166  1
  Ba  Ba15  1  0.16552488  0.65523328  0.38024129  1
  Ba  Ba16  1  -0.00461288  0.15541731  0.87550037  1
  Ba  Ba17  1  0.83443854  0.32150922  0.87008363  1
  Ba  Ba18  1  0.50029318  0.67440031  0.12792406  1
  Ba  Ba19  1  0.66454107  0.82621084  0.87544211  1
  Ba  Ba20  1  0.83049261  0.00556275  0.62161563  1
  Ba  Ba21  1  0.16604245  0.34825012  0.12576212  1
  Ba  Ba22  1  0.17034623  0.98789969  0.37914631  1
  Ba  Ba23  1  0.33517648  0.49651022  0.87416468  1
  Ba  Ba24  1  0.17151366  0.66266356  0.87187263  1
  Ba  Ba25  1  0.33319499  0.17626257  0.62177753  1
  Ba  Ba26  1  0.66721666  0.15479990  0.37596374  1
  Ba  Ba27  1  0.33334528  0.84453972  0.62371409  1
  Ba  Ba28  1  0.33089244  0.50978530  0.12638810  1
  Ba  Ba29  1  0.66106936  0.15815216  0.87138721  1
  Ba  Ba30  1  -0.00277084  0.49431153  0.87207538  1
  Ba  Ba31  1  0.16568369  0.99356321  0.87561489  1
  Ba  Ba32  1  0.66804279  0.17711132  0.61766299  1
  Ba  Ba33  1  0.83289887  0.65291583  0.37888379  1
  Ba  Ba34  1  0.49969696  0.67142654  0.62330164  1
  Ba  Ba35  1  1.00250663  0.51030685  0.12358920  1
  La  La36  1  0.49701944  0.01423630  0.62444768  1
  La  La37  1  0.17826246  0.32296505  0.87820185  1
  La  La38  1  0.33776533  0.18261004  0.12586138  1
  La  La39  1  0.16049519  0.67275123  0.12472674  1
  La  La40  1  0.84018815  0.34215313  0.11960340  1
  La  La41  1  0.67361110  0.84407451  0.12381997  1
  La  La42  1  1.00596980  0.18504766  0.12548130  1
  La  La43  1  0.32786842  0.81780542  0.37915174  1
  La  La44  1  0.50722254  0.31451722  0.37711169  1
  La  La45  1  1.00448826  0.84546272  0.62441425  1
  La  La46  1  0.16483666  0.35515812  0.62408467  1
  La  La47  1  -0.00617398  0.81552215  0.37561133  1
  La  La48  1  0.83166207  0.32819490  0.37526416  1
  La  La49  1  0.50449184  0.98434419  0.87337479  1
  La  La50  1  1.00109333  0.52306797  0.62057361  1
  La  La51  1  0.99755585  0.17895820  0.62426475  1
  La  La52  1  0.67048301  0.18739211  0.12733239  1
  La  La53  1  0.16241346  0.01359844  0.62923108  1
  La  La54  1  0.67204086  0.51454413  0.12289543  1
  La  La55  1  0.83784510  0.65630828  0.87550306  1
  La  La56  1  0.49362690  0.34944007  0.12553767  1
  La  La57  1  0.66675955  0.82349572  0.38093996  1
  La  La58  1  -0.00761561  0.15019383  0.37367958  1
  La  La59  1  0.16694401  0.68574122  0.62100148  1
  La  La60  1  0.16658374  0.32068731  0.37520436  1
  La  La61  1  0.66931475  0.84284073  0.62850242  1
  La  La62  1  0.34175656  0.51561777  0.62459066  1
  La  La63  1  0.32942365  0.83921440  0.11988319  1
  La  La64  1  0.82625278  0.34833336  0.62252485  1
  La  La65  1  0.33052405  0.14986757  0.37666683  1
  La  La66  1  0.82752123  0.68078762  0.62440878  1
  La  La67  1  0.50540536  0.98021524  0.37973979  1
  La  La68  1  0.32728438  0.48760758  0.37984637  1
  La  La69  1  0.83799102  0.98173805  0.87311829  1
  La  La70  1  0.50345501  0.65268094  0.37761301  1
  La  La71  1  1.00315545  0.84143074  0.13044488  1
  In  In72  1  0.16546486  0.50265171  -0.00564925  1
  In  In73  1  0.66476370  -0.00186084  0.50183755  1
  In  In74  1  0.33306069  0.00375215  0.00059330  1
  In  In75  1  0.50142476  0.50073971  0.75031570  1
  In  In76  1  0.33251280  0.33595569  0.74533550  1
  In  In77  1  0.33646681  0.33645990  0.00042207  1
  In  In78  1  0.83250908  0.49838252  -0.00236295  1
  In  In79  1  0.50192519  0.83187339  0.00335681  1
  In  In80  1  0.83454598  0.50181464  0.74635199  1
  In  In81  1  0.16717649  0.83745908  0.75159678  1
  In  In82  1  0.83215597  0.49690331  0.25029059  1
  In  In83  1  0.33546074  0.33246008  0.25618270  1
  In  In84  1  0.50104118  0.16598161  0.00280007  1
  In  In85  1  -0.00005575  -0.00069325  0.24884921  1
  In  In86  1  0.83324769  0.16927664  0.24842592  1
  In  In87  1  0.83522483  0.16727180  0.49855236  1
  In  In88  1  0.00087026  -0.00197787  0.49994561  1
  In  In89  1  0.00175698  0.33565116  0.50070086  1
  In  In90  1  0.33243448  0.66527630  0.25316215  1
  In  In91  1  0.66304345  0.00036967  0.25093051  1
  In  In92  1  0.66617923  0.00322433  -0.00047123  1
  In  In93  1  0.00191720  0.33552748  0.74464249  1
  In  In94  1  0.16597108  0.16951510  0.50158229  1
  In  In95  1  0.49932739  0.49626976  0.49642021  1
  In  In96  1  -0.00316724  -0.00100073  0.00089221  1
  In  In97  1  0.66817063  0.33012403  0.74941640  1
  In  In98  1  0.33781367  -0.00298116  0.25413354  1
  In  In99  1  0.16675077  0.16526982  0.25199735  1
  In  In100  1  0.16775496  0.83158548  0.25640950  1
  In  In101  1  0.83215053  0.16503483  -0.00059081  1
  In  In102  1  0.49948299  0.83273458  0.74406282  1
  In  In103  1  0.16341103  0.16943825  0.74858099  1
  In  In104  1  0.00029682  0.66981187  -0.00161820  1
  In  In105  1  0.00352961  0.33288208  -0.00787040  1
  In  In106  1  0.66422182  0.66925807  0.25150537  1
  In  In107  1  0.33349618  0.66642048  0.00129620  1
  Ir  Ir108  1  0.33825477  -0.00130623  0.50137751  1
  Ir  Ir109  1  0.66716853  0.66974595  0.50269216  1
  Ir  Ir110  1  0.66925298  0.33499541  0.49390173  1
  Ir  Ir111  1  0.83175711  0.82956660  0.00038852  1
  Ir  Ir112  1  0.66292850  0.33536756  0.00745963  1
  Ir  Ir113  1  0.49467587  0.16652817  0.49685917  1
  Ir  Ir114  1  0.00359374  0.33467432  0.25423811  1
  Ir  Ir115  1  0.16638514  0.83252454  0.00319108  1
  Ir  Ir116  1  -0.00059810  0.66800470  0.25279712  1
  Ir  Ir117  1  0.50696612  0.50114963  0.00546406  1
  Ir  Ir118  1  0.83378893  0.49896478  0.50005274  1
  Ir  Ir119  1  0.16552792  0.50697104  0.73965880  1
  Ir  Ir120  1  0.83444933  0.83104234  0.74879338  1
  Ir  Ir121  1  0.33569944  0.00247918  0.74574910  1
  Ir  Ir122  1  0.49888163  0.49897370  0.25110172  1
  Ir  Ir123  1  -0.00584124  -0.00219886  0.74767448  1
  Ir  Ir124  1  0.66855916  0.66654691  -0.00081406  1
  Ir  Ir125  1  0.49974932  0.83198625  0.25627067  1
  Ir  Ir126  1  0.66845402  -0.00049861  0.74891256  1
  Ir  Ir127  1  0.49854878  0.82968299  0.49793579  1
  Ir  Ir128  1  -0.00105985  0.67042237  0.74354658  1
  Ir  Ir129  1  0.83333756  0.16051758  0.74725194  1
  Ir  Ir130  1  0.66134364  0.33524548  0.24820704  1
  Ir  Ir131  1  0.50086067  0.16740577  0.25225385  1
  Ir  Ir132  1  0.33272258  0.33502706  0.49557343  1
  Ir  Ir133  1  -0.00044818  0.66837730  0.50340702  1
  Ir  Ir134  1  0.16700556  0.83395457  0.50216220  1
  Ir  Ir135  1  0.16957689  0.50247294  0.50166675  1
  Ir  Ir136  1  0.83472238  0.82629650  0.50179315  1
  Ir  Ir137  1  0.49945662  0.16204245  0.74592361  1
  Ir  Ir138  1  0.32914107  0.66613403  0.74474793  1
  Ir  Ir139  1  0.67196197  0.67102606  0.74800296  1
  Ir  Ir140  1  0.16433684  0.50044463  0.25940902  1
  Ir  Ir141  1  0.16733755  0.16741891  0.00288073  1
  Ir  Ir142  1  0.83378133  0.82840746  0.25049918  1
  Ir  Ir143  1  0.33438330  0.66796353  0.49918325  1
  O  O144  1  0.31687933  0.32460341  0.12985902  1
  O  O145  1  0.29975820  0.33027168  0.61326931  1
  O  O146  1  0.29854195  0.66713552  0.12993229  1
  O  O147  1  0.30242220  0.65420886  0.62021528  1
  O  O148  1  0.31910444  0.97752741  0.12951782  1
  O  O149  1  0.30201039  0.99887942  0.62273243  1
  O  O150  1  0.62874717  0.32778270  0.12967574  1
  O  O151  1  0.65248514  0.33325173  0.61329954  1
  O  O152  1  0.64947487  0.65995372  0.12025663  1
  O  O153  1  0.64784239  0.67202404  0.62545236  1
  O  O154  1  0.64787776  0.97890402  0.12809432  1
  O  O155  1  0.63602249  0.98762856  0.62779856  1
  O  O156  1  0.97718416  0.32493619  0.13357731  1
  O  O157  1  0.96142980  0.32052307  0.62132624  1
  O  O158  1  0.98493648  0.67281818  0.13300312  1
  O  O159  1  0.96699225  0.66645432  0.62233557  1
  O  O160  1  0.97592768  0.97679455  0.12463275  1
  O  O161  1  0.97708230  0.98322629  0.62848674  1
  O  O162  1  0.20045233  0.16543183  0.12263239  1
  O  O163  1  0.18860017  0.14752631  0.62480392  1
  O  O164  1  0.18072582  0.50773854  0.14081023  1
  O  O165  1  0.20339636  0.49712881  0.61992866  1
  O  O166  1  0.19282968  0.82122493  0.12453446  1
  O  O167  1  0.18435916  0.82710715  0.62210676  1
  O  O168  1  0.53615467  0.15867810  0.13589394  1
  O  O169  1  0.52084655  0.15195724  0.62033468  1
  O  O170  1  0.53518954  0.49226178  0.13050619  1
  O  O171  1  0.51290310  0.50464003  0.62141238  1
  O  O172  1  0.53514488  0.83119180  0.13824038  1
  O  O173  1  0.53181779  0.82900096  0.61690930  1
  O  O174  1  0.86804361  0.17301957  0.12619154  1
  O  O175  1  0.86192160  0.15900353  0.62866188  1
  O  O176  1  0.84778356  0.48286320  0.12568774  1
  O  O177  1  0.86254560  0.49205551  0.61810506  1
  O  O178  1  0.86374149  0.82599692  0.12550492  1
  O  O179  1  0.86729400  0.82014594  0.62545828  1
  O  O180  1  0.13023917  0.17618746  0.37842336  1
  O  O181  1  0.14483835  0.17800098  0.88035993  1
  O  O182  1  0.14303536  0.49863659  0.38140069  1
  O  O183  1  0.14365785  0.51086922  0.85817897  1
  O  O184  1  0.13209642  0.83434517  0.38525175  1
  O  O185  1  0.14981848  0.83310270  0.87995311  1
  O  O186  1  0.46542494  0.17912449  0.37423716  1
  O  O187  1  0.48393916  0.16910313  0.86624304  1
  O  O188  1  0.46688196  0.50880851  0.37066651  1
  O  O189  1  0.48886008  0.50176723  0.88379820  1
  O  O190  1  0.46488635  0.83703476  0.37766937  1
  O  O191  1  0.48588916  0.84055796  0.87048798  1
  O  O192  1  0.81506299  0.19348384  0.37244974  1
  O  O193  1  0.81152325  0.16566156  0.86588250  1
  O  O194  1  0.81551870  0.49480953  0.37898543  1
  O  O195  1  0.81573804  0.51893176  0.87166609  1
  O  O196  1  0.80325375  0.82748337  0.37645488  1
  O  O197  1  0.81060360  0.84212517  0.87442286  1
  O  O198  1  0.02366254  0.00912449  0.37509863  1
  O  O199  1  0.01278983  -0.00296548  0.86846058  1
  O  O200  1  0.03196451  0.34240440  0.37342339  1
  O  O201  1  0.04210034  0.33231047  0.86681572  1
  O  O202  1  0.01916198  0.67636007  0.37963770  1
  O  O203  1  0.01923349  0.66927740  0.86365417  1
  O  O204  1  0.37193112  0.00877878  0.38310910  1
  O  O205  1  0.36621701  0.00345640  0.86605820  1
  O  O206  1  0.36969734  0.34980794  0.37960674  1
  O  O207  1  0.35070052  0.33574856  0.87336657  1
  O  O208  1  0.36758384  0.67846673  0.37991750  1
  O  O209  1  0.34593923  0.67190345  0.86619597  1
  O  O210  1  0.68113587  -0.01019110  0.37583897  1
  O  O211  1  0.70115831  0.00262739  0.86841388  1
  O  O212  1  0.69597876  0.33696058  0.36927804  1
  O  O213  1  0.68289201  0.33324657  0.88606447  1
  O  O214  1  0.68463130  0.68049392  0.38240264  1
  O  O215  1  0.70122586  0.67017972  0.87280250  1
  O  O216  1  0.07227763  0.09842154  0.02394472  1
  O  O217  1  0.07099457  0.09455659  0.53220618  1
  O  O218  1  0.07369487  0.42818867  0.01332186  1
  O  O219  1  0.07401339  0.43888307  0.52999125  1
  O  O220  1  0.07399588  0.76453260  0.02828489  1
  O  O221  1  0.06887739  0.76492065  0.52756872  1
  O  O222  1  0.39738096  0.10386067  0.02872985  1
  O  O223  1  0.40799885  0.09049306  0.52432606  1
  O  O224  1  0.41810203  0.43029982  0.02514920  1
  O  O225  1  0.39246990  0.43155455  0.51878501  1
  O  O226  1  0.40367403  0.76213437  0.02609881  1
  O  O227  1  0.40326303  0.76230551  0.51721124  1
  O  O228  1  0.72907694  0.10408150  0.02812586  1
  O  O229  1  0.74041535  0.09062418  0.51091406  1
  O  O230  1  0.72765980  0.42867533  0.02581340  1
  O  O231  1  0.74002659  0.42874084  0.51904317  1
  O  O232  1  0.73451755  0.76156961  0.02261557  1
  O  O233  1  0.73878244  0.76059760  0.52946620  1
  O  O234  1  0.09530738  0.25273826  0.02651746  1
  O  O235  1  0.11102340  0.27910928  0.51827369  1
  O  O236  1  0.09870947  0.60247815  0.02057213  1
  O  O237  1  0.09796189  0.59874866  0.53040824  1
  O  O238  1  0.09136153  0.91766595  0.01793442  1
  O  O239  1  0.10048936  0.92591802  0.52976006  1
  O  O240  1  0.43052241  0.26152770  0.03090637  1
  O  O241  1  0.42890426  0.26690719  0.51069823  1
  O  O242  1  0.43614817  0.59007558  0.01567361  1
  O  O243  1  0.42055985  0.59449495  0.51239800  1
  O  O244  1  0.42264578  0.92373495  0.00959382  1
  O  O245  1  0.43607845  0.92993997  0.52227486  1
  O  O246  1  0.75687609  0.26991681  0.03053448  1
  O  O247  1  0.76855530  0.27391868  0.51462141  1
  O  O248  1  0.75526295  0.59485418  0.01735506  1
  O  O249  1  0.76492113  0.59954944  0.52563575  1
  O  O250  1  0.76075464  0.91792395  0.01760301  1
  O  O251  1  0.75495605  0.90861262  0.52278013  1
  O  O252  1  0.24783404  0.07651998  0.27768010  1
  O  O253  1  0.24397742  0.07109194  0.76327215  1
  O  O254  1  0.23483986  0.40832873  0.28194517  1
  O  O255  1  0.22434724  0.40999877  0.76147980  1
  O  O256  1  0.24411396  0.74168462  0.28316579  1
  O  O257  1  0.23784979  0.73605201  0.74871212  1
  O  O258  1  0.55860233  0.07046516  0.28021152  1
  O  O259  1  0.56869629  0.06427495  0.76848649  1
  O  O260  1  0.56353752  0.40006218  0.27348162  1
  O  O261  1  0.57801110  0.40865836  0.76114972  1
  O  O262  1  0.56234052  0.73707041  0.27986368  1
  O  O263  1  0.58413763  0.74269390  0.76027303  1
  O  O264  1  0.90619382  0.07484999  0.27395671  1
  O  O265  1  0.89609628  0.06157094  0.77020932  1
  O  O266  1  0.90268936  0.39419419  0.26852564  1
  O  O267  1  0.91027632  0.40859769  0.76457162  1
  O  O268  1  0.90766067  0.73886270  0.27570652  1
  O  O269  1  0.89980538  0.73340664  0.77064227  1
  O  O270  1  0.26384434  0.23861730  0.28440490  1
  O  O271  1  0.24846344  0.25253961  0.76930157  1
  O  O272  1  0.26062177  0.56412503  0.28139612  1
  O  O273  1  0.26075397  0.57140254  0.75786351  1
  O  O274  1  0.26896770  0.89900232  0.27871374  1
  O  O275  1  0.26303639  0.91527325  0.76373393  1
  O  O276  1  0.59339919  0.24069213  0.27416777  1
  O  O277  1  0.58848603  0.23440086  0.75425657  1
  O  O278  1  0.58253121  0.57513118  0.27176468  1
  O  O279  1  0.59766691  0.58407803  0.76493807  1
  O  O280  1  0.59346724  0.89356512  0.28362215  1
  O  O281  1  0.59519336  0.91416798  0.76674642  1
  O  O282  1  0.94106705  0.24149810  0.27507408  1
  O  O283  1  0.92566996  0.22702303  0.75992564  1
  O  O284  1  0.92632430  0.57898616  0.26245195  1
  O  O285  1  0.93249269  0.57902351  0.75500629  1
  O  O286  1  0.92856556  0.89155874  0.27335368  1
  O  O287  1  0.92387489  0.90407575  0.76874799  1
  O  O288  1  0.26872548  0.24217346  0.46682681  1
  O  O289  1  0.25477360  0.24011223  0.98432756  1
  O  O290  1  0.26890625  0.56837738  0.47805861  1
  O  O291  1  0.26097457  0.57406839  0.98581203  1
  O  O292  1  0.26686799  0.90099986  0.47736511  1
  O  O293  1  0.25449908  0.90555167  0.98968824  1
  O  O294  1  0.58970815  0.24280662  0.47259814  1
  O  O295  1  0.60036517  0.24043327  0.99521930  1
  O  O296  1  0.59042707  0.58319866  0.47783175  1
  O  O297  1  0.60294073  0.56808272  0.99079660  1
  O  O298  1  0.59072268  0.89619065  0.47645183  1
  O  O299  1  0.59161259  0.90958122  0.98266528  1
  O  O300  1  0.94484742  0.22788425  0.48217629  1
  O  O301  1  0.92793392  0.23844243  0.98606628  1
  O  O302  1  0.93304509  0.56945961  0.49016512  1
  O  O303  1  0.92192171  0.58075647  0.98441525  1
  O  O304  1  0.93141981  0.89120012  0.48238803  1
  O  O305  1  0.91965741  0.89873036  0.98324030  1
  O  O306  1  0.25137858  0.07371216  0.47855509  1
  O  O307  1  0.23556493  0.07900080  0.98177095  1
  O  O308  1  0.23615837  0.40369953  0.47188867  1
  O  O309  1  0.23814235  0.40583039  0.97800604  1
  O  O310  1  0.24025976  0.74037306  0.48360883  1
  O  O311  1  0.23643693  0.74606714  0.98964498  1
  O  O312  1  0.55930712  0.06931982  0.48191028  1
  O  O313  1  0.56288269  0.06636193  0.97200779  1
  O  O314  1  0.57191253  0.39953139  0.47224280  1
  O  O315  1  0.56827703  0.40147796  0.99386752  1
  O  O316  1  0.56994710  0.73833299  0.47137684  1
  O  O317  1  0.57913394  0.73482927  0.98530000  1
  O  O318  1  0.90862543  0.07259714  0.47792247  1
  O  O319  1  0.89424254  0.06104191  0.97642389  1
  O  O320  1  0.89640890  0.40141650  0.47996823  1
  O  O321  1  0.90043544  0.39934485  0.98876700  1
  O  O322  1  0.90841799  0.73843536  0.47832442  1
  O  O323  1  0.89741693  0.73821413  0.97706193  1
  O  O324  1  0.09644381  0.26927437  0.23672945  1
  O  O325  1  0.09036091  0.26065228  0.70377710  1
  O  O326  1  0.09686554  0.60086783  0.23403943  1
  O  O327  1  0.09499844  0.60452239  0.71215944  1
  O  O328  1  0.09093773  0.91917616  0.22907705  1
  O  O329  1  0.09043357  0.93148582  0.72535959  1
  O  O330  1  0.43821401  0.26155493  0.22840216  1
  O  O331  1  0.42749395  0.25124836  0.72958341  1
  O  O332  1  0.42948927  0.58998986  0.23523096  1
  O  O333  1  0.41652348  0.59266572  0.73387147  1
  O  O334  1  0.44273692  0.92944411  0.24712751  1
  O  O335  1  0.42881988  0.93418224  0.72373576  1
  O  O336  1  0.75691457  0.27242760  0.22134506  1
  O  O337  1  0.76814612  0.25561845  0.72347783  1
  O  O338  1  0.74944497  0.58560526  0.23592499  1
  O  O339  1  0.76581601  0.60567166  0.72743685  1
  O  O340  1  0.76157927  0.91521882  0.23187853  1
  O  O341  1  0.75632982  0.92110170  0.72339600  1
  O  O342  1  0.06722139  0.10202341  0.22193565  1
  O  O343  1  0.06320676  0.08974351  0.72526921  1
  O  O344  1  0.07041935  0.43035645  0.23525806  1
  O  O345  1  0.07471961  0.44065844  0.71092077  1
  O  O346  1  0.06840265  0.75842078  0.23515366  1
  O  O347  1  0.06639770  0.76314232  0.72283208  1
  O  O348  1  0.40373312  0.10787224  0.23146253  1
  O  O349  1  0.41082062  0.08778889  0.72183012  1
  O  O350  1  0.41272029  0.42715983  0.23019806  1
  O  O351  1  0.40081826  0.43176059  0.72394669  1
  O  O352  1  0.40361765  0.77260714  0.22891495  1
  O  O353  1  0.40282978  0.75351711  0.73049439  1
  O  O354  1  0.73024243  0.10188130  0.22848078  1
  O  O355  1  0.73787236  0.09095405  0.72719527  1
  O  O356  1  0.72535185  0.42621880  0.22501143  1
  O  O357  1  0.74814742  0.41892194  0.72726583  1
  O  O358  1  0.73510612  0.76700932  0.23035939  1
  O  O359  1  0.74341570  0.76283809  0.71912247  1
