# generated using pymatgen
data_BaLaInIrO6
_symmetry_space_group_name_H-M   'P 1'
_cell_length_a   17.53132625
_cell_length_b   17.57429295
_cell_length_c   16.52779870
_cell_angle_alpha   89.99895112
_cell_angle_beta   90.00407837
_cell_angle_gamma   89.95259110
_symmetry_Int_Tables_number   1
_chemical_formula_structural   BaLaInIrO6
_chemical_formula_sum   'Ba36 La36 In36 Ir36 O216'
_cell_volume   5092.22398446
_cell_formula_units_Z   36
loop_
 _symmetry_equiv_pos_site_id
 _symmetry_equiv_pos_as_xyz
  1  'x, y, z'
loop_
 _atom_site_type_symbol
 _atom_site_label
 _atom_site_symmetry_multiplicity
 _atom_site_fract_x
 _atom_site_fract_y
 _atom_site_fract_z
 _atom_site_occupancy
  Ba  Ba0  1  0.83648981  0.32644204  0.36915721  1
  Ba  Ba1  1  0.33616385  0.18194690  0.62586111  1
  Ba  Ba2  1  0.16142214  0.99292014  0.37882361  1
  Ba  Ba3  1  0.66354376  0.15248865  0.87488158  1
  Ba  Ba4  1  0.33272365  0.17887236  0.12637322  1
  Ba  Ba5  1  0.17175362  0.67043192  0.12198550  1
  Ba  Ba6  1  0.33447344  0.15790562  0.87853319  1
  Ba  Ba7  1  -0.00067644  0.15519583  0.87703103  1
  Ba  Ba8  1  0.66493312  0.82564054  0.87609355  1
  Ba  Ba9  1  0.99802958  0.84003582  0.62989740  1
  Ba  Ba10  1  0.33290673  0.82412778  0.87274912  1
  Ba  Ba11  1  0.50123393  0.67885864  0.62266570  1
  Ba  Ba12  1  0.66599857  0.15955176  0.37092481  1
  Ba  Ba13  1  0.99807261  0.50545841  0.62336237  1
  Ba  Ba14  1  0.83429431  0.65692337  0.37526709  1
  Ba  Ba15  1  0.82877072  0.00928152  0.63174871  1
  Ba  Ba16  1  0.49964651  0.00504344  0.62347234  1
  Ba  Ba17  1  0.66321683  0.48750158  0.37275807  1
  Ba  Ba18  1  0.83632521  0.32349581  0.87500415  1
  Ba  Ba19  1  0.16511082  0.66147535  0.87433653  1
  Ba  Ba20  1  1.00285625  0.50769331  0.12362193  1
  Ba  Ba21  1  0.67080334  0.18283361  0.12351316  1
  Ba  Ba22  1  -0.00233695  0.82396084  0.87558948  1
  Ba  Ba23  1  0.16770861  0.34454988  0.62627858  1
  Ba  Ba24  1  0.33492103  0.49552981  0.37461025  1
  Ba  Ba25  1  0.83276350  0.99207723  0.88311586  1
  Ba  Ba26  1  0.32989035  0.82455708  0.37857748  1
  Ba  Ba27  1  0.16906711  0.65908458  0.37702629  1
  Ba  Ba28  1  0.16570621  0.34372587  0.12151358  1
  Ba  Ba29  1  1.00212876  0.17017786  0.62675028  1
  Ba  Ba30  1  0.16519645  0.32732583  0.37629475  1
  Ba  Ba31  1  1.00140632  0.17836076  0.11889620  1
  Ba  Ba32  1  0.50102507  0.34389080  0.62458511  1
  Ba  Ba33  1  0.49667055  0.34583791  0.12706939  1
  Ba  Ba34  1  0.66737112  0.51096253  0.12722678  1
  Ba  Ba35  1  -0.00075754  0.49142225  0.87516753  1
  La  La36  1  0.33329134  0.16296549  0.38345406  1
  La  La37  1  0.67340808  0.51756556  0.62207657  1
  La  La38  1  0.82983733  0.34246905  0.63340658  1
  La  La39  1  0.15853525  0.00779182  0.63109864  1
  La  La40  1  -0.00354801  0.48378413  0.37271250  1
  La  La41  1  0.32798052  0.50267241  0.12762792  1
  La  La42  1  0.50774737  0.31794513  0.37304311  1
  La  La43  1  0.50089082  0.98140285  0.37535031  1
  La  La44  1  0.50536194  0.31605619  0.87622566  1
  La  La45  1  0.33865926  0.51359423  0.61991798  1
  La  La46  1  -0.00615485  0.81602672  0.37527161  1
  La  La47  1  0.16806893  0.67928328  0.62660394  1
  La  La48  1  0.84445360  0.65499023  0.87528088  1
  La  La49  1  0.50489430  0.98093241  0.87428995  1
  La  La50  1  0.83142723  0.35150576  0.12060773  1
  La  La51  1  0.16163324  0.01253599  0.12782521  1
  La  La52  1  0.33299084  0.84596327  0.12721719  1
  La  La53  1  0.84305545  0.98563324  0.37496762  1
  La  La54  1  0.16785390  0.98222497  0.87642611  1
  La  La55  1  0.16655278  0.32097714  0.87396970  1
  La  La56  1  0.66221183  0.48602293  0.87375483  1
  La  La57  1  0.66123895  0.81919855  0.38047177  1
  La  La58  1  1.00692828  0.84379394  0.12356264  1
  La  La59  1  0.49299577  0.67619748  0.12444649  1
  La  La60  1  0.66514796  0.84382578  0.12552322  1
  La  La61  1  -0.00984153  0.15432130  0.36742709  1
  La  La62  1  0.49395502  0.01049373  0.12365004  1
  La  La63  1  0.67018011  0.84871914  0.62607121  1
  La  La64  1  0.32953480  0.49111421  0.87359664  1
  La  La65  1  0.50203203  0.65153712  0.87240499  1
  La  La66  1  0.67769203  0.18381577  0.63073926  1
  La  La67  1  0.83115553  0.67987482  0.12201274  1
  La  La68  1  0.50285059  0.65088681  0.37904279  1
  La  La69  1  0.82647459  0.68420568  0.62342554  1
  La  La70  1  0.33625171  0.84546553  0.62480425  1
  La  La71  1  0.83116615  0.01580200  0.12492229  1
  In  In72  1  0.16612368  0.50044482  0.25303759  1
  In  In73  1  0.33453089  0.33856600  -0.00203842  1
  In  In74  1  0.16729550  0.16465066  0.00056560  1
  In  In75  1  0.66772178  0.66770851  -0.00201302  1
  In  In76  1  0.16490803  0.83316369  0.25276436  1
  In  In77  1  0.83140076  0.83373316  0.24902049  1
  In  In78  1  0.33640196  0.66794033  0.25142790  1
  In  In79  1  0.66781713  -0.00292836  0.25259986  1
  In  In80  1  0.33105571  0.00114897  0.50095303  1
  In  In81  1  0.49833020  0.16238938  0.24868658  1
  In  In82  1  0.16978854  0.16574156  0.75217010  1
  In  In83  1  0.33585599  0.66720734  0.74937034  1
  In  In84  1  0.66742863  0.66855506  0.75138875  1
  In  In85  1  0.49920599  0.50285035  -0.00179757  1
  In  In86  1  0.83254347  0.50436704  0.24851728  1
  In  In87  1  0.33072762  0.00051546  0.25102792  1
  In  In88  1  0.00003806  0.66572955  0.24887735  1
  In  In89  1  0.66351600  -0.00335737  0.00383635  1
  In  In90  1  0.66759050  0.33635880  0.49955041  1
  In  In91  1  0.83206479  0.16677505  0.49911307  1
  In  In92  1  -0.00153485  0.32759905  0.49969576  1
  In  In93  1  0.49975984  0.16366031  0.00020965  1
  In  In94  1  0.83377546  0.50054046  0.49812690  1
  In  In95  1  0.00085653  0.66421982  0.74712775  1
  In  In96  1  0.33375812  0.33457021  0.25291003  1
  In  In97  1  0.33810962  0.33883572  0.49965024  1
  In  In98  1  0.33207733  0.00029631  0.75230859  1
  In  In99  1  0.50359153  0.16416235  0.50176436  1
  In  In100  1  0.16648310  0.16572033  0.49924653  1
  In  In101  1  -0.00045605  0.33286747  0.74941359  1
  In  In102  1  0.83341005  0.17013464  0.00009725  1
  In  In103  1  0.66885385  0.00219718  0.49732012  1
  In  In104  1  0.83058842  0.83356931  0.75514489  1
  In  In105  1  0.83116511  0.50092794  0.75090447  1
  In  In106  1  -0.00248195  -0.00474693  0.50271948  1
  In  In107  1  0.50187410  0.16428414  0.74722046  1
  Ir  Ir108  1  -0.00261244  0.00019645  0.24750824  1
  Ir  Ir109  1  0.16731135  0.50204560  -0.00964877  1
  Ir  Ir110  1  0.66810152  0.33464604  0.24387512  1
  Ir  Ir111  1  0.50254209  0.82800392  0.24858060  1
  Ir  Ir112  1  0.16900186  0.83032467  0.00058159  1
  Ir  Ir113  1  0.83726835  0.83157041  0.00724644  1
  Ir  Ir114  1  -0.00061246  0.32980629  0.24531056  1
  Ir  Ir115  1  0.00064855  0.33804836  -0.00029121  1
  Ir  Ir116  1  0.66565710  0.66927216  0.49810276  1
  Ir  Ir117  1  0.83189525  0.16392676  0.75238348  1
  Ir  Ir118  1  0.66410058  0.33698696  0.75476467  1
  Ir  Ir119  1  0.17242239  0.50152387  0.74880014  1
  Ir  Ir120  1  0.83391319  0.16690420  0.24625775  1
  Ir  Ir121  1  0.49927247  0.82878150  0.49913085  1
  Ir  Ir122  1  0.33783820  0.34283317  0.75191599  1
  Ir  Ir123  1  0.66068223  0.67135932  0.24846035  1
  Ir  Ir124  1  0.66836374  0.33909262  -0.00130131  1
  Ir  Ir125  1  0.00104594  -0.00751049  0.00471137  1
  Ir  Ir126  1  0.33755613  0.66840454  -0.00234435  1
  Ir  Ir127  1  0.16686611  0.83215321  0.75052678  1
  Ir  Ir128  1  0.50433816  0.50782523  0.25049958  1
  Ir  Ir129  1  0.49675747  0.82769234  0.00212879  1
  Ir  Ir130  1  0.50253407  0.50444439  0.50107566  1
  Ir  Ir131  1  0.15958521  0.16423594  0.25142170  1
  Ir  Ir132  1  0.66284704  -0.00352583  0.75110522  1
  Ir  Ir133  1  0.83251598  0.50399931  0.00034298  1
  Ir  Ir134  1  0.33144251  -0.00793557  0.00108504  1
  Ir  Ir135  1  -0.00105000  -0.00163894  0.75533311  1
  Ir  Ir136  1  0.00255721  0.66790399  0.50226019  1
  Ir  Ir137  1  -0.00301605  0.66654729  0.00078548  1
  Ir  Ir138  1  0.49982478  0.83211289  0.74787356  1
  Ir  Ir139  1  0.83067930  0.83053685  0.49898374  1
  Ir  Ir140  1  0.16686724  0.50574042  0.50471609  1
  Ir  Ir141  1  0.50063507  0.49994960  0.74768452  1
  Ir  Ir142  1  0.16518999  0.82955991  0.50638107  1
  Ir  Ir143  1  0.33290485  0.66747551  0.50310896  1
  O  O144  1  0.31848389  0.35132391  0.12489594  1
  O  O145  1  0.31784835  0.34289890  0.63330832  1
  O  O146  1  0.32698288  0.64981347  0.11633796  1
  O  O147  1  0.30584999  0.65627080  0.62285516  1
  O  O148  1  0.29869463  0.98391159  0.11855809  1
  O  O149  1  0.29804726  0.98360145  0.62594544  1
  O  O150  1  0.64627558  0.34083851  0.11965684  1
  O  O151  1  0.65138602  0.32479653  0.63494648  1
  O  O152  1  0.63157366  0.66837803  0.12783630  1
  O  O153  1  0.64689528  0.65732133  0.61807623  1
  O  O154  1  0.63121700  0.98143135  0.12847370  1
  O  O155  1  0.64949479  0.98739576  0.62871242  1
  O  O156  1  0.97005946  0.33397090  0.12175882  1
  O  O157  1  0.96379851  0.33046059  0.62448164  1
  O  O158  1  0.96704065  0.66486703  0.11940545  1
  O  O159  1  0.96653141  0.66444422  0.61860158  1
  O  O160  1  0.96774176  0.98288175  0.12661416  1
  O  O161  1  0.98038568  0.99752202  0.63470847  1
  O  O162  1  0.18222139  0.15662723  0.12917681  1
  O  O163  1  0.18945798  0.14319993  0.62820435  1
  O  O164  1  0.19225299  0.49885152  0.11011126  1
  O  O165  1  0.20199624  0.50262760  0.62754678  1
  O  O166  1  0.19587393  0.82876292  0.11890506  1
  O  O167  1  0.19850769  0.82305272  0.62791336  1
  O  O168  1  0.52483678  0.14810683  0.12287765  1
  O  O169  1  0.54407288  0.16218266  0.62762594  1
  O  O170  1  0.51744621  0.51339725  0.12903784  1
  O  O171  1  0.53571337  0.49863163  0.62390127  1
  O  O172  1  0.53087194  0.81277658  0.12574952  1
  O  O173  1  0.53182725  0.82981376  0.62357170  1
  O  O174  1  0.85303178  0.15793358  0.12763913  1
  O  O175  1  0.84638732  0.16786464  0.63344797  1
  O  O176  1  0.85192522  0.49394606  0.12015133  1
  O  O177  1  0.84669247  0.48103652  0.62351007  1
  O  O178  1  0.86926591  0.81869109  0.12349300  1
  O  O179  1  0.84979694  0.82304427  0.61908508  1
  O  O180  1  0.12641815  0.16573392  0.36749542  1
  O  O181  1  0.14878699  0.18123339  0.87743329  1
  O  O182  1  0.13453572  0.50779014  0.38533297  1
  O  O183  1  0.14591941  0.50816111  0.86866474  1
  O  O184  1  0.13166742  0.83372707  0.38625879  1
  O  O185  1  0.14409194  0.84160669  0.87477498  1
  O  O186  1  0.47041336  0.17892412  0.37345531  1
  O  O187  1  0.48834838  0.17733017  0.87376532  1
  O  O188  1  0.48282706  0.51610701  0.37602883  1
  O  O189  1  0.46929785  0.51187335  0.86576019  1
  O  O190  1  0.47664775  0.84088692  0.37282140  1
  O  O191  1  0.47863901  0.84656485  0.87652639  1
  O  O192  1  0.81742188  0.16742846  0.36500412  1
  O  O193  1  0.81405547  0.16209298  0.87239327  1
  O  O194  1  0.81236269  0.50054025  0.37288408  1
  O  O195  1  0.80001033  0.51538966  0.88122707  1
  O  O196  1  0.80122293  0.84094569  0.37871573  1
  O  O197  1  0.81564720  0.83377185  0.88792919  1
  O  O198  1  0.01151657  0.01262263  0.36798205  1
  O  O199  1  0.03051431  -0.00380618  0.88146867  1
  O  O200  1  0.01486623  0.33775472  0.36506803  1
  O  O201  1  0.02842026  0.33755473  0.88013716  1
  O  O202  1  0.02243502  0.68284521  0.38328854  1
  O  O203  1  0.01357644  0.66955519  0.88053480  1
  O  O204  1  0.36745928  0.00655348  0.37404966  1
  O  O205  1  0.36705279  -0.00647794  0.88354737  1
  O  O206  1  0.37308777  0.34273599  0.37483332  1
  O  O207  1  0.36866505  0.35360277  0.86936922  1
  O  O208  1  0.36347872  0.67071094  0.38312283  1
  O  O209  1  0.36442929  0.67141659  0.87693013  1
  O  O210  1  0.70835195  -0.00431298  0.37447420  1
  O  O211  1  0.67847268  -0.00830020  0.87299271  1
  O  O212  1  0.68447462  0.33203118  0.36322246  1
  O  O213  1  0.68890660  0.34974657  0.87713661  1
  O  O214  1  0.68639152  0.68300095  0.37229715  1
  O  O215  1  0.70618620  0.67325356  0.87505742  1
  O  O216  1  0.07680592  0.07732200  0.02227054  1
  O  O217  1  0.08141112  0.07777028  0.52022611  1
  O  O218  1  0.07454894  0.43067544  0.01411775  1
  O  O219  1  0.08072702  0.43407358  0.51568799  1
  O  O220  1  0.06936704  0.76135912  0.02603073  1
  O  O221  1  0.07790763  0.75513480  0.53213931  1
  O  O222  1  0.39987977  0.08045466  0.02303573  1
  O  O223  1  0.40707260  0.09245289  0.52213665  1
  O  O224  1  0.39435870  0.44740635  0.01127030  1
  O  O225  1  0.40856752  0.44154844  0.52456224  1
  O  O226  1  0.39955888  0.76398401  0.02711572  1
  O  O227  1  0.40007574  0.76257126  0.52622368  1
  O  O228  1  0.74513587  0.08556282  0.02028991  1
  O  O229  1  0.72943735  0.10468856  0.52435985  1
  O  O230  1  0.74020733  0.43286653  0.01761868  1
  O  O231  1  0.72763502  0.43725784  0.52245148  1
  O  O232  1  0.74288885  0.76492286  0.03411032  1
  O  O233  1  0.73369629  0.76305440  0.52513753  1
  O  O234  1  0.08811581  0.26583976  0.01272109  1
  O  O235  1  0.09496597  0.25991959  0.52001618  1
  O  O236  1  0.09153348  0.59572999  0.01542727  1
  O  O237  1  0.09768567  0.60144478  0.52971644  1
  O  O238  1  0.09803275  0.92258927  0.02834052  1
  O  O239  1  0.09717956  0.91920540  0.52944015  1
  O  O240  1  0.43042091  0.26373259  0.00578535  1
  O  O241  1  0.42968547  0.26225325  0.51704978  1
  O  O242  1  0.43843098  0.61284319  0.00730624  1
  O  O243  1  0.42733827  0.59759536  0.52043782  1
  O  O244  1  0.42531641  0.92140216  0.03320885  1
  O  O245  1  0.42414949  0.91422761  0.51926877  1
  O  O246  1  0.76285516  0.27179778  0.02162866  1
  O  O247  1  0.76937806  0.27074852  0.52360235  1
  O  O248  1  0.76916239  0.59907277  0.02511179  1
  O  O249  1  0.76091748  0.60359645  0.52341307  1
  O  O250  1  0.76776613  0.92259059  0.03271634  1
  O  O251  1  0.75803649  0.91667708  0.52294895  1
  O  O252  1  0.22744130  0.07281577  0.26090573  1
  O  O253  1  0.23357460  0.06449303  0.78352077  1
  O  O254  1  0.23963994  0.40812775  0.26676878  1
  O  O255  1  0.24124825  0.40913376  0.77904813  1
  O  O256  1  0.24210823  0.74092250  0.26409256  1
  O  O257  1  0.23645112  0.74023283  0.75968012  1
  O  O258  1  0.56683604  0.06019316  0.27753405  1
  O  O259  1  0.56999617  0.05997023  0.77423551  1
  O  O260  1  0.56748885  0.40472724  0.26829306  1
  O  O261  1  0.56928314  0.40545691  0.78080111  1
  O  O262  1  0.56404507  0.73274601  0.27665255  1
  O  O263  1  0.56439142  0.73678598  0.77467922  1
  O  O264  1  0.89847470  0.06743184  0.26871000  1
  O  O265  1  0.90255750  0.06850813  0.77234016  1
  O  O266  1  0.91076751  0.40133514  0.25533955  1
  O  O267  1  0.90262691  0.40418819  0.76440103  1
  O  O268  1  0.90505013  0.74182801  0.27001064  1
  O  O269  1  0.89850702  0.73443534  0.76441173  1
  O  O270  1  0.25507515  0.22835275  0.27687875  1
  O  O271  1  0.26604043  0.25462085  0.77406455  1
  O  O272  1  0.26930438  0.56877224  0.25111099  1
  O  O273  1  0.26640445  0.56627079  0.76779530  1
  O  O274  1  0.26084635  0.90503863  0.26182075  1
  O  O275  1  0.25287445  0.90404103  0.76807822  1
  O  O276  1  0.59317738  0.24813711  0.26091549  1
  O  O277  1  0.59742689  0.24663274  0.77258077  1
  O  O278  1  0.59678373  0.57825397  0.27234160  1
  O  O279  1  0.59448015  0.56683924  0.77371010  1
  O  O280  1  0.59892793  0.88933363  0.27431627  1
  O  O281  1  0.59384253  0.90155315  0.76519782  1
  O  O282  1  0.93248607  0.23238696  0.26525049  1
  O  O283  1  0.92131060  0.23278235  0.76741489  1
  O  O284  1  0.93395432  0.56625364  0.27487004  1
  O  O285  1  0.92235595  0.57694809  0.77102900  1
  O  O286  1  0.93094743  0.90818452  0.27695956  1
  O  O287  1  0.92523521  0.91130162  0.76798097  1
  O  O288  1  0.26475949  0.24226317  0.47648242  1
  O  O289  1  0.25460779  0.24858130  0.98440144  1
  O  O290  1  0.26247821  0.57494838  0.48650448  1
  O  O291  1  0.26857760  0.57014230  0.97348684  1
  O  O292  1  0.25174802  0.90088081  0.48665503  1
  O  O293  1  0.25755547  0.90381648  0.97554582  1
  O  O294  1  0.59343745  0.24582502  0.47753611  1
  O  O295  1  0.59905074  0.24950173  0.98077662  1
  O  O296  1  0.59493817  0.57695175  0.47786099  1
  O  O297  1  0.59557344  0.57246714  0.96580911  1
  O  O298  1  0.59257958  0.89606407  0.47713709  1
  O  O299  1  0.58966868  0.89407048  0.99128773  1
  O  O300  1  0.93525526  0.22497960  0.47336328  1
  O  O301  1  0.92900432  0.24859637  0.98469780  1
  O  O302  1  0.93837519  0.57613932  0.47537395  1
  O  O303  1  0.92099098  0.57786162  0.97471043  1
  O  O304  1  0.92397707  0.89847122  0.47120534  1
  O  O305  1  0.93271473  0.89910927  0.99084308  1
  O  O306  1  0.24903235  0.08297080  0.46290567  1
  O  O307  1  0.23889790  0.05966944  0.97877634  1
  O  O308  1  0.23956454  0.41907672  0.48577963  1
  O  O309  1  0.23461177  0.41240447  0.96329125  1
  O  O310  1  0.23668405  0.73551670  0.49040618  1
  O  O311  1  0.24152402  0.73712854  0.98162662  1
  O  O312  1  0.56627007  0.05985383  0.46908910  1
  O  O313  1  0.56088409  0.05776036  0.97965916  1
  O  O314  1  0.56237963  0.40878985  0.47601070  1
  O  O315  1  0.57319806  0.40603061  0.97288508  1
  O  O316  1  0.57115407  0.73825918  0.47096465  1
  O  O317  1  0.56121566  0.73375411  0.97468404  1
  O  O318  1  0.89683160  0.06231313  0.47995013  1
  O  O319  1  0.91329614  0.06717193  0.99496158  1
  O  O320  1  0.91794298  0.41431357  0.47291245  1
  O  O321  1  0.90259440  0.40854398  0.98588122  1
  O  O322  1  0.90999777  0.74211691  0.47727309  1
  O  O323  1  0.89824536  0.73194567  0.98242236  1
  O  O324  1  0.09217280  0.25862175  0.23082347  1
  O  O325  1  0.09516204  0.26123383  0.73855282  1
  O  O326  1  0.09541725  0.59467782  0.23359161  1
  O  O327  1  0.10483177  0.59456601  0.72416245  1
  O  O328  1  0.09043732  0.93327153  0.22097402  1
  O  O329  1  0.09821151  0.93155699  0.73607039  1
  O  O330  1  0.42519985  0.25940092  0.23194595  1
  O  O331  1  0.42853700  0.27231795  0.74234321  1
  O  O332  1  0.44509575  0.60746818  0.24109289  1
  O  O333  1  0.43145743  0.58985969  0.72609360  1
  O  O334  1  0.43770334  0.92068055  0.22274044  1
  O  O335  1  0.42563559  0.91908833  0.72980110  1
  O  O336  1  0.76963619  0.26571325  0.22116257  1
  O  O337  1  0.76084613  0.26347397  0.73028764  1
  O  O338  1  0.75905667  0.60806159  0.22410035  1
  O  O339  1  0.76133601  0.59720976  0.71587015  1
  O  O340  1  0.76472258  0.92795430  0.21513553  1
  O  O341  1  0.75163003  0.92511583  0.73529548  1
  O  O342  1  0.06796564  0.09088678  0.22388499  1
  O  O343  1  0.07256205  0.08280253  0.73882478  1
  O  O344  1  0.06802012  0.42136053  0.23700962  1
  O  O345  1  0.08295000  0.43267347  0.73400111  1
  O  O346  1  0.06235269  0.77197936  0.23367966  1
  O  O347  1  0.08064676  0.75720293  0.73187710  1
  O  O348  1  0.40832028  0.08297043  0.21770525  1
  O  O349  1  0.40514154  0.09331109  0.73321567  1
  O  O350  1  0.41067067  0.44582358  0.22962394  1
  O  O351  1  0.40298205  0.43890390  0.72536197  1
  O  O352  1  0.40776225  0.76575743  0.21880729  1
  O  O353  1  0.40570815  0.76671868  0.72384480  1
  O  O354  1  0.74498119  0.09463696  0.22627001  1
  O  O355  1  0.72896133  0.09525861  0.73180219  1
  O  O356  1  0.74401165  0.41963873  0.22641027  1
  O  O357  1  0.72452497  0.43439886  0.73502050  1
  O  O358  1  0.72642930  0.76452840  0.22658393  1
  O  O359  1  0.73418986  0.76503516  0.71884065  1
