# generated using pymatgen
data_BaLaInIrO6
_symmetry_space_group_name_H-M   'P 1'
_cell_length_a   17.51558879
_cell_length_b   17.54075099
_cell_length_c   16.48035849
_cell_angle_alpha   90.01073919
_cell_angle_beta   90.01490502
_cell_angle_gamma   90.01357584
_symmetry_Int_Tables_number   1
_chemical_formula_structural   BaLaInIrO6
_chemical_formula_sum   'Ba36 La36 In36 Ir36 O216'
_cell_volume   5063.36860119
_cell_formula_units_Z   36
loop_
 _symmetry_equiv_pos_site_id
 _symmetry_equiv_pos_as_xyz
  1  'x, y, z'
loop_
 _atom_site_type_symbol
 _atom_site_label
 _atom_site_symmetry_multiplicity
 _atom_site_fract_x
 _atom_site_fract_y
 _atom_site_fract_z
 _atom_site_occupancy
  Ba  Ba0  1  0.49699505  0.34203294  0.12405616  1
  Ba  Ba1  1  0.33286707  0.83845896  0.62762368  1
  Ba  Ba2  1  -0.00421145  0.15349196  0.87389407  1
  Ba  Ba3  1  0.16317370  0.66208443  0.87722356  1
  Ba  Ba4  1  0.83805727  0.32211218  0.37619035  1
  Ba  Ba5  1  0.83989591  0.67616182  0.62173797  1
  Ba  Ba6  1  0.16354281  0.34249397  0.63034573  1
  Ba  Ba7  1  0.50338616  0.67618067  0.12325639  1
  Ba  Ba8  1  0.50089804  0.32442836  0.37340594  1
  Ba  Ba9  1  0.66869744  0.82571261  0.86900369  1
  Ba  Ba10  1  1.00004685  0.84577472  0.12212067  1
  Ba  Ba11  1  -0.00058644  0.15426436  0.37536534  1
  Ba  Ba12  1  0.49422274  0.65911437  0.37614981  1
  Ba  Ba13  1  0.99887372  0.50996327  0.12800174  1
  Ba  Ba14  1  0.16490432  0.32243405  0.87503018  1
  Ba  Ba15  1  0.66264112  0.16170086  0.37961431  1
  Ba  Ba16  1  0.17155820  0.65987845  0.37990555  1
  Ba  Ba17  1  0.49846497  0.98783786  0.37428140  1
  Ba  Ba18  1  0.49994865  0.00586344  0.62485972  1
  Ba  Ba19  1  1.00215924  0.84805399  0.62269052  1
  Ba  Ba20  1  1.00247867  0.17479418  0.62578131  1
  Ba  Ba21  1  0.82779628  0.67570701  0.12161579  1
  Ba  Ba22  1  0.16291052  0.34241086  0.12192710  1
  Ba  Ba23  1  0.16266321  0.68103330  0.62779016  1
  Ba  Ba24  1  0.17214319  0.98779112  0.37568314  1
  Ba  Ba25  1  0.83114050  0.00945764  0.12547332  1
  Ba  Ba26  1  0.83607540  0.32305214  0.87652609  1
  Ba  Ba27  1  0.83796918  0.33971823  0.62692800  1
  Ba  Ba28  1  0.66681333  0.15955621  0.87527906  1
  Ba  Ba29  1  0.00492039  0.49268602  0.37776963  1
  Ba  Ba30  1  0.33002894  0.82440606  0.38170322  1
  Ba  Ba31  1  0.83140776  0.00751178  0.62695037  1
  Ba  Ba32  1  0.33132202  0.15382214  0.36999822  1
  Ba  Ba33  1  0.32847486  0.15851469  0.87518505  1
  Ba  Ba34  1  0.66840719  0.49470912  0.87590807  1
  Ba  Ba35  1  0.16555028  0.99361264  0.87172264  1
  La  La36  1  0.67212435  0.51837822  0.62235860  1
  La  La37  1  0.49452722  0.34204604  0.62561079  1
  La  La38  1  0.67236379  0.51181836  0.12632107  1
  La  La39  1  0.50823950  0.31723402  0.87796584  1
  La  La40  1  0.32863277  0.48598870  0.87996216  1
  La  La41  1  0.32350451  0.48761239  0.37496690  1
  La  La42  1  0.15800400  0.01203685  0.12717923  1
  La  La43  1  0.16284734  0.01187982  0.62305138  1
  La  La44  1  0.33647589  0.51702618  0.62457156  1
  La  La45  1  0.67383604  0.84509920  0.62329012  1
  La  La46  1  -0.00250625  0.48466441  0.87701379  1
  La  La47  1  0.66365305  0.82403495  0.37440709  1
  La  La48  1  0.66520931  0.48708983  0.37233130  1
  La  La49  1  0.83216759  0.34662271  0.12784630  1
  La  La50  1  -0.00585112  0.82332871  0.86956623  1
  La  La51  1  1.00037397  0.17772272  0.12338684  1
  La  La52  1  0.49907241  0.00961484  0.12722264  1
  La  La53  1  0.84223962  0.65174742  0.37338897  1
  La  La54  1  0.49738056  0.68287293  0.62760665  1
  La  La55  1  0.50228012  0.98187605  0.87325013  1
  La  La56  1  0.00137753  0.82230480  0.37262155  1
  La  La57  1  1.00838181  0.51180398  0.62900770  1
  La  La58  1  0.33224347  0.84409854  0.13034434  1
  La  La59  1  0.84175422  0.98713019  0.87555670  1
  La  La60  1  0.15573808  0.68383558  0.13226281  1
  La  La61  1  0.66795459  0.18500916  0.12679878  1
  La  La62  1  0.84035337  0.98807385  0.37633104  1
  La  La63  1  0.17761742  0.31771358  0.38023067  1
  La  La64  1  0.33367997  0.18048104  0.12207926  1
  La  La65  1  0.67417678  0.84950928  0.12403219  1
  La  La66  1  0.67264413  0.18521175  0.62373390  1
  La  La67  1  0.84346323  0.65180909  0.86913772  1
  La  La68  1  0.33055535  0.82202485  0.87409521  1
  La  La69  1  0.33186410  0.17449313  0.62434576  1
  La  La70  1  0.33638047  0.51697383  0.12563201  1
  La  La71  1  0.50583989  0.65728967  0.86903732  1
  In  In72  1  0.49884895  0.50105592  -0.00223698  1
  In  In73  1  0.49898524  0.16132767  -0.00196663  1
  In  In74  1  0.16666204  0.16413293  -0.00171085  1
  In  In75  1  0.16845509  0.50192717  0.75563203  1
  In  In76  1  0.33304353  -0.00037691  0.75198530  1
  In  In77  1  0.66778185  0.00116770  0.50000287  1
  In  In78  1  0.33290951  -0.00264779  0.50214580  1
  In  In79  1  0.00489314  0.33364199  0.49868124  1
  In  In80  1  0.33198498  0.33474727  0.24882819  1
  In  In81  1  0.66515064  0.33939592  0.75139581  1
  In  In82  1  0.16558923  0.16365351  0.24833547  1
  In  In83  1  0.66402281  0.00280961  0.75133165  1
  In  In84  1  0.66639091  0.66721902  0.25309676  1
  In  In85  1  0.66665399  0.66932611  -0.00637625  1
  In  In86  1  0.00254177  0.33333367  0.25011378  1
  In  In87  1  0.83158156  0.83312629  0.24789192  1
  In  In88  1  0.33203786  0.66924849  0.24898156  1
  In  In89  1  0.00057312  0.66715096  0.00196503  1
  In  In90  1  0.49808598  0.83219373  0.00256713  1
  In  In91  1  0.83145187  0.16562646  0.75009834  1
  In  In92  1  0.16810201  0.83719890  -0.00165081  1
  In  In93  1  0.16706268  0.50075645  0.24898225  1
  In  In94  1  0.83556475  0.50049448  0.50197738  1
  In  In95  1  0.33518610  0.66636361  0.75534847  1
  In  In96  1  0.49962254  0.50154446  0.49852126  1
  In  In97  1  0.83396491  0.49951177  -0.00156467  1
  In  In98  1  0.66783374  0.00326439  0.25034463  1
  In  In99  1  0.66466399  0.33869007  0.50156348  1
  In  In100  1  0.49839014  0.16512039  0.50177073  1
  In  In101  1  0.83439704  0.16563067  0.50093582  1
  In  In102  1  0.50060841  0.49971140  0.74794021  1
  In  In103  1  0.83014409  0.16410073  0.00282459  1
  In  In104  1  0.49924743  0.50187839  0.24873299  1
  In  In105  1  0.33439362  0.33357536  0.75126459  1
  In  In106  1  0.83430939  0.83166021  0.49857067  1
  In  In107  1  0.49963992  0.16442126  0.24772682  1
  Ir  Ir108  1  -0.00069333  -0.00219685  0.24964428  1
  Ir  Ir109  1  0.83767527  0.50431910  0.74719629  1
  Ir  Ir110  1  0.33418547  0.66625847  0.50490945  1
  Ir  Ir111  1  -0.00113864  0.33269157  0.00011333  1
  Ir  Ir112  1  -0.00009101  0.33654683  0.75367828  1
  Ir  Ir113  1  0.32979784  0.66852825  0.00147903  1
  Ir  Ir114  1  0.33297973  0.33593183  -0.00016917  1
  Ir  Ir115  1  0.50417891  0.82683498  0.49922419  1
  Ir  Ir116  1  0.16425689  0.83272894  0.50267951  1
  Ir  Ir117  1  0.50112283  0.83196769  0.75000366  1
  Ir  Ir118  1  0.66586188  0.33404690  0.00379376  1
  Ir  Ir119  1  0.16399254  0.16438668  0.74904797  1
  Ir  Ir120  1  -0.00122593  -0.00318397  0.00125177  1
  Ir  Ir121  1  0.83261061  0.50114341  0.25130135  1
  Ir  Ir122  1  0.67184454  0.33529206  0.24541664  1
  Ir  Ir123  1  0.83364043  0.83164035  0.75088099  1
  Ir  Ir124  1  0.50168675  0.83371785  0.25142050  1
  Ir  Ir125  1  0.16514179  0.83379110  0.25041139  1
  Ir  Ir126  1  0.83135172  0.83548145  -0.00486109  1
  Ir  Ir127  1  0.66456550  -0.00209836  -0.00275527  1
  Ir  Ir128  1  0.32940398  -0.00677590  0.24232046  1
  Ir  Ir129  1  0.00163820  -0.00468829  0.75005402  1
  Ir  Ir130  1  0.16351992  0.83457546  0.75102095  1
  Ir  Ir131  1  0.67091445  0.66821590  0.74544100  1
  Ir  Ir132  1  0.33452817  -0.00274525  0.00339779  1
  Ir  Ir133  1  0.00353335  0.66739973  0.49721918  1
  Ir  Ir134  1  0.16939338  0.50159261  0.00079576  1
  Ir  Ir135  1  -0.00008463  0.66921818  0.74866428  1
  Ir  Ir136  1  0.17098446  0.50207764  0.50462501  1
  Ir  Ir137  1  0.66792539  0.66987100  0.50014110  1
  Ir  Ir138  1  0.00394662  -0.00303635  0.49676824  1
  Ir  Ir139  1  -0.00110761  0.66943777  0.25369573  1
  Ir  Ir140  1  0.49901488  0.16703657  0.75071790  1
  Ir  Ir141  1  0.83392305  0.16553952  0.24771450  1
  Ir  Ir142  1  0.16846287  0.16547013  0.50205550  1
  Ir  Ir143  1  0.33006913  0.33399464  0.50630124  1
  O  O144  1  0.31025484  0.32494183  0.11727551  1
  O  O145  1  0.30943590  0.31592058  0.62313607  1
  O  O146  1  0.29130592  0.66019445  0.11796906  1
  O  O147  1  0.31340772  0.66045956  0.62514224  1
  O  O148  1  0.29773475  0.98080930  0.12089498  1
  O  O149  1  0.30166829  0.99379928  0.62803557  1
  O  O150  1  0.64645713  0.32816995  0.12458609  1
  O  O151  1  0.62940206  0.32990482  0.62832349  1
  O  O152  1  0.65216716  0.64817531  0.12343011  1
  O  O153  1  0.63460843  0.65776755  0.62212618  1
  O  O154  1  0.63476214  0.98686742  0.11648602  1
  O  O155  1  0.64588633  0.97627880  0.62750245  1
  O  O156  1  0.96884326  0.32547660  0.11910792  1
  O  O157  1  0.99018922  0.33986432  0.63388090  1
  O  O158  1  0.97907031  0.66827612  0.13268655  1
  O  O159  1  0.98614790  0.65058173  0.62190895  1
  O  O160  1  0.97694510  1.00128233  0.12492590  1
  O  O161  1  0.98210906  1.00234403  0.62375723  1
  O  O162  1  0.19832099  0.15192918  0.12158813  1
  O  O163  1  0.19413000  0.15729953  0.62545990  1
  O  O164  1  0.20148003  0.49693509  0.11810048  1
  O  O165  1  0.19773926  0.50156335  0.62456403  1
  O  O166  1  0.19237641  0.82598659  0.12839503  1
  O  O167  1  0.18616494  0.83626983  0.62661255  1
  O  O168  1  0.53194452  0.15206648  0.12069150  1
  O  O169  1  0.53196741  0.16332847  0.63495149  1
  O  O170  1  0.53752982  0.50078550  0.12178032  1
  O  O171  1  0.53787716  0.48446675  0.62239811  1
  O  O172  1  0.53313473  0.83594358  0.13165026  1
  O  O173  1  0.53471283  0.82196306  0.62475320  1
  O  O174  1  0.86335284  0.16473635  0.12820772  1
  O  O175  1  0.85658463  0.16236795  0.62738891  1
  O  O176  1  0.84779893  0.49467073  0.12921331  1
  O  O177  1  0.87025452  0.50411691  0.63011787  1
  O  O178  1  0.85065835  0.83193926  0.11484279  1
  O  O179  1  0.85302956  0.83102011  0.63098497  1
  O  O180  1  0.15048286  0.17178803  0.38049934  1
  O  O181  1  0.14614468  0.16196925  0.87038058  1
  O  O182  1  0.15501453  0.50533214  0.38581587  1
  O  O183  1  0.13467037  0.50698928  0.88353289  1
  O  O184  1  0.13657659  0.83392563  0.37695118  1
  O  O185  1  0.13312390  0.83547741  0.86987746  1
  O  O186  1  0.48004683  0.16919177  0.37263864  1
  O  O187  1  0.47595958  0.17855522  0.87206883  1
  O  O188  1  0.45926653  0.50301858  0.37553593  1
  O  O189  1  0.46186498  0.51800720  0.87300493  1
  O  O190  1  0.47699127  0.82813776  0.37569333  1
  O  O191  1  0.46793553  0.84053171  0.87145030  1
  O  O192  1  0.81393143  0.16080122  0.36629266  1
  O  O193  1  0.81876520  0.16156926  0.87744874  1
  O  O194  1  0.80556399  0.50911499  0.37201142  1
  O  O195  1  0.81772681  0.50949821  0.86697392  1
  O  O196  1  0.80158565  0.84597441  0.37341305  1
  O  O197  1  0.81615695  0.84706223  0.87440352  1
  O  O198  1  0.02572443  -0.00616455  0.37261680  1
  O  O199  1  0.01874932  -0.01361994  0.87572637  1
  O  O200  1  0.04077537  0.33485968  0.37389691  1
  O  O201  1  0.01859562  0.34652210  0.87699054  1
  O  O202  1  0.02351991  0.68106735  0.37493486  1
  O  O203  1  0.01281694  0.68211659  0.86977313  1
  O  O204  1  0.34619806  -0.00303546  0.36535464  1
  O  O205  1  0.36653025  0.00449537  0.88273645  1
  O  O206  1  0.34958215  0.34478217  0.38650162  1
  O  O207  1  0.36859492  0.34437538  0.88021744  1
  O  O208  1  0.34405951  0.66845043  0.38300257  1
  O  O209  1  0.36867918  0.68118689  0.88315617  1
  O  O210  1  0.70403636  0.00370408  0.37367414  1
  O  O211  1  0.70020386  0.00351519  0.87948324  1
  O  O212  1  0.69148993  0.34389258  0.36443107  1
  O  O213  1  0.68538384  0.33322497  0.88511747  1
  O  O214  1  0.70283936  0.68483983  0.38193550  1
  O  O215  1  0.70719852  0.67183296  0.86346585  1
  O  O216  1  0.06709003  0.09053806  0.02599204  1
  O  O217  1  0.08048021  0.08847008  0.52351426  1
  O  O218  1  0.07199341  0.43211855  0.01536364  1
  O  O219  1  0.07722517  0.43751340  0.52746597  1
  O  O220  1  0.08039664  0.75535867  0.01966659  1
  O  O221  1  0.07149359  0.76250465  0.51316841  1
  O  O222  1  0.39986040  0.09006063  0.03288024  1
  O  O223  1  0.39829965  0.09743910  0.52578187  1
  O  O224  1  0.39724237  0.43102479  0.02142077  1
  O  O225  1  0.39860277  0.42530812  0.53239298  1
  O  O226  1  0.39453306  0.76327169  0.02868742  1
  O  O227  1  0.41319824  0.75218528  0.52820259  1
  O  O228  1  0.72615703  0.09415013  0.02617034  1
  O  O229  1  0.73320785  0.10087014  0.52800216  1
  O  O230  1  0.73678357  0.42420741  0.02671104  1
  O  O231  1  0.73451362  0.43845663  0.52510805  1
  O  O232  1  0.73530395  0.77156486  0.01860318  1
  O  O233  1  0.73112284  0.76286883  0.52386797  1
  O  O234  1  0.08370297  0.25577045  0.01867145  1
  O  O235  1  0.10320546  0.25774474  0.51506894  1
  O  O236  1  0.10355017  0.59403112  0.02735973  1
  O  O237  1  0.09433970  0.59037242  0.52551281  1
  O  O238  1  0.09691458  0.93470356  0.02295406  1
  O  O239  1  0.10005620  0.93041716  0.52174381  1
  O  O240  1  0.41849856  0.25809498  0.01771092  1
  O  O241  1  0.42076637  0.26439379  0.53101653  1
  O  O242  1  0.41242967  0.59426104  0.02712366  1
  O  O243  1  0.42611195  0.59685793  0.53157403  1
  O  O244  1  0.42748713  0.93193054  0.02613262  1
  O  O245  1  0.42961781  0.91430028  0.51506546  1
  O  O246  1  0.75813331  0.26449692  0.03018678  1
  O  O247  1  0.75484686  0.26036749  0.51866186  1
  O  O248  1  0.75653320  0.58903096  0.00873453  1
  O  O249  1  0.75690241  0.60006323  0.51764133  1
  O  O250  1  0.75789467  0.92795065  0.01828370  1
  O  O251  1  0.75984005  0.92252841  0.51936048  1
  O  O252  1  0.23630967  0.05984170  0.25421023  1
  O  O253  1  0.23543090  0.07638662  0.76056907  1
  O  O254  1  0.23662104  0.40405187  0.28174685  1
  O  O255  1  0.24498008  0.41042223  0.77701410  1
  O  O256  1  0.22976134  0.73859921  0.25895802  1
  O  O257  1  0.24077949  0.74808048  0.77201447  1
  O  O258  1  0.56467203  0.06230128  0.25469592  1
  O  O259  1  0.55852895  0.07013193  0.77817542  1
  O  O260  1  0.58255549  0.40623565  0.26580488  1
  O  O261  1  0.56418991  0.40142556  0.78232438  1
  O  O262  1  0.57050981  0.74484713  0.27254652  1
  O  O263  1  0.57179336  0.73460697  0.76860372  1
  O  O264  1  0.89914355  0.06484719  0.27155082  1
  O  O265  1  0.90626691  0.05969776  0.77331553  1
  O  O266  1  0.89958254  0.40678387  0.25843102  1
  O  O267  1  0.91207582  0.41455557  0.77737561  1
  O  O268  1  0.90531319  0.73746281  0.27891299  1
  O  O269  1  0.90376899  0.73857693  0.77417165  1
  O  O270  1  0.25319105  0.24347850  0.26751943  1
  O  O271  1  0.25451830  0.23601045  0.76147422  1
  O  O272  1  0.26888966  0.56463501  0.26592038  1
  O  O273  1  0.26870849  0.56918043  0.77700102  1
  O  O274  1  0.26491363  0.89519725  0.25983500  1
  O  O275  1  0.25876089  0.89969460  0.77792404  1
  O  O276  1  0.60437477  0.24159247  0.25484171  1
  O  O277  1  0.58531896  0.23795299  0.77175858  1
  O  O278  1  0.59953799  0.56870788  0.27919773  1
  O  O279  1  0.59805620  0.58095705  0.76694075  1
  O  O280  1  0.59528330  0.89734639  0.27372577  1
  O  O281  1  0.58371748  0.90877306  0.77346373  1
  O  O282  1  0.92475226  0.23339265  0.26267718  1
  O  O283  1  0.92876302  0.24773503  0.76680114  1
  O  O284  1  0.92403957  0.57642969  0.27764674  1
  O  O285  1  0.93292750  0.57364357  0.77559911  1
  O  O286  1  0.92995820  0.90642205  0.27561680  1
  O  O287  1  0.92900528  0.90176257  0.77507331  1
  O  O288  1  0.25946531  0.24046933  0.47884044  1
  O  O289  1  0.26159690  0.24460853  0.98553882  1
  O  O290  1  0.27236052  0.56441828  0.48662613  1
  O  O291  1  0.26454736  0.56948426  0.97474332  1
  O  O292  1  0.25301726  0.90288465  0.48896203  1
  O  O293  1  0.27319882  0.90152664  0.97656324  1
  O  O294  1  0.58713626  0.24576667  0.48972738  1
  O  O295  1  0.59287969  0.24434356  0.98764221  1
  O  O296  1  0.60447667  0.57618546  0.47571897  1
  O  O297  1  0.58258739  0.58352016  0.96544846  1
  O  O298  1  0.59683002  0.89241891  0.47685506  1
  O  O299  1  0.59385508  0.90943150  0.97553658  1
  O  O300  1  0.92940884  0.23986401  0.48521126  1
  O  O301  1  0.92996068  0.24127873  0.98767275  1
  O  O302  1  0.92566037  0.58443402  0.47686442  1
  O  O303  1  0.93032303  0.57339955  0.97371533  1
  O  O304  1  0.93498184  0.90550615  0.47111111  1
  O  O305  1  0.92960810  0.90125859  0.97305011  1
  O  O306  1  0.23633219  0.07549007  0.48997604  1
  O  O307  1  0.24415651  0.06394218  0.98634662  1
  O  O308  1  0.23725347  0.40648647  0.47908181  1
  O  O309  1  0.24392346  0.41199967  0.97226202  1
  O  O310  1  0.23808136  0.73981665  0.48926471  1
  O  O311  1  0.24827992  0.74415459  0.97378118  1
  O  O312  1  0.56911190  0.06761778  0.48509855  1
  O  O313  1  0.56846595  0.06007416  0.97432053  1
  O  O314  1  0.57940929  0.41796413  0.46388778  1
  O  O315  1  0.57116716  0.39998212  0.97737144  1
  O  O316  1  0.57555889  0.73673427  0.47971047  1
  O  O317  1  0.56614213  0.73822826  0.97053079  1
  O  O318  1  0.90770795  0.06007260  0.47640487  1
  O  O319  1  0.90320794  0.06055059  0.98059945  1
  O  O320  1  0.91232055  0.41094424  0.48332522  1
  O  O321  1  0.91204242  0.40751508  0.98428123  1
  O  O322  1  0.91182525  0.73868537  0.47098904  1
  O  O323  1  0.89882594  0.74264262  0.97132543  1
  O  O324  1  0.08255864  0.24728269  0.21671458  1
  O  O325  1  0.09107687  0.25926053  0.73657697  1
  O  O326  1  0.09508529  0.60371400  0.23173481  1
  O  O327  1  0.08761279  0.59455929  0.73374725  1
  O  O328  1  0.09809907  0.93176787  0.22736326  1
  O  O329  1  0.09883482  0.92977685  0.72609102  1
  O  O330  1  0.41709071  0.25009078  0.22366863  1
  O  O331  1  0.43402547  0.26160210  0.72780612  1
  O  O332  1  0.42341300  0.59549185  0.22175095  1
  O  O333  1  0.43325964  0.59848996  0.71995859  1
  O  O334  1  0.42895238  0.92699875  0.22054048  1
  O  O335  1  0.42917875  0.92189110  0.73695470  1
  O  O336  1  0.76843614  0.26412678  0.22030764  1
  O  O337  1  0.75227902  0.25995903  0.73178628  1
  O  O338  1  0.76540576  0.59208439  0.23975643  1
  O  O339  1  0.76288715  0.59450031  0.72146273  1
  O  O340  1  0.75340408  0.92365735  0.22274185  1
  O  O341  1  0.76069212  0.91916420  0.73828934  1
  O  O342  1  0.06810798  0.08826359  0.22226390  1
  O  O343  1  0.07697871  0.08540056  0.72734173  1
  O  O344  1  0.07383830  0.42881683  0.23045360  1
  O  O345  1  0.06686113  0.43333153  0.73988468  1
  O  O346  1  0.06715911  0.76625826  0.23499898  1
  O  O347  1  0.06602839  0.76684458  0.73382248  1
  O  O348  1  0.39510805  0.08516408  0.21594973  1
  O  O349  1  0.40346223  0.10267096  0.72669465  1
  O  O350  1  0.40011450  0.43212634  0.22384551  1
  O  O351  1  0.40383430  0.42912918  0.71440382  1
  O  O352  1  0.40493817  0.76976959  0.22777674  1
  O  O353  1  0.41597638  0.75747713  0.73358329  1
  O  O354  1  0.73657733  0.10635259  0.22201799  1
  O  O355  1  0.72783590  0.10010164  0.72493883  1
  O  O356  1  0.73836901  0.43285132  0.22445098  1
  O  O357  1  0.74169267  0.43970080  0.72457485  1
  O  O358  1  0.73195187  0.76540406  0.22456305  1
  O  O359  1  0.73877462  0.76345672  0.72248309  1
