# generated using pymatgen
data_BaLaInIrO6
_symmetry_space_group_name_H-M   'P 1'
_cell_length_a   17.54592614
_cell_length_b   17.57510574
_cell_length_c   16.51214941
_cell_angle_alpha   90.01257142
_cell_angle_beta   89.99524655
_cell_angle_gamma   90.08098697
_symmetry_Int_Tables_number   1
_chemical_formula_structural   BaLaInIrO6
_chemical_formula_sum   'Ba36 La36 In36 Ir36 O216'
_cell_volume   5091.87117406
_cell_formula_units_Z   36
loop_
 _symmetry_equiv_pos_site_id
 _symmetry_equiv_pos_as_xyz
  1  'x, y, z'
loop_
 _atom_site_type_symbol
 _atom_site_label
 _atom_site_symmetry_multiplicity
 _atom_site_fract_x
 _atom_site_fract_y
 _atom_site_fract_z
 _atom_site_occupancy
  Ba  Ba0  1  0.49765419  0.67506914  0.62092730  1
  Ba  Ba1  1  0.83313655  0.67476350  0.62119113  1
  Ba  Ba2  1  0.16574225  0.34712585  0.12683381  1
  Ba  Ba3  1  0.33337504  0.16090231  0.87682347  1
  Ba  Ba4  1  0.99884600  0.17666337  0.62064895  1
  Ba  Ba5  1  -0.00007161  0.48990932  0.87441890  1
  Ba  Ba6  1  0.83254174  0.01018771  0.62432602  1
  Ba  Ba7  1  0.49974911  0.66996500  0.12440169  1
  Ba  Ba8  1  0.66445754  0.50265902  0.12583205  1
  Ba  Ba9  1  0.16425330  0.01174884  0.12924564  1
  Ba  Ba10  1  0.49884694  0.00593206  0.12720828  1
  Ba  Ba11  1  0.50366333  0.32169303  0.37712314  1
  Ba  Ba12  1  0.66262434  0.17169308  0.12481115  1
  Ba  Ba13  1  0.50171725  0.34137831  0.62866998  1
  Ba  Ba14  1  0.83468394  0.32341245  0.37711333  1
  Ba  Ba15  1  0.82815985  0.34526616  0.12571107  1
  Ba  Ba16  1  0.66865199  0.83813127  0.12557994  1
  Ba  Ba17  1  0.66952873  0.84236529  0.62404480  1
  Ba  Ba18  1  -0.00415758  0.49203575  0.37618241  1
  Ba  Ba19  1  0.16680001  0.32651899  0.37485785  1
  Ba  Ba20  1  0.33387832  0.50504485  0.11967244  1
  Ba  Ba21  1  0.66107632  0.16283385  0.87419037  1
  Ba  Ba22  1  0.32927765  0.49299428  0.87114125  1
  Ba  Ba23  1  0.16645255  0.67370017  0.62009477  1
  Ba  Ba24  1  0.49758886  0.66178525  0.87301171  1
  Ba  Ba25  1  0.83211687  0.34148518  0.62591378  1
  Ba  Ba26  1  0.66932030  0.49027233  0.37766008  1
  Ba  Ba27  1  0.66924709  0.15992969  0.37282136  1
  Ba  Ba28  1  0.49589163  0.33073140  0.87665147  1
  Ba  Ba29  1  0.66595601  0.50902560  0.62393279  1
  Ba  Ba30  1  1.00208192  0.83391558  0.62531425  1
  Ba  Ba31  1  0.50086393  0.99555034  0.87874778  1
  Ba  Ba32  1  0.49780080  0.33675625  0.12444913  1
  Ba  Ba33  1  0.33566948  0.17488585  0.12671080  1
  Ba  Ba34  1  0.00597039  0.82029755  0.87866431  1
  Ba  Ba35  1  0.15771671  0.34670362  0.62362136  1
  La  La36  1  0.82699126  0.01052579  0.12732181  1
  La  La37  1  0.32868042  0.82719173  0.87676635  1
  La  La38  1  0.33828251  0.84761930  0.12664648  1
  La  La39  1  0.66337293  0.81789172  0.38046674  1
  La  La40  1  0.17330038  0.98302593  0.87435046  1
  La  La41  1  1.00900981  0.18833370  0.12950411  1
  La  La42  1  0.82956653  0.67776823  0.12526097  1
  La  La43  1  0.16947073  0.64727852  0.37449832  1
  La  La44  1  0.34245088  0.85130819  0.62094615  1
  La  La45  1  0.33235526  0.14923180  0.37516507  1
  La  La46  1  0.83474193  0.65223213  0.37803608  1
  La  La47  1  0.33594540  0.18134798  0.62522987  1
  La  La48  1  0.33298673  0.81813146  0.37206049  1
  La  La49  1  0.17031940  0.64927300  0.87084030  1
  La  La50  1  0.33635474  0.51399006  0.62092600  1
  La  La51  1  0.15838546  0.01241047  0.62701960  1
  La  La52  1  0.66271719  0.82104350  0.87011770  1
  La  La53  1  0.83688627  0.31779294  0.87799309  1
  La  La54  1  0.50774806  0.98632220  0.37687490  1
  La  La55  1  1.00433802  0.51678350  0.62296998  1
  La  La56  1  0.66995903  0.18236683  0.62285955  1
  La  La57  1  -0.00518613  0.15459067  0.87156487  1
  La  La58  1  0.83273561  0.99195470  0.37771235  1
  La  La59  1  0.83945233  0.65211658  0.87360654  1
  La  La60  1  1.00698577  0.51580667  0.12593239  1
  La  La61  1  0.17060839  0.98335880  0.37748720  1
  La  La62  1  0.32780551  0.48649231  0.37254572  1
  La  La63  1  1.00426837  0.84998614  0.12536481  1
  La  La64  1  0.66167249  0.48967284  0.87612482  1
  La  La65  1  -0.00029640  0.81735820  0.37923050  1
  La  La66  1  0.16873934  0.31890171  0.87406242  1
  La  La67  1  0.83007810  0.99024225  0.87053267  1
  La  La68  1  0.50184848  0.65004508  0.37502222  1
  La  La69  1  -0.00662251  0.15422512  0.37430259  1
  La  La70  1  0.50003547  0.01669220  0.62164345  1
  La  La71  1  0.16070279  0.68077024  0.12430720  1
  In  In72  1  0.66999477  -0.00096848  0.00100960  1
  In  In73  1  0.33259471  -0.00043853  0.74690961  1
  In  In74  1  0.00177359  -0.00307466  0.75115097  1
  In  In75  1  0.33084569  0.67121854  0.74601447  1
  In  In76  1  0.49805363  0.16158973  0.25485614  1
  In  In77  1  0.00082952  0.00119987  0.00048410  1
  In  In78  1  0.32842247  0.66591425  0.24718514  1
  In  In79  1  0.33236893  0.33254955  0.50022886  1
  In  In80  1  -0.00209307  0.33636657  0.75021175  1
  In  In81  1  -0.00104236  0.67097798  0.24839723  1
  In  In82  1  0.17107762  0.82870534  0.74339829  1
  In  In83  1  0.32830584  0.33414878  -0.00063421  1
  In  In84  1  0.83558045  0.83252158  0.75268815  1
  In  In85  1  0.49861273  0.50300187  0.74886491  1
  In  In86  1  0.49898954  0.49863756  0.49856099  1
  In  In87  1  0.50001580  0.83808223  0.74642290  1
  In  In88  1  0.67126805  0.66606946  -0.00111837  1
  In  In89  1  0.83800932  0.83266076  0.00088810  1
  In  In90  1  0.83858879  0.16388775  0.00109939  1
  In  In91  1  0.66623055  0.33190119  0.25024631  1
  In  In92  1  0.16372209  0.16551991  0.74942928  1
  In  In93  1  0.83789676  0.16492499  0.24838693  1
  In  In94  1  0.49955112  0.83054782  0.25274851  1
  In  In95  1  0.83449980  0.49905939  0.50391870  1
  In  In96  1  0.33134897  -0.00213917  0.00211790  1
  In  In97  1  0.66954767  0.33595582  0.75170789  1
  In  In98  1  0.83415012  0.83470412  0.49803860  1
  In  In99  1  0.00303231  -0.00428660  0.49907568  1
  In  In100  1  0.16789499  0.16550006  0.49743494  1
  In  In101  1  0.16587064  0.16706097  0.25427239  1
  In  In102  1  0.50020451  0.83214634  -0.00122247  1
  In  In103  1  0.66998127  0.33331812  -0.00087128  1
  In  In104  1  0.49895706  0.16786324  0.74883202  1
  In  In105  1  0.49872330  0.50153174  -0.00181587  1
  In  In106  1  0.66746622  0.66399484  0.25283007  1
  In  In107  1  0.16151750  0.16479112  0.00090122  1
  Ir  Ir108  1  -0.00065481  -0.00404314  0.25375505  1
  Ir  Ir109  1  0.49855513  0.16169517  0.50252442  1
  Ir  Ir110  1  -0.00107646  0.33757802  0.24940422  1
  Ir  Ir111  1  -0.00002659  0.66496024  -0.00043300  1
  Ir  Ir112  1  0.49455823  0.50013967  0.25247641  1
  Ir  Ir113  1  0.17365218  0.83139748  0.49265468  1
  Ir  Ir114  1  0.00010581  0.33766364  0.00092151  1
  Ir  Ir115  1  0.49766339  0.83591049  0.49739675  1
  Ir  Ir116  1  0.49814031  0.16552916  0.00054962  1
  Ir  Ir117  1  0.16425465  0.50019653  0.74657300  1
  Ir  Ir118  1  0.66600008  0.66932502  0.49866580  1
  Ir  Ir119  1  0.16706119  0.82706738  0.00629261  1
  Ir  Ir120  1  0.16564363  0.50236283  0.49795849  1
  Ir  Ir121  1  0.67380609  0.66762000  0.74940671  1
  Ir  Ir122  1  0.33239197  0.67038373  0.49308860  1
  Ir  Ir123  1  0.32470215  0.33445208  0.74652697  1
  Ir  Ir124  1  0.16408729  0.83346783  0.25193197  1
  Ir  Ir125  1  0.84060908  0.50285280  -0.00041873  1
  Ir  Ir126  1  0.82983430  0.16555527  0.74881234  1
  Ir  Ir127  1  0.32213889  0.66808232  0.00176720  1
  Ir  Ir128  1  0.83765752  0.83441416  0.25651521  1
  Ir  Ir129  1  0.00528741  0.66811007  0.49794648  1
  Ir  Ir130  1  0.83137072  0.16426208  0.50061046  1
  Ir  Ir131  1  0.33439973  -0.00300733  0.49649741  1
  Ir  Ir132  1  0.16054846  0.50365420  0.00003246  1
  Ir  Ir133  1  0.66722508  0.00240902  0.74630094  1
  Ir  Ir134  1  0.00169324  0.66263408  0.75223876  1
  Ir  Ir135  1  0.16524265  0.50156255  0.24835022  1
  Ir  Ir136  1  0.84019505  0.50260003  0.24679261  1
  Ir  Ir137  1  -0.00081835  0.33426575  0.49688597  1
  Ir  Ir138  1  0.67180904  -0.00543119  0.25630298  1
  Ir  Ir139  1  0.83460494  0.50322182  0.75434483  1
  Ir  Ir140  1  0.33262477  -0.00409591  0.25900282  1
  Ir  Ir141  1  0.66445538  0.00104810  0.49941595  1
  Ir  Ir142  1  0.33362272  0.33517363  0.25399008  1
  Ir  Ir143  1  0.66663032  0.32901194  0.49987432  1
  O  O144  1  0.31646770  0.33074587  0.13406905  1
  O  O145  1  0.30585730  0.31961455  0.62709028  1
  O  O146  1  0.29440928  0.65894212  0.12201526  1
  O  O147  1  0.31382595  0.65546026  0.61172081  1
  O  O148  1  0.31050530  0.98760180  0.13778219  1
  O  O149  1  0.29632487  0.98839592  0.61330176  1
  O  O150  1  0.65391101  0.34070258  0.12474010  1
  O  O151  1  0.65438003  0.32657274  0.62057921  1
  O  O152  1  0.65289835  0.66347045  0.12854484  1
  O  O153  1  0.64633104  0.66410358  0.62416047  1
  O  O154  1  0.65059595  0.99056441  0.13764420  1
  O  O155  1  0.63514011  0.99558848  0.62143666  1
  O  O156  1  0.97467110  0.32645811  0.12597911  1
  O  O157  1  0.98179084  0.33351118  0.61727603  1
  O  O158  1  0.96873532  0.66150615  0.11993684  1
  O  O159  1  0.98076008  0.65764325  0.62631919  1
  O  O160  1  0.96626688  0.98467194  0.13571374  1
  O  O161  1  0.98271282  0.98424283  0.62354899  1
  O  O162  1  0.18229187  0.16741260  0.12974136  1
  O  O163  1  0.20253743  0.15125692  0.62238753  1
  O  O164  1  0.18524968  0.50253206  0.12340138  1
  O  O165  1  0.19694961  0.49924229  0.62304800  1
  O  O166  1  0.19723924  0.81807585  0.13021055  1
  O  O167  1  0.20627171  0.82454855  0.61076827  1
  O  O168  1  0.50682237  0.16574061  0.12266673  1
  O  O169  1  0.52976379  0.15612427  0.61953934  1
  O  O170  1  0.51217298  0.50283609  0.13152890  1
  O  O171  1  0.51412955  0.50454243  0.62280465  1
  O  O172  1  0.51780088  0.82544861  0.12792661  1
  O  O173  1  0.52045079  0.82882799  0.61500498  1
  O  O174  1  0.87644028  0.14797739  0.12603355  1
  O  O175  1  0.84996811  0.16647963  0.62388582  1
  O  O176  1  0.87121125  0.49892338  0.12201620  1
  O  O177  1  0.86542358  0.50093319  0.63292214  1
  O  O178  1  0.87104359  0.81689802  0.13886901  1
  O  O179  1  0.85183935  0.83377947  0.62419438  1
  O  O180  1  0.12893123  0.16550440  0.37426249  1
  O  O181  1  0.12919652  0.17907615  0.87674235  1
  O  O182  1  0.14162141  0.51082354  0.37275811  1
  O  O183  1  0.14310328  0.51419909  0.87208807  1
  O  O184  1  0.13439200  0.84526903  0.37250437  1
  O  O185  1  0.15676855  0.84191118  0.88437313  1
  O  O186  1  0.46820645  0.16072825  0.38406038  1
  O  O187  1  0.48719914  0.16232597  0.87856216  1
  O  O188  1  0.46801344  0.50532562  0.37304789  1
  O  O189  1  0.47840045  0.50708498  0.87248063  1
  O  O190  1  0.46799994  0.84797925  0.37945954  1
  O  O191  1  0.46448027  0.83526470  0.87195045  1
  O  O192  1  0.82083963  0.15984635  0.38077502  1
  O  O193  1  0.81139406  0.17378852  0.86723759  1
  O  O194  1  0.82311997  0.51455059  0.36969669  1
  O  O195  1  0.80544622  0.51414666  0.87756315  1
  O  O196  1  0.80082885  0.84943813  0.37152045  1
  O  O197  1  0.79850719  0.84612052  0.87683848  1
  O  O198  1  0.03449365  0.00936606  0.37041617  1
  O  O199  1  0.04229029  0.01423531  0.87674726  1
  O  O200  1  0.02058354  0.33989125  0.37164898  1
  O  O201  1  0.03132016  0.34024985  0.88271316  1
  O  O202  1  0.03355674  0.67426577  0.37632693  1
  O  O203  1  0.03319233  0.66348525  0.87596028  1
  O  O204  1  0.36971981  0.00581822  0.37862391  1
  O  O205  1  0.34573020  -0.01695876  0.87506351  1
  O  O206  1  0.35243112  0.34955302  0.37272864  1
  O  O207  1  0.34277857  0.33828413  0.86472225  1
  O  O208  1  0.36198743  0.68106950  0.37528657  1
  O  O209  1  0.34311861  0.68232856  0.88238682  1
  O  O210  1  0.69803453  0.00500507  0.37816053  1
  O  O211  1  0.69537406  0.01144731  0.86589379  1
  O  O212  1  0.68116522  0.33030529  0.38035023  1
  O  O213  1  0.70355337  0.34437546  0.87437927  1
  O  O214  1  0.69784360  0.67376953  0.37890511  1
  O  O215  1  0.70415234  0.67817123  0.86821733  1
  O  O216  1  0.05867554  0.10297776  0.02984241  1
  O  O217  1  0.08202827  0.08427445  0.52313329  1
  O  O218  1  0.06395145  0.43593618  0.02615835  1
  O  O219  1  0.06690332  0.43559680  0.52151278  1
  O  O220  1  0.06833286  0.76006004  0.03085342  1
  O  O221  1  0.07658290  0.76471795  0.50934477  1
  O  O222  1  0.41253822  0.08997446  0.01125638  1
  O  O223  1  0.40035190  0.09419556  0.52691136  1
  O  O224  1  0.40874660  0.42035003  0.01054735  1
  O  O225  1  0.39583379  0.43430322  0.51852609  1
  O  O226  1  0.38732220  0.75968921  0.02506692  1
  O  O227  1  0.39519737  0.77132745  0.51418630  1
  O  O228  1  0.74806237  0.08752061  0.02747960  1
  O  O229  1  0.73097309  0.09762079  0.52405242  1
  O  O230  1  0.75011616  0.43943546  0.01087372  1
  O  O231  1  0.73993265  0.41914271  0.51120906  1
  O  O232  1  0.75318427  0.75300013  0.02873528  1
  O  O233  1  0.73605835  0.76009710  0.50698611  1
  O  O234  1  0.08628337  0.26906497  0.02215590  1
  O  O235  1  0.08831727  0.26345711  0.51045695  1
  O  O236  1  0.09340291  0.59828158  0.02898729  1
  O  O237  1  0.09150010  0.59064834  0.51820976  1
  O  O238  1  0.10074206  0.91973134  0.02309868  1
  O  O239  1  0.11253055  0.92668151  0.51506526  1
  O  O240  1  0.42052302  0.24862127  0.00607981  1
  O  O241  1  0.42899900  0.25203908  0.52371244  1
  O  O242  1  0.41452131  0.60111208  0.01332576  1
  O  O243  1  0.42203465  0.60090401  0.50566161  1
  O  O244  1  0.41926113  0.91850411  0.02829438  1
  O  O245  1  0.43108923  0.93182332  0.52542069  1
  O  O246  1  0.76829707  0.26113780  0.00625383  1
  O  O247  1  0.75616661  0.25306536  0.52226362  1
  O  O248  1  0.78095169  0.59901958  0.01829410  1
  O  O249  1  0.75644130  0.59595862  0.50868145  1
  O  O250  1  0.77336839  0.93321246  0.02439861  1
  O  O251  1  0.75829472  0.93570752  0.50996986  1
  O  O252  1  0.24067215  0.06505207  0.28209048  1
  O  O253  1  0.23000454  0.06156278  0.77238424  1
  O  O254  1  0.24132446  0.41346069  0.27275185  1
  O  O255  1  0.22691820  0.40223214  0.77081780  1
  O  O256  1  0.22545930  0.73705317  0.27621493  1
  O  O257  1  0.23123724  0.73071524  0.77486152  1
  O  O258  1  0.57514309  0.05991553  0.27594027  1
  O  O259  1  0.57281203  0.06509226  0.75562024  1
  O  O260  1  0.56798124  0.41439402  0.26635989  1
  O  O261  1  0.58066362  0.41543758  0.76950195  1
  O  O262  1  0.57338451  0.73890942  0.28702871  1
  O  O263  1  0.58509336  0.74205578  0.76784207  1
  O  O264  1  0.90838991  0.06206599  0.28105264  1
  O  O265  1  0.89968509  0.07624021  0.77338435  1
  O  O266  1  0.90604898  0.40663619  0.26464973  1
  O  O267  1  0.89685573  0.40560086  0.77667959  1
  O  O268  1  0.90344808  0.74176062  0.28826484  1
  O  O269  1  0.91033565  0.73198059  0.77621443  1
  O  O270  1  0.26839984  0.23916847  0.27883386  1
  O  O271  1  0.25757195  0.24303102  0.76851083  1
  O  O272  1  0.25570936  0.57171526  0.28030098  1
  O  O273  1  0.25210265  0.57172697  0.76096858  1
  O  O274  1  0.26045451  0.90019205  0.28096647  1
  O  O275  1  0.27512553  0.88978005  0.76032495  1
  O  O276  1  0.58695118  0.23932281  0.26417025  1
  O  O277  1  0.59179500  0.24232271  0.75373406  1
  O  O278  1  0.58205390  0.57429826  0.27617382  1
  O  O279  1  0.60656232  0.57771367  0.77209227  1
  O  O280  1  0.60089468  0.90462690  0.28364662  1
  O  O281  1  0.60336010  0.90680885  0.77227687  1
  O  O282  1  0.93897057  0.23728274  0.26960535  1
  O  O283  1  0.92214620  0.23580816  0.77516738  1
  O  O284  1  0.92896242  0.57346635  0.26060812  1
  O  O285  1  0.92667373  0.57399440  0.77172453  1
  O  O286  1  0.93581590  0.89802846  0.27925880  1
  O  O287  1  0.92110883  0.91342110  0.78630205  1
  O  O288  1  0.26896136  0.23088781  0.47526467  1
  O  O289  1  0.24811943  0.24798448  0.97637874  1
  O  O290  1  0.26411191  0.57343740  0.47025643  1
  O  O291  1  0.25067564  0.57673371  0.97367639  1
  O  O292  1  0.26962658  0.89976677  0.46687988  1
  O  O293  1  0.26304406  0.88790835  0.99156430  1
  O  O294  1  0.59632172  0.22950029  0.48902058  1
  O  O295  1  0.58266427  0.24215608  0.99019670  1
  O  O296  1  0.58863619  0.58517332  0.47589892  1
  O  O297  1  0.60106895  0.57137327  0.97728694  1
  O  O298  1  0.59525778  0.90420687  0.47059416  1
  O  O299  1  0.60031616  0.90525635  0.97273906  1
  O  O300  1  0.93199527  0.23499000  0.47464759  1
  O  O301  1  0.93652000  0.24266633  0.97232345  1
  O  O302  1  0.92654941  0.58366241  0.48490841  1
  O  O303  1  0.93300624  0.57136835  0.98063668  1
  O  O304  1  0.92908726  0.90549596  0.46262231  1
  O  O305  1  0.93876800  0.89816759  0.99522666  1
  O  O306  1  0.24500322  0.06405832  0.46416744  1
  O  O307  1  0.23096189  0.06346557  0.97879587  1
  O  O308  1  0.23769714  0.41654747  0.48033398  1
  O  O309  1  0.22478570  0.41044335  0.97693598  1
  O  O310  1  0.23799674  0.73642504  0.46299628  1
  O  O311  1  0.22154087  0.72715386  0.98623746  1
  O  O312  1  0.56305824  0.06187556  0.48218633  1
  O  O313  1  0.57577682  0.08108340  0.99396163  1
  O  O314  1  0.57920774  0.40370102  0.48750588  1
  O  O315  1  0.58480776  0.41531824  0.97403805  1
  O  O316  1  0.56906788  0.74202474  0.46881447  1
  O  O317  1  0.58294770  0.74631242  0.97197100  1
  O  O318  1  0.90534972  0.07460674  0.47691594  1
  O  O319  1  0.90585668  0.06937647  0.95961379  1
  O  O320  1  0.91072881  0.40566487  0.48483179  1
  O  O321  1  0.90272624  0.40131702  0.97603888  1
  O  O322  1  0.91378029  0.73888333  0.47123044  1
  O  O323  1  0.90772093  0.72882511  0.97379757  1
  O  O324  1  0.08750548  0.26659188  0.23345032  1
  O  O325  1  0.09220539  0.26499768  0.73900619  1
  O  O326  1  0.09775242  0.59610976  0.22582638  1
  O  O327  1  0.09204617  0.59060932  0.72433055  1
  O  O328  1  0.09223094  0.92579567  0.22936348  1
  O  O329  1  0.10688386  0.92847045  0.73330501  1
  O  O330  1  0.41962549  0.26200006  0.24356337  1
  O  O331  1  0.41406518  0.26136277  0.73022953  1
  O  O332  1  0.42698944  0.59315131  0.24257969  1
  O  O333  1  0.41563446  0.59052721  0.72885713  1
  O  O334  1  0.42185582  0.92759213  0.23917786  1
  O  O335  1  0.43252567  0.93527133  0.71181998  1
  O  O336  1  0.76023284  0.25373278  0.23710426  1
  O  O337  1  0.76116017  0.25474303  0.73270358  1
  O  O338  1  0.77648140  0.59983263  0.23525092  1
  O  O339  1  0.76977043  0.59954670  0.73638498  1
  O  O340  1  0.77390393  0.93094811  0.23304104  1
  O  O341  1  0.75787990  0.93604338  0.73678194  1
  O  O342  1  0.05781301  0.09364110  0.23013128  1
  O  O343  1  0.07177270  0.09160076  0.72316899  1
  O  O344  1  0.06571536  0.43577749  0.22576753  1
  O  O345  1  0.06778706  0.43832767  0.72465311  1
  O  O346  1  0.07033288  0.76790973  0.22442809  1
  O  O347  1  0.07189611  0.75192564  0.73633753  1
  O  O348  1  0.39808402  0.08995682  0.24348665  1
  O  O349  1  0.40229005  0.09817098  0.71958517  1
  O  O350  1  0.39924096  0.43256829  0.23778977  1
  O  O351  1  0.39059914  0.42679331  0.72151558  1
  O  O352  1  0.39194161  0.76837138  0.23458566  1
  O  O353  1  0.39962155  0.76891470  0.72335526  1
  O  O354  1  0.74525159  0.08110264  0.23197272  1
  O  O355  1  0.73225640  0.09963892  0.72181745  1
  O  O356  1  0.74908648  0.43487396  0.24182700  1
  O  O357  1  0.74587512  0.43665665  0.73600479  1
  O  O358  1  0.74874008  0.76433586  0.23915683  1
  O  O359  1  0.74001789  0.75791811  0.73310795  1
