# generated using pymatgen
data_BaLaInIrO6
_symmetry_space_group_name_H-M   'P 1'
_cell_length_a   17.51190637
_cell_length_b   17.53702907
_cell_length_c   16.48784986
_cell_angle_alpha   89.97296146
_cell_angle_beta   90.02887139
_cell_angle_gamma   90.00201307
_symmetry_Int_Tables_number   1
_chemical_formula_structural   BaLaInIrO6
_chemical_formula_sum   'Ba36 La36 In36 Ir36 O216'
_cell_volume   5063.52978384
_cell_formula_units_Z   36
loop_
 _symmetry_equiv_pos_site_id
 _symmetry_equiv_pos_as_xyz
  1  'x, y, z'
loop_
 _atom_site_type_symbol
 _atom_site_label
 _atom_site_symmetry_multiplicity
 _atom_site_fract_x
 _atom_site_fract_y
 _atom_site_fract_z
 _atom_site_occupancy
  Ba  Ba0  1  0.16640245  0.65844385  0.37574763  1
  Ba  Ba1  1  0.83452181  0.00729725  0.62697719  1
  Ba  Ba2  1  1.00094857  0.84388304  0.62509359  1
  Ba  Ba3  1  0.83816948  0.32682520  0.87314962  1
  Ba  Ba4  1  -0.00128952  0.48943591  0.37902198  1
  Ba  Ba5  1  0.83007788  0.33990603  0.12133135  1
  Ba  Ba6  1  0.83042135  0.67602286  0.62279785  1
  Ba  Ba7  1  0.50182987  0.00730015  0.12819998  1
  Ba  Ba8  1  0.50252334  0.34122085  0.13099956  1
  Ba  Ba9  1  0.66484352  0.16128521  0.37695494  1
  Ba  Ba10  1  0.66881797  0.16183106  0.87544029  1
  Ba  Ba11  1  0.17006635  0.67375539  0.12540635  1
  Ba  Ba12  1  0.66737798  0.82356058  0.37081076  1
  Ba  Ba13  1  1.00097220  0.17131473  0.62688586  1
  Ba  Ba14  1  -0.00045413  0.16113169  0.87802054  1
  Ba  Ba15  1  0.50126700  0.32313713  0.37689659  1
  Ba  Ba16  1  0.16124608  0.67950827  0.62395063  1
  Ba  Ba17  1  0.33527922  0.17359596  0.12510562  1
  Ba  Ba18  1  0.00031778  0.49693218  0.87646567  1
  Ba  Ba19  1  0.00454029  0.82849073  0.87320807  1
  Ba  Ba20  1  0.16910559  0.32435423  0.37560287  1
  Ba  Ba21  1  0.49691920  0.67422604  0.12473681  1
  Ba  Ba22  1  0.16765643  0.65999749  0.87556706  1
  Ba  Ba23  1  0.15988415  0.01126125  0.62380201  1
  Ba  Ba24  1  1.00043067  0.84161145  0.12249573  1
  Ba  Ba25  1  0.66780419  0.84265108  0.12543366  1
  Ba  Ba26  1  0.82898768  0.00945545  0.12905536  1
  Ba  Ba27  1  0.50412335  0.32330261  0.87533900  1
  Ba  Ba28  1  0.50361731  0.65317572  0.37716245  1
  Ba  Ba29  1  0.49659431  0.99239225  0.37012789  1
  Ba  Ba30  1  0.16948602  0.99303997  0.87170030  1
  Ba  Ba31  1  0.17111987  0.32627669  0.87384577  1
  Ba  Ba32  1  0.83229843  0.33928531  0.62311448  1
  Ba  Ba33  1  0.83882766  0.66167915  0.87551947  1
  Ba  Ba34  1  0.50005560  0.67869955  0.62131537  1
  Ba  Ba35  1  0.16459296  0.34152110  0.12737197  1
  La  La36  1  0.34168285  0.84624810  0.12243356  1
  La  La37  1  0.15797496  0.34537377  0.61990134  1
  La  La38  1  0.66314008  0.82471079  0.87353919  1
  La  La39  1  0.32631716  0.15435563  0.87667892  1
  La  La40  1  0.67113875  0.51241161  0.12911713  1
  La  La41  1  0.82721044  0.67899242  0.12360895  1
  La  La42  1  0.33198347  0.49926019  0.13457056  1
  La  La43  1  0.67056600  0.18315854  0.62364052  1
  La  La44  1  0.32951212  0.48614141  0.37791882  1
  La  La45  1  0.33253536  0.84976036  0.62182762  1
  La  La46  1  0.67101979  0.51374013  0.61833893  1
  La  La47  1  0.99870390  0.51244831  0.63421738  1
  La  La48  1  0.83959154  0.64881891  0.37227662  1
  La  La49  1  0.49720802  0.34916232  0.62003585  1
  La  La50  1  1.00075706  0.51476213  0.12530469  1
  La  La51  1  0.33808608  0.51596120  0.62129325  1
  La  La52  1  0.66482241  0.17846205  0.12712417  1
  La  La53  1  0.32550489  0.81915103  0.87310523  1
  La  La54  1  0.32633763  0.48473037  0.87827670  1
  La  La55  1  -0.00516364  0.14798412  0.37826077  1
  La  La56  1  0.33127574  0.15087123  0.37613983  1
  La  La57  1  0.17034436  0.98379599  0.38261112  1
  La  La58  1  0.32888931  0.81738438  0.37751692  1
  La  La59  1  0.15652085  0.01397596  0.12673683  1
  La  La60  1  1.00206712  0.18363150  0.12384174  1
  La  La61  1  0.50388547  0.65093938  0.87353120  1
  La  La62  1  0.66255068  0.48365504  0.87238813  1
  La  La63  1  0.83730769  0.98143954  0.37855372  1
  La  La64  1  0.67635456  0.84910785  0.61723302  1
  La  La65  1  0.33303239  0.18253787  0.62148705  1
  La  La66  1  0.49642132  0.01425935  0.62028882  1
  La  La67  1  0.66506813  0.48249484  0.37703477  1
  La  La68  1  0.50258338  0.98946309  0.87724287  1
  La  La69  1  -0.00442757  0.81575698  0.37551441  1
  La  La70  1  0.83762723  0.31607895  0.37269300  1
  La  La71  1  0.84175680  0.99552591  0.87786681  1
  In  In72  1  0.82858261  0.50073958  0.74813157  1
  In  In73  1  0.66436997  0.66752869  0.74814641  1
  In  In74  1  0.82971726  0.83551751  0.74831753  1
  In  In75  1  0.17108807  0.50259193  0.74884527  1
  In  In76  1  0.16765868  0.16871975  0.00194182  1
  In  In77  1  -0.00299174  0.66585848  0.50207919  1
  In  In78  1  0.66612627  0.66588299  -0.00137458  1
  In  In79  1  0.49857130  0.83098004  0.25012262  1
  In  In80  1  0.49890919  0.16614619  0.25179118  1
  In  In81  1  0.83210390  0.16142113  0.49912766  1
  In  In82  1  0.49751239  0.50087805  0.74693425  1
  In  In83  1  0.50181595  0.83520740  0.50036099  1
  In  In84  1  0.83187912  0.16582639  0.74973423  1
  In  In85  1  0.33750783  0.66328122  -0.00216844  1
  In  In86  1  0.33670030  0.33317153  0.74631620  1
  In  In87  1  0.49870691  0.83428082  0.74866064  1
  In  In88  1  0.83582609  0.83254089  0.25033724  1
  In  In89  1  0.66868100  0.00242242  0.25352848  1
  In  In90  1  0.16693737  0.50097300  0.50281518  1
  In  In91  1  0.82992731  0.50068979  0.00143893  1
  In  In92  1  0.49733663  0.16668920  0.74880209  1
  In  In93  1  0.16578667  0.83368239  0.25128106  1
  In  In94  1  0.17087302  0.83429287  0.00152447  1
  In  In95  1  0.33279343  0.32756725  0.25327910  1
  In  In96  1  0.00193958  0.33481202  0.74798991  1
  In  In97  1  0.83230047  0.16461667  0.00261382  1
  In  In98  1  0.33373732  -0.00043033  -0.00197154  1
  In  In99  1  0.49971354  0.49946244  0.00091380  1
  In  In100  1  0.16425463  0.49840281  0.25252788  1
  In  In101  1  0.17028533  0.16768230  0.74696215  1
  In  In102  1  0.16701842  0.50072221  0.00204651  1
  In  In103  1  0.00005453  0.33710218  0.00134743  1
  In  In104  1  0.33451466  0.66312421  0.25164808  1
  In  In105  1  0.66224963  0.00257798  0.75073147  1
  In  In106  1  0.32527756  -0.00165768  0.25080826  1
  In  In107  1  0.83134004  0.83659465  -0.00092690  1
  Ir  Ir108  1  0.66526561  0.00357547  -0.00123360  1
  Ir  Ir109  1  -0.00183130  0.66884893  0.00214261  1
  Ir  Ir110  1  0.49992564  0.16637587  0.50498235  1
  Ir  Ir111  1  0.00093587  0.00310557  0.25160931  1
  Ir  Ir112  1  0.83411000  0.49731418  0.25193411  1
  Ir  Ir113  1  0.33346794  0.33041020  0.50183360  1
  Ir  Ir114  1  0.33061567  0.00347086  0.50461834  1
  Ir  Ir115  1  0.17135500  0.83321557  0.74733840  1
  Ir  Ir116  1  0.83580673  0.16711836  0.25333492  1
  Ir  Ir117  1  0.66152708  0.33366422  0.74675022  1
  Ir  Ir118  1  0.49953498  0.16774374  -0.00198057  1
  Ir  Ir119  1  0.00209352  -0.00255613  0.75322430  1
  Ir  Ir120  1  0.66314802  0.33279790  0.00150620  1
  Ir  Ir121  1  0.66956996  0.66295112  0.49380918  1
  Ir  Ir122  1  0.83197442  0.83361731  0.49752734  1
  Ir  Ir123  1  0.83052183  0.49574139  0.49472615  1
  Ir  Ir124  1  0.16641193  0.83557859  0.49926402  1
  Ir  Ir125  1  0.49706567  0.83722509  -0.00432436  1
  Ir  Ir126  1  -0.00018817  0.00008672  0.00400061  1
  Ir  Ir127  1  0.16643746  0.16727867  0.49492896  1
  Ir  Ir128  1  0.67048119  0.65976755  0.25247518  1
  Ir  Ir129  1  0.33560627  0.67182086  0.74452282  1
  Ir  Ir130  1  0.00078044  0.67021924  0.75238825  1
  Ir  Ir131  1  -0.00364801  0.33028727  0.25653879  1
  Ir  Ir132  1  0.33862091  0.33319118  0.00173078  1
  Ir  Ir133  1  0.00392046  -0.00220383  0.49579740  1
  Ir  Ir134  1  0.66399847  0.33506664  0.50053358  1
  Ir  Ir135  1  0.50620740  0.49836757  0.25387887  1
  Ir  Ir136  1  0.15815812  0.16388291  0.25721691  1
  Ir  Ir137  1  -0.00497271  0.66491520  0.24906108  1
  Ir  Ir138  1  0.33418294  0.66830691  0.50323434  1
  Ir  Ir139  1  0.66338714  0.00173731  0.49984584  1
  Ir  Ir140  1  -0.00094755  0.33064861  0.49595321  1
  Ir  Ir141  1  0.67305352  0.33549423  0.25101079  1
  Ir  Ir142  1  0.50110295  0.49945064  0.49773898  1
  Ir  Ir143  1  0.33602157  0.00091999  0.74260442  1
  O  O144  1  0.31839214  0.33208167  0.12118173  1
  O  O145  1  0.29781255  0.31905400  0.61793428  1
  O  O146  1  0.32235263  0.63644435  0.12504954  1
  O  O147  1  0.30896566  0.65477906  0.62452879  1
  O  O148  1  0.29352405  0.98917266  0.12483491  1
  O  O149  1  0.30673070  0.98778919  0.62428447  1
  O  O150  1  0.65062808  0.31630504  0.12568540  1
  O  O151  1  0.63311070  0.32325399  0.62287421  1
  O  O152  1  0.64491541  0.65103438  0.13311539  1
  O  O153  1  0.64584211  0.65203810  0.61273628  1
  O  O154  1  0.64936595  1.00081346  0.11829733  1
  O  O155  1  0.63104197  0.98839315  0.61868002  1
  O  O156  1  0.97777788  0.32035094  0.13887124  1
  O  O157  1  0.98074397  0.32611995  0.61240070  1
  O  O158  1  0.96568554  0.66165217  0.12550027  1
  O  O159  1  0.98207224  0.66678633  0.63183695  1
  O  O160  1  0.97677883  0.99817670  0.12721646  1
  O  O161  1  0.98281781  0.99812837  0.62729643  1
  O  O162  1  0.18255241  0.15373307  0.13768372  1
  O  O163  1  0.19670285  0.16472685  0.61408445  1
  O  O164  1  0.19764914  0.50348830  0.12813801  1
  O  O165  1  0.20425869  0.49045552  0.62385459  1
  O  O166  1  0.20146008  0.83517589  0.12802576  1
  O  O167  1  0.19724835  0.83331781  0.62185333  1
  O  O168  1  0.52875016  0.16411085  0.11840240  1
  O  O169  1  0.53469669  0.15262707  0.62126996  1
  O  O170  1  0.53428596  0.50044044  0.13301780  1
  O  O171  1  0.53312140  0.49715767  0.61674136  1
  O  O172  1  0.51965785  0.83112203  0.11356562  1
  O  O173  1  0.53785631  0.83540696  0.62331617  1
  O  O174  1  0.86351687  0.16468808  0.13493174  1
  O  O175  1  0.84916257  0.16692021  0.62193326  1
  O  O176  1  0.86536654  0.49378086  0.13520042  1
  O  O177  1  0.86138782  0.49510617  0.61255653  1
  O  O178  1  0.85080978  0.82532220  0.12619517  1
  O  O179  1  0.84861944  0.83452162  0.61670123  1
  O  O180  1  0.12973650  0.17066494  0.37661222  1
  O  O181  1  0.15503275  0.16926001  0.87398164  1
  O  O182  1  0.14881356  0.49967321  0.37831371  1
  O  O183  1  0.15124324  0.49759687  0.87489209  1
  O  O184  1  0.13135707  0.84260907  0.38020167  1
  O  O185  1  0.15618839  0.83272209  0.86736818  1
  O  O186  1  0.46813338  0.16970885  0.38670592  1
  O  O187  1  0.46508437  0.17050629  0.87741261  1
  O  O188  1  0.47001095  0.49666730  0.37632523  1
  O  O189  1  0.46462139  0.49814150  0.87160859  1
  O  O190  1  0.46607657  0.83373462  0.37815917  1
  O  O191  1  0.46232280  0.84932112  0.87774588  1
  O  O192  1  0.81454147  0.17297661  0.37267454  1
  O  O193  1  0.81869520  0.14952457  0.87627504  1
  O  O194  1  0.80059282  0.50636920  0.37284473  1
  O  O195  1  0.79617842  0.50739144  0.87506765  1
  O  O196  1  0.81824867  0.84099818  0.37813686  1
  O  O197  1  0.80102315  0.84725658  0.87430049  1
  O  O198  1  0.03272565  0.00884670  0.37302275  1
  O  O199  1  0.02240487  0.00032338  0.87967257  1
  O  O200  1  0.01977790  0.33457085  0.37607410  1
  O  O201  1  0.02310605  0.33885467  0.87490470  1
  O  O202  1  0.01475656  0.67049855  0.37112214  1
  O  O203  1  0.01989732  0.66746929  0.87885839  1
  O  O204  1  0.34802092  0.01457117  0.38575300  1
  O  O205  1  0.36591630  0.01505358  0.86280959  1
  O  O206  1  0.35461637  0.34351234  0.38322648  1
  O  O207  1  0.35700116  0.34314929  0.88095347  1
  O  O208  1  0.35649228  0.67989200  0.38425766  1
  O  O209  1  0.36749740  0.68419924  0.86275884  1
  O  O210  1  0.70144886  0.00851440  0.38338443  1
  O  O211  1  0.69742637  0.00686539  0.88170753  1
  O  O212  1  0.69979027  0.34582024  0.37619380  1
  O  O213  1  0.68503454  0.34752247  0.87293453  1
  O  O214  1  0.70303740  0.66501654  0.37336208  1
  O  O215  1  0.69104230  0.68627987  0.87366416  1
  O  O216  1  0.06910156  0.09012413  0.03005431  1
  O  O217  1  0.06870046  0.09886781  0.50969159  1
  O  O218  1  0.06926864  0.43334584  0.03454562  1
  O  O219  1  0.06910394  0.42059334  0.52482368  1
  O  O220  1  0.07476225  0.75571296  0.01582969  1
  O  O221  1  0.07378834  0.76442120  0.50821179  1
  O  O222  1  0.41326787  0.09598230  0.01507635  1
  O  O223  1  0.40124158  0.09904723  0.52878339  1
  O  O224  1  0.39945516  0.43214651  0.02531838  1
  O  O225  1  0.40521424  0.42798249  0.52575932  1
  O  O226  1  0.40341793  0.77292755  0.01782142  1
  O  O227  1  0.39725353  0.76496194  0.52526560  1
  O  O228  1  0.72907982  0.09736412  0.02618978  1
  O  O229  1  0.72839878  0.09358036  0.52527877  1
  O  O230  1  0.72550720  0.42870043  0.02262499  1
  O  O231  1  0.73190440  0.42955321  0.51986590  1
  O  O232  1  0.74453819  0.75395543  0.02348777  1
  O  O233  1  0.73562335  0.76380160  0.51895343  1
  O  O234  1  0.08870836  0.25420353  0.02739716  1
  O  O235  1  0.09845832  0.26480076  0.51913309  1
  O  O236  1  0.08350373  0.59486948  0.02266129  1
  O  O237  1  0.07945037  0.58214296  0.52894338  1
  O  O238  1  0.09653475  0.93441743  0.02231290  1
  O  O239  1  0.09869662  0.92990928  0.51229369  1
  O  O240  1  0.43251784  0.26151684  0.02029338  1
  O  O241  1  0.42945435  0.26000281  0.53119721  1
  O  O242  1  0.44252000  0.60574233  -0.00238916  1
  O  O243  1  0.42333939  0.58866234  0.52483502  1
  O  O244  1  0.42987023  0.92724139  0.02024523  1
  O  O245  1  0.42267014  0.93418835  0.52849856  1
  O  O246  1  0.74927344  0.25808671  0.01250657  1
  O  O247  1  0.75028125  0.25978499  0.51350222  1
  O  O248  1  0.75917963  0.59074153  0.03900322  1
  O  O249  1  0.75935987  0.58727087  0.51638924  1
  O  O250  1  0.75464419  0.93476358  0.01521862  1
  O  O251  1  0.75897142  0.93009072  0.51761375  1
  O  O252  1  0.22052723  0.06944748  0.27846325  1
  O  O253  1  0.24901404  0.06997933  0.76325544  1
  O  O254  1  0.24743843  0.40813442  0.26608438  1
  O  O255  1  0.25179541  0.41288987  0.77131703  1
  O  O256  1  0.24232447  0.74215315  0.27338352  1
  O  O257  1  0.24330783  0.74205649  0.76640891  1
  O  O258  1  0.57799838  0.07979290  0.26754912  1
  O  O259  1  0.55609807  0.06234726  0.76808389  1
  O  O260  1  0.58103398  0.40800447  0.27395598  1
  O  O261  1  0.57092159  0.40147440  0.75746155  1
  O  O262  1  0.58098952  0.73138448  0.26660513  1
  O  O263  1  0.56258012  0.73502218  0.77580498  1
  O  O264  1  0.90114849  0.06903466  0.28082380  1
  O  O265  1  0.91009756  0.06447812  0.77086322  1
  O  O266  1  0.89882736  0.39766349  0.27840245  1
  O  O267  1  0.91056961  0.41658802  0.75737220  1
  O  O268  1  0.90503866  0.73373576  0.27578886  1
  O  O269  1  0.91305331  0.74417664  0.76477254  1
  O  O270  1  0.25665603  0.22552428  0.27752102  1
  O  O271  1  0.27838732  0.22762043  0.76557883  1
  O  O272  1  0.26852791  0.56556779  0.27964540  1
  O  O273  1  0.27465614  0.57663628  0.76943527  1
  O  O274  1  0.25552960  0.90747107  0.29498949  1
  O  O275  1  0.27205493  0.90006515  0.76477486  1
  O  O276  1  0.60265454  0.24532074  0.26111751  1
  O  O277  1  0.59692785  0.23935080  0.76062271  1
  O  O278  1  0.60612061  0.56275441  0.27525337  1
  O  O279  1  0.59219400  0.56995358  0.78023255  1
  O  O280  1  0.58996608  0.90886051  0.26231981  1
  O  O281  1  0.59081062  0.90629335  0.78789568  1
  O  O282  1  0.93217495  0.23259494  0.28085994  1
  O  O283  1  0.92458870  0.24208074  0.76368448  1
  O  O284  1  0.92313849  0.57162712  0.27375665  1
  O  O285  1  0.92910822  0.58084509  0.75871558  1
  O  O286  1  0.93840878  0.90725482  0.27837310  1
  O  O287  1  0.92397351  0.91489886  0.76939833  1
  O  O288  1  0.26897722  0.23139104  0.47729101  1
  O  O289  1  0.27313987  0.23990777  0.98030309  1
  O  O290  1  0.27112049  0.57185663  0.48165824  1
  O  O291  1  0.26860228  0.56562295  0.97348493  1
  O  O292  1  0.26487963  0.90529303  0.47872100  1
  O  O293  1  0.26970028  0.90138910  0.97076003  1
  O  O294  1  0.59232847  0.23909204  0.48601702  1
  O  O295  1  0.59312272  0.23637942  0.98510891  1
  O  O296  1  0.60163681  0.56522278  0.47331891  1
  O  O297  1  0.59962947  0.56817464  0.96988043  1
  O  O298  1  0.59719910  0.91257414  0.47616180  1
  O  O299  1  0.59428413  0.90746040  0.97005107  1
  O  O300  1  0.92972791  0.23866674  0.47043163  1
  O  O301  1  0.92624583  0.23828641  0.99792422  1
  O  O302  1  0.91317324  0.57523048  0.47620031  1
  O  O303  1  0.92582891  0.58085455  0.99115876  1
  O  O304  1  0.93230688  0.90265316  0.47141155  1
  O  O305  1  0.92621700  0.91438749  0.97972670  1
  O  O306  1  0.23552745  0.07398079  0.47194357  1
  O  O307  1  0.24714812  0.08016223  0.98187967  1
  O  O308  1  0.24795637  0.40462166  0.48226596  1
  O  O309  1  0.24926520  0.40199759  0.98664814  1
  O  O310  1  0.24338989  0.74581263  0.47689536  1
  O  O311  1  0.24762170  0.74098051  0.98152113  1
  O  O312  1  0.56637725  0.06900116  0.48248107  1
  O  O313  1  0.56747599  0.07083327  0.97303414  1
  O  O314  1  0.57502342  0.41032476  0.47726638  1
  O  O315  1  0.57628429  0.40508593  0.98420262  1
  O  O316  1  0.58243929  0.73615606  0.48004765  1
  O  O317  1  0.56612270  0.74653224  0.96768501  1
  O  O318  1  0.90929008  0.06435417  0.47332011  1
  O  O319  1  0.90607777  0.06422956  0.98484543  1
  O  O320  1  0.89854120  0.39736076  0.47272686  1
  O  O321  1  0.90445783  0.41082256  0.98636783  1
  O  O322  1  0.90110450  0.74098460  0.47279001  1
  O  O323  1  0.91291723  0.74236107  0.98745057  1
  O  O324  1  0.08955500  0.25825176  0.23280698  1
  O  O325  1  0.10447918  0.26649235  0.72101103  1
  O  O326  1  0.08151829  0.59140900  0.22637031  1
  O  O327  1  0.08590223  0.59366251  0.73263124  1
  O  O328  1  0.09745493  0.94089423  0.23052993  1
  O  O329  1  0.09801045  0.92332128  0.73326089  1
  O  O330  1  0.42699252  0.25887824  0.23875684  1
  O  O331  1  0.43331198  0.26391003  0.71236590  1
  O  O332  1  0.43638641  0.58464709  0.23951723  1
  O  O333  1  0.42474431  0.60137188  0.72893131  1
  O  O334  1  0.41385168  0.91914460  0.22539091  1
  O  O335  1  0.42733892  0.93439501  0.71901968  1
  O  O336  1  0.77093864  0.26669233  0.24099106  1
  O  O337  1  0.75034977  0.26411507  0.73443870  1
  O  O338  1  0.76839643  0.59309794  0.22682809  1
  O  O339  1  0.75080895  0.58637897  0.71872036  1
  O  O340  1  0.76631711  0.93089867  0.24920878  1
  O  O341  1  0.74974412  0.92478570  0.72369881  1
  O  O342  1  0.05954005  0.10296345  0.23170597  1
  O  O343  1  0.07469324  0.08552169  0.73973998  1
  O  O344  1  0.05980170  0.42580535  0.23086824  1
  O  O345  1  0.07688227  0.42873552  0.71128150  1
  O  O346  1  0.06395217  0.75870023  0.23957643  1
  O  O347  1  0.07661327  0.76298908  0.73281297  1
  O  O348  1  0.39864015  0.09389527  0.24655806  1
  O  O349  1  0.39901308  0.09391087  0.71250480  1
  O  O350  1  0.41159229  0.43297735  0.23586175  1
  O  O351  1  0.40895680  0.42710912  0.70679193  1
  O  O352  1  0.40121572  0.76129007  0.22370252  1
  O  O353  1  0.39512316  0.76925399  0.72005987  1
  O  O354  1  0.73984424  0.10723476  0.22740112  1
  O  O355  1  0.72790404  0.10135418  0.72262721  1
  O  O356  1  0.73698469  0.43415611  0.22967927  1
  O  O357  1  0.72435340  0.42857503  0.72590457  1
  O  O358  1  0.74290081  0.74691494  0.23044644  1
  O  O359  1  0.72911406  0.76738370  0.72213583  1
