# generated using pymatgen
data_BaLaInIrO6
_symmetry_space_group_name_H-M   'P 1'
_cell_length_a   17.51430652
_cell_length_b   17.54522481
_cell_length_c   16.47570699
_cell_angle_alpha   90.02822345
_cell_angle_beta   89.97597973
_cell_angle_gamma   90.01509524
_symmetry_Int_Tables_number   1
_chemical_formula_structural   BaLaInIrO6
_chemical_formula_sum   'Ba36 La36 In36 Ir36 O216'
_cell_volume   5062.85905469
_cell_formula_units_Z   36
loop_
 _symmetry_equiv_pos_site_id
 _symmetry_equiv_pos_as_xyz
  1  'x, y, z'
loop_
 _atom_site_type_symbol
 _atom_site_label
 _atom_site_symmetry_multiplicity
 _atom_site_fract_x
 _atom_site_fract_y
 _atom_site_fract_z
 _atom_site_occupancy
  Ba  Ba0  1  0.33464842  0.83945617  0.62532827  1
  Ba  Ba1  1  0.66630159  0.82030299  0.37308498  1
  Ba  Ba2  1  0.32903419  0.17170741  0.12341094  1
  Ba  Ba3  1  0.16662218  0.00908887  0.62447734  1
  Ba  Ba4  1  0.83216075  0.99094102  0.87035888  1
  Ba  Ba5  1  0.49520442  0.34235971  0.62091563  1
  Ba  Ba6  1  0.66821067  0.50855269  0.12775150  1
  Ba  Ba7  1  0.82966124  0.01017118  0.12011093  1
  Ba  Ba8  1  0.16648262  0.99142158  0.37570334  1
  Ba  Ba9  1  0.83601635  0.65555847  0.87556136  1
  Ba  Ba10  1  1.00057391  0.51138034  0.62515020  1
  Ba  Ba11  1  0.66815586  0.51188666  0.62497188  1
  Ba  Ba12  1  0.66818333  0.83958612  0.62298246  1
  Ba  Ba13  1  0.16626036  0.98522414  0.87272258  1
  Ba  Ba14  1  -0.00077223  0.82497312  0.37580107  1
  Ba  Ba15  1  0.66614396  0.49473468  0.87321142  1
  Ba  Ba16  1  -0.00547903  0.82362939  0.88084999  1
  Ba  Ba17  1  0.49754827  0.00888545  0.12149224  1
  Ba  Ba18  1  0.16069937  0.00639243  0.12721302  1
  Ba  Ba19  1  0.83305276  0.32411700  0.37312311  1
  Ba  Ba20  1  0.33480845  0.50699925  0.13192371  1
  Ba  Ba21  1  0.66747585  0.82711402  0.87781071  1
  Ba  Ba22  1  0.16443514  0.65737459  0.87579572  1
  Ba  Ba23  1  0.32878396  0.49072152  0.87856548  1
  Ba  Ba24  1  -0.00109300  0.49378678  0.87212540  1
  Ba  Ba25  1  0.83379258  0.67295772  0.62861295  1
  Ba  Ba26  1  0.66932159  0.17785393  0.62583063  1
  Ba  Ba27  1  0.16383566  0.67583602  0.12052002  1
  Ba  Ba28  1  0.17079692  0.34087233  0.62167381  1
  Ba  Ba29  1  0.83299160  0.34491381  0.12230850  1
  Ba  Ba30  1  0.50299956  0.32604590  0.37157482  1
  Ba  Ba31  1  0.83611604  0.32796167  0.87480721  1
  Ba  Ba32  1  0.33332597  0.17320868  0.62087574  1
  Ba  Ba33  1  0.16957744  0.32599236  0.37511979  1
  Ba  Ba34  1  0.33535276  0.16014564  0.37502382  1
  Ba  Ba35  1  0.16860426  0.66191373  0.37565452  1
  La  La36  1  0.51035306  0.31793772  0.87496524  1
  La  La37  1  0.33255779  0.84877988  0.12503381  1
  La  La38  1  -0.00608592  0.15206450  0.87211026  1
  La  La39  1  1.00299606  0.51381550  0.12320272  1
  La  La40  1  -0.00461754  0.14905727  0.37526690  1
  La  La41  1  1.00579882  0.84188557  0.62877808  1
  La  La42  1  0.65883862  0.15235423  0.36578844  1
  La  La43  1  0.48828980  0.01251114  0.62406969  1
  La  La44  1  0.33403791  0.15375389  0.87141638  1
  La  La45  1  0.32671641  0.81891008  0.87835991  1
  La  La46  1  0.83179711  0.01006682  0.62419541  1
  La  La47  1  0.82614847  0.35409412  0.62585750  1
  La  La48  1  0.49924939  0.34854491  0.12506258  1
  La  La49  1  1.00618316  0.18392097  0.62444663  1
  La  La50  1  0.83685747  0.98277574  0.37617891  1
  La  La51  1  0.49684224  0.67802525  0.12426666  1
  La  La52  1  0.16847216  0.32525870  0.87294661  1
  La  La53  1  0.50660738  0.65416281  0.87509446  1
  La  La54  1  0.16035713  0.34564141  0.12731518  1
  La  La55  1  0.50108421  0.67829262  0.62748685  1
  La  La56  1  0.33861447  0.51353878  0.62241190  1
  La  La57  1  0.82706252  0.68143703  0.12868622  1
  La  La58  1  0.50403223  0.98837551  0.37553947  1
  La  La59  1  0.33264021  0.48322860  0.37673105  1
  La  La60  1  -0.00460540  0.48288435  0.37676809  1
  La  La61  1  0.32489149  0.82689065  0.37039097  1
  La  La62  1  0.67340777  0.18495138  0.12046578  1
  La  La63  1  1.00683844  0.17880456  0.12472692  1
  La  La64  1  0.83924845  0.65061723  0.38046437  1
  La  La65  1  0.15989242  0.68157044  0.63246883  1
  La  La66  1  0.66722808  0.48436730  0.37824553  1
  La  La67  1  0.50454641  0.65083211  0.37929415  1
  La  La68  1  0.67203201  0.85027558  0.12979466  1
  La  La69  1  0.50550611  0.98835439  0.87504154  1
  La  La70  1  0.99826681  0.84602541  0.12415930  1
  La  La71  1  0.66679668  0.15114160  0.87911694  1
  In  In72  1  0.16302961  0.82940678  0.24852587  1
  In  In73  1  0.16794161  0.49726317  0.74971177  1
  In  In74  1  0.00024989  0.33406815  -0.00199633  1
  In  In75  1  0.00151417  0.66761237  0.49986940  1
  In  In76  1  0.49830628  0.49943312  0.74816361  1
  In  In77  1  0.49941603  0.83243757  0.00105897  1
  In  In78  1  0.66704821  0.33418949  0.24780454  1
  In  In79  1  0.33471063  0.00053637  0.24929661  1
  In  In80  1  0.66574858  0.66670487  0.00406432  1
  In  In81  1  0.33662128  0.33318116  0.75339939  1
  In  In82  1  0.33330525  0.00033238  0.49932895  1
  In  In83  1  -0.00230573  0.00129224  -0.00051904  1
  In  In84  1  0.33256332  0.66629835  0.75108305  1
  In  In85  1  0.49763643  0.49947347  0.00036727  1
  In  In86  1  0.83268357  0.16552358  0.24825559  1
  In  In87  1  0.16704779  0.49898196  0.00205541  1
  In  In88  1  0.16783717  0.50339570  0.50045606  1
  In  In89  1  0.83002330  0.83349102  0.00031324  1
  In  In90  1  0.16590976  0.50411065  0.25354551  1
  In  In91  1  0.33451651  0.66624052  0.49781455  1
  In  In92  1  0.33526760  0.33146524  0.24648365  1
  In  In93  1  -0.00136624  -0.00159099  0.50157655  1
  In  In94  1  0.16616790  0.16885711  -0.00335705  1
  In  In95  1  0.49955285  0.83208803  0.49969823  1
  In  In96  1  0.66862408  0.66966724  0.75014709  1
  In  In97  1  0.16512112  0.16487660  0.75165255  1
  In  In98  1  0.16515844  0.16603694  0.25308270  1
  In  In99  1  0.50441001  0.16795454  0.49636815  1
  In  In100  1  0.66664028  -0.00150665  0.49976455  1
  In  In101  1  0.50316758  0.16708838  0.75124658  1
  In  In102  1  0.50045492  0.83081082  0.25018185  1
  In  In103  1  0.83429034  0.50253478  0.24805165  1
  In  In104  1  0.83151682  0.16704728  0.49838447  1
  In  In105  1  0.33182750  -0.00009631  -0.00355353  1
  In  In106  1  0.83506156  0.16957534  0.74637844  1
  In  In107  1  0.66357342  -0.00124610  0.74622853  1
  Ir  Ir108  1  0.50294949  0.50424604  0.25336702  1
  Ir  Ir109  1  0.16098539  0.17073189  0.50084745  1
  Ir  Ir110  1  0.83238154  0.50006931  0.49937754  1
  Ir  Ir111  1  -0.00642972  0.66519869  0.00509485  1
  Ir  Ir112  1  0.66988951  0.33374252  0.75149420  1
  Ir  Ir113  1  -0.00729645  -0.00235256  0.25127487  1
  Ir  Ir114  1  -0.00075951  0.33345264  0.74516344  1
  Ir  Ir115  1  0.83833911  0.83370591  0.74453180  1
  Ir  Ir116  1  -0.00193199  0.67113788  0.75145688  1
  Ir  Ir117  1  -0.00633226  0.66636020  0.24908293  1
  Ir  Ir118  1  0.83573312  0.50080758  0.00068707  1
  Ir  Ir119  1  0.83054563  0.83025167  0.25363839  1
  Ir  Ir120  1  0.83567227  0.49882863  0.75009960  1
  Ir  Ir121  1  0.16751458  0.83336305  0.50249121  1
  Ir  Ir122  1  0.33806836  0.32969638  -0.00015490  1
  Ir  Ir123  1  0.66684640  0.33188671  -0.00552722  1
  Ir  Ir124  1  0.49558889  0.83464901  0.75339567  1
  Ir  Ir125  1  0.66572233  0.66560177  0.25471562  1
  Ir  Ir126  1  0.33399712  0.33464573  0.49863242  1
  Ir  Ir127  1  0.33983176  0.66812310  0.24854798  1
  Ir  Ir128  1  0.83344443  0.82952952  0.50010656  1
  Ir  Ir129  1  0.16582323  0.83458979  0.75316233  1
  Ir  Ir130  1  -0.00231200  -0.00254284  0.74739097  1
  Ir  Ir131  1  0.50622821  0.16562349  0.24310540  1
  Ir  Ir132  1  0.33658654  -0.00285040  0.75231562  1
  Ir  Ir133  1  -0.00344968  0.33240084  0.49807308  1
  Ir  Ir134  1  0.50214691  0.17062971  0.00174322  1
  Ir  Ir135  1  0.66932861  0.33601959  0.50317168  1
  Ir  Ir136  1  0.66301645  0.00532445  0.00231635  1
  Ir  Ir137  1  -0.00034243  0.33107656  0.25153622  1
  Ir  Ir138  1  0.83298371  0.16813906  -0.00226805  1
  Ir  Ir139  1  0.16550512  0.82915272  -0.00137477  1
  Ir  Ir140  1  0.66792008  0.00128721  0.24720598  1
  Ir  Ir141  1  0.67006865  0.66375060  0.49469703  1
  Ir  Ir142  1  0.33434412  0.66988957  0.00747877  1
  Ir  Ir143  1  0.50298366  0.50011380  0.49756684  1
  O  O144  1  0.30158958  0.32826333  0.11696260  1
  O  O145  1  0.32174422  0.33014005  0.61835245  1
  O  O146  1  0.31026051  0.65834698  0.12908743  1
  O  O147  1  0.29568841  0.65639230  0.62262016  1
  O  O148  1  0.30975566  0.99288884  0.12166556  1
  O  O149  1  0.31648601  0.99810909  0.63297756  1
  O  O150  1  0.63723374  0.32688250  0.11588584  1
  O  O151  1  0.64678076  0.33633193  0.62921535  1
  O  O152  1  0.63366825  0.66321099  0.13662999  1
  O  O153  1  0.64013910  0.66871281  0.61634959  1
  O  O154  1  0.64387104  0.98794597  0.12510235  1
  O  O155  1  0.62449370  0.99565277  0.62423085  1
  O  O156  1  0.97899961  0.31441053  0.13178296  1
  O  O157  1  0.96403782  0.32058417  0.62133094  1
  O  O158  1  0.96259471  0.65553911  0.12814524  1
  O  O159  1  0.98396534  0.67775972  0.63111877  1
  O  O160  1  0.97948106  0.98993999  0.13162984  1
  O  O161  1  0.96920027  0.98788211  0.62788158  1
  O  O162  1  0.17446843  0.16266508  0.12425177  1
  O  O163  1  0.18057144  0.16985283  0.62182562  1
  O  O164  1  0.18498510  0.48794785  0.12807772  1
  O  O165  1  0.20118826  0.49623413  0.62423611  1
  O  O166  1  0.19305503  0.83265921  0.11863989  1
  O  O167  1  0.18641672  0.82397894  0.62875185  1
  O  O168  1  0.53773542  0.16388468  0.12123608  1
  O  O169  1  0.52086601  0.15328610  0.62485221  1
  O  O170  1  0.51942321  0.49272969  0.13204325  1
  O  O171  1  0.52119921  0.49497579  0.61633085  1
  O  O172  1  0.53956397  0.81694081  0.12668926  1
  O  O173  1  0.52072271  0.82062920  0.63412317  1
  O  O174  1  0.86719062  0.16522768  0.11853634  1
  O  O175  1  0.87130124  0.15239529  0.62235538  1
  O  O176  1  0.86374668  0.50061427  0.12093772  1
  O  O177  1  0.85443543  0.49147219  0.62445239  1
  O  O178  1  0.86050514  0.82174703  0.13470200  1
  O  O179  1  0.86743987  0.82753119  0.62137413  1
  O  O180  1  0.12973763  0.16988223  0.38145974  1
  O  O181  1  0.12743752  0.18302663  0.87318587  1
  O  O182  1  0.12951773  0.50659094  0.37571102  1
  O  O183  1  0.14900570  0.49118856  0.87783367  1
  O  O184  1  0.15022881  0.83067131  0.38115427  1
  O  O185  1  0.14243176  0.82918934  0.87499597  1
  O  O186  1  0.48835634  0.17094133  0.36248219  1
  O  O187  1  0.47184406  0.18038175  0.88358557  1
  O  O188  1  0.47159180  0.51181357  0.37485161  1
  O  O189  1  0.47677847  0.51735791  0.87525306  1
  O  O190  1  0.46319322  0.84294167  0.37347588  1
  O  O191  1  0.46481941  0.84730898  0.87204533  1
  O  O192  1  0.79474523  0.17043077  0.37392126  1
  O  O193  1  0.80325599  0.16953399  0.87698989  1
  O  O194  1  0.80591653  0.50924854  0.37912561  1
  O  O195  1  0.81493576  0.49941107  0.87543731  1
  O  O196  1  0.81044392  0.84478634  0.37825332  1
  O  O197  1  0.81853409  0.83580420  0.86780524  1
  O  O198  1  0.01575924  0.00391249  0.37075475  1
  O  O199  1  0.01739673  0.00779274  0.86839063  1
  O  O200  1  0.02083217  0.34755922  0.37495929  1
  O  O201  1  0.02902837  0.33811887  0.86578893  1
  O  O202  1  0.01807119  0.67058180  0.36810435  1
  O  O203  1  0.01626323  0.66791515  0.88130665  1
  O  O204  1  0.36764401  -0.00494148  0.37393509  1
  O  O205  1  0.36738773  0.00481025  0.87017727  1
  O  O206  1  0.35362564  0.34167524  0.37816156  1
  O  O207  1  0.37465795  0.33737661  0.88487031  1
  O  O208  1  0.36929893  0.68704772  0.36730391  1
  O  O209  1  0.36608358  0.67969590  0.88591061  1
  O  O210  1  0.70214845  0.01272920  0.36562257  1
  O  O211  1  0.68402779  0.01052630  0.88156657  1
  O  O212  1  0.68387042  0.34283651  0.38132613  1
  O  O213  1  0.69014751  0.33573131  0.87292355  1
  O  O214  1  0.70231247  0.66330407  0.37382841  1
  O  O215  1  0.68514370  0.67266548  0.87679073  1
  O  O216  1  0.06100155  0.10200043  0.01484966  1
  O  O217  1  0.06633622  0.10281269  0.51930417  1
  O  O218  1  0.06915027  0.42806513  0.03480406  1
  O  O219  1  0.06527911  0.42436439  0.51204209  1
  O  O220  1  0.06252950  0.76239633  0.02675806  1
  O  O221  1  0.07576820  0.76486560  0.52558822  1
  O  O222  1  0.41257778  0.10118801  0.01175628  1
  O  O223  1  0.41452166  0.08860393  0.51589829  1
  O  O224  1  0.40814716  0.41821426  0.02857054  1
  O  O225  1  0.40098518  0.43641506  0.51521296  1
  O  O226  1  0.39876245  0.76133737  0.03191222  1
  O  O227  1  0.41786211  0.74776385  0.52901935  1
  O  O228  1  0.73245172  0.10276847  0.02014925  1
  O  O229  1  0.74764547  0.08345362  0.53194121  1
  O  O230  1  0.73839978  0.42934129  0.01538384  1
  O  O231  1  0.73877714  0.43031895  0.51848473  1
  O  O232  1  0.73596307  0.76317209  0.03500912  1
  O  O233  1  0.74046763  0.75730015  0.51504231  1
  O  O234  1  0.10337444  0.27249339  0.02147444  1
  O  O235  1  0.08485823  0.26026650  0.52444730  1
  O  O236  1  0.08212436  0.59304069  0.02043981  1
  O  O237  1  0.10156624  0.60405780  0.52758744  1
  O  O238  1  0.09072690  0.91633386  0.01704642  1
  O  O239  1  0.09105526  0.91951561  0.52128828  1
  O  O240  1  0.43863769  0.26650605  0.02736820  1
  O  O241  1  0.42328060  0.26127096  0.50759324  1
  O  O242  1  0.42741028  0.60357123  0.02654273  1
  O  O243  1  0.43704771  0.59225947  0.52061797  1
  O  O244  1  0.41956154  0.91930751  0.02003656  1
  O  O245  1  0.43217838  0.93004434  0.52679366  1
  O  O246  1  0.75840577  0.25705625  0.02112775  1
  O  O247  1  0.76387950  0.27079461  0.52681161  1
  O  O248  1  0.76932368  0.59471249  0.02602365  1
  O  O249  1  0.76572152  0.59614030  0.51392208  1
  O  O250  1  0.74690154  0.92539234  0.01898542  1
  O  O251  1  0.76941118  0.92531047  0.52088614  1
  O  O252  1  0.23908301  0.07231553  0.26814157  1
  O  O253  1  0.24742108  0.07010899  0.77196159  1
  O  O254  1  0.24950818  0.41654298  0.27069644  1
  O  O255  1  0.23392239  0.39409600  0.77364253  1
  O  O256  1  0.24981329  0.73831560  0.26666777  1
  O  O257  1  0.24073787  0.74850109  0.77209774  1
  O  O258  1  0.57293674  0.06913426  0.27334480  1
  O  O259  1  0.57338830  0.07478495  0.78559310  1
  O  O260  1  0.57525473  0.41489904  0.26782142  1
  O  O261  1  0.57234926  0.39756980  0.77277092  1
  O  O262  1  0.56919189  0.72753438  0.27872472  1
  O  O263  1  0.56083004  0.74108362  0.77339872  1
  O  O264  1  0.90021494  0.06564462  0.27627413  1
  O  O265  1  0.91281580  0.07157115  0.76742756  1
  O  O266  1  0.91372364  0.40680317  0.26859967  1
  O  O267  1  0.90521995  0.40238149  0.75726956  1
  O  O268  1  0.89385165  0.73049860  0.27296675  1
  O  O269  1  0.90729060  0.74198435  0.76877088  1
  O  O270  1  0.25886564  0.24228391  0.26602440  1
  O  O271  1  0.26194910  0.23554804  0.78029139  1
  O  O272  1  0.27305641  0.57729407  0.27802994  1
  O  O273  1  0.25969428  0.57433161  0.76982411  1
  O  O274  1  0.26101553  0.89835443  0.26747839  1
  O  O275  1  0.26669743  0.90165233  0.77627562  1
  O  O276  1  0.60086732  0.23052715  0.26102909  1
  O  O277  1  0.60624669  0.23892178  0.77889267  1
  O  O278  1  0.59906987  0.57176219  0.28458436  1
  O  O279  1  0.58604931  0.58218801  0.76441643  1
  O  O280  1  0.59446306  0.91356960  0.27022858  1
  O  O281  1  0.58358151  0.90696483  0.77635137  1
  O  O282  1  0.93687093  0.23366541  0.27497681  1
  O  O283  1  0.93648630  0.23752726  0.77009004  1
  O  O284  1  0.92966459  0.57319819  0.27854947  1
  O  O285  1  0.92737408  0.57541743  0.76452114  1
  O  O286  1  0.92149938  0.90451393  0.27386982  1
  O  O287  1  0.93258864  0.90131506  0.76072226  1
  O  O288  1  0.26074350  0.24262507  0.48146493  1
  O  O289  1  0.27259061  0.23930534  0.96842781  1
  O  O290  1  0.27108189  0.56774511  0.46802060  1
  O  O291  1  0.26298359  0.58119368  0.98994480  1
  O  O292  1  0.25953647  0.90303951  0.47894938  1
  O  O293  1  0.25900988  0.89598628  0.97611117  1
  O  O294  1  0.60641304  0.24039362  0.47953357  1
  O  O295  1  0.59980526  0.23540187  0.97342081  1
  O  O296  1  0.60002567  0.56940413  0.47005395  1
  O  O297  1  0.58999977  0.57450477  0.98683313  1
  O  O298  1  0.58936242  0.90940001  0.46965487  1
  O  O299  1  0.58757878  0.91911069  0.98080721  1
  O  O300  1  0.93495599  0.23635514  0.47488037  1
  O  O301  1  0.93047347  0.23179485  0.97587943  1
  O  O302  1  0.92691544  0.56788663  0.47534805  1
  O  O303  1  0.93153136  0.56629325  0.98889128  1
  O  O304  1  0.92102755  0.90129070  0.48530004  1
  O  O305  1  0.92344380  0.90717492  0.99871879  1
  O  O306  1  0.23519702  0.08228708  0.48513325  1
  O  O307  1  0.24641483  0.08075378  0.96696437  1
  O  O308  1  0.24759043  0.40876756  0.47905159  1
  O  O309  1  0.24153215  0.39219703  0.97873976  1
  O  O310  1  0.24449714  0.75026879  0.48136733  1
  O  O311  1  0.24371505  0.74207289  0.97784061  1
  O  O312  1  0.57893122  0.07569852  0.45999474  1
  O  O313  1  0.57080327  0.07831789  0.97238701  1
  O  O314  1  0.57816580  0.41124419  0.47521534  1
  O  O315  1  0.56977918  0.39579548  0.98009641  1
  O  O316  1  0.57552198  0.72853589  0.47525658  1
  O  O317  1  0.56169226  0.73327471  0.97719034  1
  O  O318  1  0.90409974  0.06836947  0.46800979  1
  O  O319  1  0.90134653  0.07978164  0.97549128  1
  O  O320  1  0.90446580  0.40672321  0.47877830  1
  O  O321  1  0.90516851  0.41012031  0.98544214  1
  O  O322  1  0.89938404  0.73511793  0.47695740  1
  O  O323  1  0.90232741  0.73315249  0.99678495  1
  O  O324  1  0.09141666  0.26558292  0.22784137  1
  O  O325  1  0.08587742  0.26188482  0.72590255  1
  O  O326  1  0.08159751  0.59464435  0.22445974  1
  O  O327  1  0.09150090  0.60292958  0.73122692  1
  O  O328  1  0.08077928  0.92235792  0.23316021  1
  O  O329  1  0.08773056  0.92266248  0.72515449  1
  O  O330  1  0.44111195  0.26112839  0.22064810  1
  O  O331  1  0.43491054  0.26405585  0.74432239  1
  O  O332  1  0.43941758  0.60297519  0.23379445  1
  O  O333  1  0.42774921  0.59928694  0.71478669  1
  O  O334  1  0.42083524  0.91704846  0.21930212  1
  O  O335  1  0.43372641  0.93258830  0.72963270  1
  O  O336  1  0.75647783  0.25643362  0.22280372  1
  O  O337  1  0.76582791  0.26970150  0.72505487  1
  O  O338  1  0.76316545  0.60494125  0.23119278  1
  O  O339  1  0.76186436  0.58610369  0.73759788  1
  O  O340  1  0.75952198  0.92435048  0.22716134  1
  O  O341  1  0.76898415  0.92607844  0.72180190  1
  O  O342  1  0.05479588  0.09603055  0.23551075  1
  O  O343  1  0.06405837  0.09188169  0.72843672  1
  O  O344  1  0.06642489  0.42383226  0.22713023  1
  O  O345  1  0.06805200  0.42213450  0.72630407  1
  O  O346  1  0.06034443  0.75984109  0.22299112  1
  O  O347  1  0.07087564  0.76462961  0.72788436  1
  O  O348  1  0.41607882  0.09804480  0.23040421  1
  O  O349  1  0.40619019  0.08758218  0.73609775  1
  O  O350  1  0.41813109  0.42557253  0.23611153  1
  O  O351  1  0.39655257  0.43747504  0.72502414  1
  O  O352  1  0.40446102  0.75670773  0.21388756  1
  O  O353  1  0.40794928  0.76338823  0.73758585  1
  O  O354  1  0.72960127  0.09614659  0.22037208  1
  O  O355  1  0.74616053  0.08724944  0.73088220  1
  O  O356  1  0.74039633  0.42927831  0.24259842  1
  O  O357  1  0.74368758  0.42556724  0.72837185  1
  O  O358  1  0.73441951  0.76180748  0.22478094  1
  O  O359  1  0.74667415  0.76478979  0.73215385  1
