# generated using pymatgen
data_BaLaInIrO6
_symmetry_space_group_name_H-M   'P 1'
_cell_length_a   17.52951393
_cell_length_b   17.57544635
_cell_length_c   16.51590378
_cell_angle_alpha   90.01143460
_cell_angle_beta   90.01747292
_cell_angle_gamma   90.00435845
_symmetry_Int_Tables_number   1
_chemical_formula_structural   BaLaInIrO6
_chemical_formula_sum   'Ba36 La36 In36 Ir36 O216'
_cell_volume   5088.36845047
_cell_formula_units_Z   36
loop_
 _symmetry_equiv_pos_site_id
 _symmetry_equiv_pos_as_xyz
  1  'x, y, z'
loop_
 _atom_site_type_symbol
 _atom_site_label
 _atom_site_symmetry_multiplicity
 _atom_site_fract_x
 _atom_site_fract_y
 _atom_site_fract_z
 _atom_site_occupancy
  Ba  Ba0  1  1.00079930  0.84134844  0.62438610  1
  Ba  Ba1  1  0.66586802  0.82432892  0.37527198  1
  Ba  Ba2  1  0.83788827  0.33809767  0.62753899  1
  Ba  Ba3  1  0.66416709  0.17237710  0.62517554  1
  Ba  Ba4  1  0.83414857  0.34559282  0.13008358  1
  Ba  Ba5  1  0.67013702  0.51186941  0.12833877  1
  Ba  Ba6  1  0.50113885  0.98951002  0.36966516  1
  Ba  Ba7  1  0.33486619  0.17672969  0.12362673  1
  Ba  Ba8  1  0.16484617  0.65542335  0.37100904  1
  Ba  Ba9  1  0.16689168  0.67217652  0.12659650  1
  Ba  Ba10  1  0.16478252  0.01298552  0.62877088  1
  Ba  Ba11  1  0.49633026  0.67748885  0.12291622  1
  Ba  Ba12  1  0.00223988  0.16162791  0.37260868  1
  Ba  Ba13  1  0.83482404  0.32805224  0.87686740  1
  Ba  Ba14  1  0.16332272  0.67574795  0.62396105  1
  Ba  Ba15  1  0.49929694  0.32451969  0.37329722  1
  Ba  Ba16  1  0.17000399  0.32621768  0.37241538  1
  Ba  Ba17  1  0.33382562  0.17746277  0.63033296  1
  Ba  Ba18  1  -0.00295857  0.16098145  0.87808438  1
  Ba  Ba19  1  0.66316675  0.15764708  0.37291649  1
  Ba  Ba20  1  0.50286509  0.65585999  0.87312696  1
  Ba  Ba21  1  0.83159508  0.66115777  0.87474104  1
  Ba  Ba22  1  0.67046536  0.50612374  0.62251506  1
  Ba  Ba23  1  0.33362210  0.83862601  0.12225632  1
  Ba  Ba24  1  0.83316966  0.98895786  0.37115316  1
  Ba  Ba25  1  1.00021529  0.50903764  0.63007425  1
  Ba  Ba26  1  0.50419150  0.98807296  0.87727691  1
  Ba  Ba27  1  1.00316000  0.18328556  0.12466660  1
  Ba  Ba28  1  0.16329415  0.34054308  0.62574589  1
  Ba  Ba29  1  1.00220454  0.50995707  0.12419586  1
  Ba  Ba30  1  0.83218182  0.99405615  0.87427476  1
  Ba  Ba31  1  0.49693492  0.67672946  0.62630710  1
  Ba  Ba32  1  0.66543691  0.84087410  0.62468351  1
  Ba  Ba33  1  0.83365894  0.00723596  0.62213445  1
  Ba  Ba34  1  0.16172261  0.34571137  0.13148613  1
  Ba  Ba35  1  0.33343220  0.51094260  0.12609897  1
  La  La36  1  0.83343736  0.02145063  0.12200083  1
  La  La37  1  0.16844956  0.31458909  0.88437021  1
  La  La38  1  0.34351772  0.85179682  0.62462531  1
  La  La39  1  0.00020768  0.81839629  0.87367065  1
  La  La40  1  0.66623744  0.18310360  0.12561354  1
  La  La41  1  0.66682889  0.48247689  0.87554672  1
  La  La42  1  -0.00358209  0.81799576  0.37428205  1
  La  La43  1  0.50458337  0.31943266  0.87772634  1
  La  La44  1  -0.00049812  0.48982003  0.37474159  1
  La  La45  1  0.33191791  0.81421717  0.37087024  1
  La  La46  1  0.16876123  0.98547916  0.87321393  1
  La  La47  1  -0.00040456  0.48704125  0.87674821  1
  La  La48  1  0.33099294  0.48212599  0.87670011  1
  La  La49  1  0.82780073  0.68058185  0.62647567  1
  La  La50  1  0.99947977  0.17150405  0.62467432  1
  La  La51  1  0.49304969  0.34881938  0.12781791  1
  La  La52  1  0.66626835  0.15174068  0.87353391  1
  La  La53  1  0.32370047  0.14913993  0.37605730  1
  La  La54  1  0.50700664  0.65056140  0.37150249  1
  La  La55  1  0.48996634  0.34290049  0.62665535  1
  La  La56  1  0.82809483  0.68055865  0.12646457  1
  La  La57  1  0.32890899  0.48869086  0.36983636  1
  La  La58  1  0.15927680  0.01716194  0.12112478  1
  La  La59  1  0.83669278  0.32354860  0.38349230  1
  La  La60  1  0.49506597  0.01197572  0.12498876  1
  La  La61  1  0.34003201  0.50904298  0.62028500  1
  La  La62  1  1.00527023  0.84736983  0.12284821  1
  La  La63  1  0.49551698  0.01661616  0.62281338  1
  La  La64  1  0.66729898  0.48265208  0.37264721  1
  La  La65  1  0.66523881  0.84062075  0.12391703  1
  La  La66  1  0.17693046  0.98732136  0.37770970  1
  La  La67  1  0.17047611  0.64997873  0.87581350  1
  La  La68  1  0.33283475  0.81551190  0.87538102  1
  La  La69  1  0.65766718  0.81667730  0.86833948  1
  La  La70  1  0.83839013  0.65521425  0.37650830  1
  La  La71  1  0.32575709  0.14486549  0.87668392  1
  In  In72  1  0.83560733  0.50361578  0.00221360  1
  In  In73  1  0.66677211  0.66608292  0.00180888  1
  In  In74  1  0.66579595  -0.00191855  0.00202074  1
  In  In75  1  0.66369724  -0.00096825  0.74777480  1
  In  In76  1  0.83296962  0.83495546  0.75296696  1
  In  In77  1  0.33211491  0.66592328  0.49877095  1
  In  In78  1  0.00158767  0.66410001  0.50144679  1
  In  In79  1  0.66354054  0.33121913  0.50089397  1
  In  In80  1  0.33103211  0.66350035  0.74958832  1
  In  In81  1  0.83404455  0.50172679  0.50216344  1
  In  In82  1  0.50004854  0.49810152  0.75250213  1
  In  In83  1  0.66514253  -0.00305154  0.24541512  1
  In  In84  1  0.83271370  0.83257599  0.49651430  1
  In  In85  1  0.00201197  -0.00058485  0.24970282  1
  In  In86  1  0.50287182  0.49909889  0.49860161  1
  In  In87  1  0.83205235  0.16418702  0.49818125  1
  In  In88  1  0.33291028  0.33083639  0.49972056  1
  In  In89  1  0.83372438  0.83751909  0.00117336  1
  In  In90  1  0.16658246  0.83119527  -0.00066114  1
  In  In91  1  0.83256582  0.16753826  0.75090650  1
  In  In92  1  0.00313527  0.33323855  0.75231808  1
  In  In93  1  0.83083124  0.16944008  0.24889453  1
  In  In94  1  0.50073300  0.49950763  -0.00064135  1
  In  In95  1  0.16716285  0.16791810  0.24853266  1
  In  In96  1  0.49817985  0.16688910  -0.00092416  1
  In  In97  1  0.00300296  -0.00020207  0.49653944  1
  In  In98  1  0.16626336  0.83230021  0.24846847  1
  In  In99  1  0.66278237  0.33077608  0.74912625  1
  In  In100  1  0.49879764  0.83151947  0.49675674  1
  In  In101  1  0.00196589  0.00026108  0.75348846  1
  In  In102  1  0.16881696  0.49655728  0.75071854  1
  In  In103  1  0.49756990  0.16766690  0.25109583  1
  In  In104  1  0.16936338  0.83243065  0.74805088  1
  In  In105  1  0.33339643  -0.00597490  0.24548324  1
  In  In106  1  0.16716431  0.16724632  0.50217787  1
  In  In107  1  0.16753626  0.49963194  0.00192653  1
  Ir  Ir108  1  0.16845047  0.49804295  0.49790452  1
  Ir  Ir109  1  0.33687852  -0.00193625  0.75286547  1
  Ir  Ir110  1  0.33603550  0.33165405  -0.00012440  1
  Ir  Ir111  1  0.65998858  -0.00077180  0.49825352  1
  Ir  Ir112  1  0.50138889  0.50136964  0.25141080  1
  Ir  Ir113  1  -0.00016504  0.66883343  -0.00119489  1
  Ir  Ir114  1  0.66749275  0.66438186  0.74657240  1
  Ir  Ir115  1  0.33474927  -0.00124335  0.50212899  1
  Ir  Ir116  1  0.00337180  0.33587024  0.49702122  1
  Ir  Ir117  1  -0.00570327  0.66545364  0.24619823  1
  Ir  Ir118  1  0.49265810  0.16704713  0.75299908  1
  Ir  Ir119  1  0.49457073  0.16435143  0.50253679  1
  Ir  Ir120  1  0.00207463  0.33434872  0.00367375  1
  Ir  Ir121  1  0.33971901  0.66537864  0.24949109  1
  Ir  Ir122  1  -0.00247835  0.34183491  0.25404786  1
  Ir  Ir123  1  0.17179233  0.83478022  0.49594729  1
  Ir  Ir124  1  0.00156015  0.00185492  0.00054447  1
  Ir  Ir125  1  0.83065346  0.17182696  0.00431966  1
  Ir  Ir126  1  0.66571122  0.33770113  0.24543034  1
  Ir  Ir127  1  0.66565462  0.33174673  0.00009977  1
  Ir  Ir128  1  0.33274543  -0.00445583  -0.00316590  1
  Ir  Ir129  1  0.49944535  0.83195577  -0.00274071  1
  Ir  Ir130  1  0.83198264  0.50536392  0.25356338  1
  Ir  Ir131  1  0.83697408  0.82799281  0.24534717  1
  Ir  Ir132  1  -0.00012806  0.66650787  0.75483686  1
  Ir  Ir133  1  0.66863912  0.66809109  0.25442482  1
  Ir  Ir134  1  0.17131370  0.16857323  0.75588348  1
  Ir  Ir135  1  0.33564469  0.33715256  0.24594486  1
  Ir  Ir136  1  0.33542546  0.66708847  -0.00187011  1
  Ir  Ir137  1  0.49694313  0.83433399  0.75061990  1
  Ir  Ir138  1  0.16884380  0.16355232  -0.00369150  1
  Ir  Ir139  1  0.33398592  0.33104132  0.75764159  1
  Ir  Ir140  1  0.83223825  0.50529421  0.75385850  1
  Ir  Ir141  1  0.66951965  0.66549762  0.49742279  1
  Ir  Ir142  1  0.50084618  0.82733064  0.24553536  1
  Ir  Ir143  1  0.16584631  0.50357988  0.25402203  1
  O  O144  1  0.31001207  0.33137128  0.12152341  1
  O  O145  1  0.31389133  0.33111681  0.63723189  1
  O  O146  1  0.31597345  0.66654024  0.12333337  1
  O  O147  1  0.30881458  0.64636170  0.62348781  1
  O  O148  1  0.29863292  0.99117341  0.11490897  1
  O  O149  1  0.31297354  0.98609421  0.62816378  1
  O  O150  1  0.63170018  0.32747513  0.12141151  1
  O  O151  1  0.62521518  0.33270474  0.62553969  1
  O  O152  1  0.64569067  0.66739521  0.13538661  1
  O  O153  1  0.64439133  0.65906816  0.62019070  1
  O  O154  1  0.62759721  0.97959293  0.12243519  1
  O  O155  1  0.63174320  0.99994742  0.61929462  1
  O  O156  1  0.98226031  0.33925276  0.13106694  1
  O  O157  1  0.99188984  0.31722960  0.61873336  1
  O  O158  1  0.96560057  0.66121957  0.12057185  1
  O  O159  1  0.96976388  0.66313495  0.63335939  1
  O  O160  1  0.96794437  0.98628717  0.11712498  1
  O  O161  1  0.98632041  0.99614973  0.62514079  1
  O  O162  1  0.18791527  0.16143375  0.11647701  1
  O  O163  1  0.18448683  0.17761860  0.63573070  1
  O  O164  1  0.18286889  0.50445195  0.13116066  1
  O  O165  1  0.20097643  0.49805479  0.61980758  1
  O  O166  1  0.18472933  0.82513883  0.12288070  1
  O  O167  1  0.20477947  0.82939966  0.61703260  1
  O  O168  1  0.52747618  0.15888320  0.12405566  1
  O  O169  1  0.51538270  0.15604869  0.62770523  1
  O  O170  1  0.52137604  0.48920567  0.12908169  1
  O  O171  1  0.51921953  0.47918816  0.62660827  1
  O  O172  1  0.53030545  0.82682684  0.12042114  1
  O  O173  1  0.51272807  0.83294234  0.63050630  1
  O  O174  1  0.85529144  0.16720630  0.12168310  1
  O  O175  1  0.86470498  0.16344649  0.62262364  1
  O  O176  1  0.85154941  0.50117286  0.13394260  1
  O  O177  1  0.85026089  0.50234882  0.63391321  1
  O  O178  1  0.86902905  0.81898626  0.12846546  1
  O  O179  1  0.85118123  0.81800299  0.62409540  1
  O  O180  1  0.15618552  0.16242698  0.37474502  1
  O  O181  1  0.15056360  0.16356585  0.87580783  1
  O  O182  1  0.13702180  0.49993207  0.37670229  1
  O  O183  1  0.13556991  0.51033095  0.87842479  1
  O  O184  1  0.13560270  0.84263468  0.37604703  1
  O  O185  1  0.13608293  0.84541870  0.87748081  1
  O  O186  1  0.46193931  0.16795327  0.38214613  1
  O  O187  1  0.46161794  0.17865961  0.87209036  1
  O  O188  1  0.46813314  0.50989491  0.36955803  1
  O  O189  1  0.46466539  0.49714573  0.87674478  1
  O  O190  1  0.47011821  0.83253098  0.36582776  1
  O  O191  1  0.46829068  0.83419930  0.87439917  1
  O  O192  1  0.81225291  0.18641760  0.37186761  1
  O  O193  1  0.80136520  0.17159891  0.88637070  1
  O  O194  1  0.80364207  0.51612117  0.37093430  1
  O  O195  1  0.80321999  0.50662581  0.87352804  1
  O  O196  1  0.81599732  0.82747360  0.36341103  1
  O  O197  1  0.79536922  0.83282121  0.87827156  1
  O  O198  1  0.04206324  0.00188627  0.37225978  1
  O  O199  1  0.03536096  0.00917616  0.88459843  1
  O  O200  1  0.02038691  0.35322104  0.37434403  1
  O  O201  1  0.02819262  0.34178512  0.88442551  1
  O  O202  1  0.01481334  0.67725462  0.36606828  1
  O  O203  1  0.03336658  0.67863393  0.87739710  1
  O  O204  1  0.35191773  0.01164428  0.38213146  1
  O  O205  1  0.35875726  0.00961341  0.87498387  1
  O  O206  1  0.35154047  0.34982147  0.36687366  1
  O  O207  1  0.36773488  0.33996252  0.87868183  1
  O  O208  1  0.36718693  0.67182131  0.36922007  1
  O  O209  1  0.35486257  0.67583928  0.87935282  1
  O  O210  1  0.68013430  -0.00192674  0.37623083  1
  O  O211  1  0.67991587  0.01205354  0.87673927  1
  O  O212  1  0.69733376  0.34030710  0.36373374  1
  O  O213  1  0.68582308  0.34040065  0.88167206  1
  O  O214  1  0.70063284  0.66995181  0.37593169  1
  O  O215  1  0.68197234  0.67903171  0.86799649  1
  O  O216  1  0.07560603  0.09240186  0.02510107  1
  O  O217  1  0.06877976  0.10282911  0.52679746  1
  O  O218  1  0.07405174  0.42201859  0.01540027  1
  O  O219  1  0.07199965  0.43116269  0.51567344  1
  O  O220  1  0.06080552  0.76548874  0.01958817  1
  O  O221  1  0.07940481  0.76369787  0.51107142  1
  O  O222  1  0.40418039  0.08427467  0.01875920  1
  O  O223  1  0.40222077  0.09184697  0.52592966  1
  O  O224  1  0.40588625  0.42009739  0.02141972  1
  O  O225  1  0.40484701  0.42424549  0.52361571  1
  O  O226  1  0.40031625  0.76613891  0.00805666  1
  O  O227  1  0.39661067  0.76970504  0.51800469  1
  O  O228  1  0.74006430  0.10202242  0.02792316  1
  O  O229  1  0.73084588  0.08691602  0.51215497  1
  O  O230  1  0.73443445  0.42488709  0.01220203  1
  O  O231  1  0.74059224  0.42889203  0.50291905  1
  O  O232  1  0.73890308  0.76241670  0.03069703  1
  O  O233  1  0.73762712  0.75408506  0.51818532  1
  O  O234  1  0.10318616  0.26289807  0.01162836  1
  O  O235  1  0.09231343  0.26654006  0.50568047  1
  O  O236  1  0.09308817  0.60329998  0.00973935  1
  O  O237  1  0.09762493  0.58728075  0.51442296  1
  O  O238  1  0.09472552  0.93681281  0.02306804  1
  O  O239  1  0.10885569  0.92566765  0.51345791  1
  O  O240  1  0.43213924  0.26849505  0.02223944  1
  O  O241  1  0.43471469  0.26122362  0.52462439  1
  O  O242  1  0.42342003  0.59607558  0.01462628  1
  O  O243  1  0.42652791  0.59039006  0.51590541  1
  O  O244  1  0.43080453  0.93011910  0.02264492  1
  O  O245  1  0.42642574  0.93214629  0.52541235  1
  O  O246  1  0.75559108  0.25944162  0.02942998  1
  O  O247  1  0.76048122  0.26237287  0.51271491  1
  O  O248  1  0.76872445  0.60192480  0.02401779  1
  O  O249  1  0.76824334  0.60666767  0.51816579  1
  O  O250  1  0.76669510  0.93430470  0.03333068  1
  O  O251  1  0.75056433  0.92794015  0.51115266  1
  O  O252  1  0.24034369  0.06853675  0.27050325  1
  O  O253  1  0.23945992  0.06714276  0.77730334  1
  O  O254  1  0.24396175  0.41697984  0.27210864  1
  O  O255  1  0.24130211  0.39544980  0.78725960  1
  O  O256  1  0.25063931  0.73802205  0.26989830  1
  O  O257  1  0.23518773  0.73557780  0.78025064  1
  O  O258  1  0.57256179  0.07308076  0.26102744  1
  O  O259  1  0.55971259  0.07483464  0.76163888  1
  O  O260  1  0.57701796  0.41440771  0.27286620  1
  O  O261  1  0.56965423  0.40199328  0.78438039  1
  O  O262  1  0.56746214  0.73053604  0.27510375  1
  O  O263  1  0.57175212  0.74150634  0.76873368  1
  O  O264  1  0.90379709  0.07082784  0.25578546  1
  O  O265  1  0.90870930  0.07481017  0.76975573  1
  O  O266  1  0.90086334  0.41336345  0.28352462  1
  O  O267  1  0.90789569  0.42018223  0.77318691  1
  O  O268  1  0.89648281  0.72737938  0.26697956  1
  O  O269  1  0.91240025  0.73695686  0.77082998  1
  O  O270  1  0.27078229  0.24134400  0.26826944  1
  O  O271  1  0.27011236  0.23344274  0.78401768  1
  O  O272  1  0.26809015  0.57060569  0.27279296  1
  O  O273  1  0.26108397  0.56664505  0.78583307  1
  O  O274  1  0.26303008  0.90205927  0.28315123  1
  O  O275  1  0.27474599  0.90221067  0.77350608  1
  O  O276  1  0.59403133  0.24891676  0.25973765  1
  O  O277  1  0.58526753  0.23218451  0.78253769  1
  O  O278  1  0.59632755  0.57373417  0.28279056  1
  O  O279  1  0.60406932  0.56907330  0.77233489  1
  O  O280  1  0.59530342  0.89023221  0.25654940  1
  O  O281  1  0.59166522  0.89771912  0.77293007  1
  O  O282  1  0.92059760  0.25842633  0.27133608  1
  O  O283  1  0.92750048  0.24498412  0.76332168  1
  O  O284  1  0.92723398  0.57104841  0.27765330  1
  O  O285  1  0.93269282  0.57101549  0.77883857  1
  O  O286  1  0.93499425  0.88859559  0.26671354  1
  O  O287  1  0.93517849  0.89881612  0.77921968  1
  O  O288  1  0.26984161  0.23188376  0.47788561  1
  O  O289  1  0.26465264  0.23494664  0.96998631  1
  O  O290  1  0.26189012  0.56360821  0.47245790  1
  O  O291  1  0.26670902  0.57351409  0.97504545  1
  O  O292  1  0.26894555  0.90242805  0.47138176  1
  O  O293  1  0.26501712  0.90583651  0.96597117  1
  O  O294  1  0.58403499  0.23294893  0.48179323  1
  O  O295  1  0.59946229  0.23971899  0.97496713  1
  O  O296  1  0.60265921  0.57476335  0.46990342  1
  O  O297  1  0.60197258  0.56502553  0.97583779  1
  O  O298  1  0.59040713  0.90933630  0.48347814  1
  O  O299  1  0.59782253  0.89136865  0.97767474  1
  O  O300  1  0.93046310  0.25062981  0.47875674  1
  O  O301  1  0.92501784  0.24530588  0.98562389  1
  O  O302  1  0.92988697  0.56987084  0.47068243  1
  O  O303  1  0.93834371  0.57299140  0.97358432  1
  O  O304  1  0.93363309  0.89825075  0.47205846  1
  O  O305  1  0.93998687  0.90475166  0.97663614  1
  O  O306  1  0.24164642  0.06531640  0.48041829  1
  O  O307  1  0.23610478  0.06446917  0.97392153  1
  O  O308  1  0.24014337  0.41189526  0.48141040  1
  O  O309  1  0.24494335  0.40198894  0.97309230  1
  O  O310  1  0.24102268  0.74683319  0.46897744  1
  O  O311  1  0.24115451  0.73341382  0.97322955  1
  O  O312  1  0.56078187  0.06747617  0.48782809  1
  O  O313  1  0.57616934  0.07860288  0.98131080  1
  O  O314  1  0.58029279  0.41264327  0.46609966  1
  O  O315  1  0.57201730  0.39719871  0.97815576  1
  O  O316  1  0.57100469  0.72908676  0.47630693  1
  O  O317  1  0.57109948  0.74330332  0.97857645  1
  O  O318  1  0.90733553  0.07319844  0.47493809  1
  O  O319  1  0.90092468  0.07360208  0.98926563  1
  O  O320  1  0.91043712  0.40493361  0.47988421  1
  O  O321  1  0.91637669  0.41152946  0.98337079  1
  O  O322  1  0.90529730  0.73394114  0.47572305  1
  O  O323  1  0.91145227  0.73915232  0.98120310  1
  O  O324  1  0.08573069  0.26631614  0.24161630  1
  O  O325  1  0.11020592  0.26506912  0.75602323  1
  O  O326  1  0.09024766  0.59660678  0.23480452  1
  O  O327  1  0.09189692  0.59977694  0.74148611  1
  O  O328  1  0.09513188  0.92684074  0.21284993  1
  O  O329  1  0.10623881  0.93468139  0.74539678  1
  O  O330  1  0.42772761  0.26906042  0.22392664  1
  O  O331  1  0.43407188  0.27002109  0.73531970  1
  O  O332  1  0.43266198  0.59371194  0.23350941  1
  O  O333  1  0.42248410  0.58721269  0.72740357  1
  O  O334  1  0.43674137  0.92312076  0.22080165  1
  O  O335  1  0.43234876  0.93181117  0.72473926  1
  O  O336  1  0.74574290  0.25947881  0.22077676  1
  O  O337  1  0.75669877  0.26194969  0.73404641  1
  O  O338  1  0.76890320  0.60520356  0.23175745  1
  O  O339  1  0.76425564  0.60039762  0.72618850  1
  O  O340  1  0.77191640  0.92215338  0.22001459  1
  O  O341  1  0.75737362  0.92614181  0.73038444  1
  O  O342  1  0.07921377  0.08943037  0.21864323  1
  O  O343  1  0.07481538  0.10909578  0.73152986  1
  O  O344  1  0.06855365  0.43768880  0.24120820  1
  O  O345  1  0.07252437  0.42837973  0.73914662  1
  O  O346  1  0.05790424  0.76147470  0.22899606  1
  O  O347  1  0.06750033  0.75904780  0.73767489  1
  O  O348  1  0.40937168  0.08543979  0.22672286  1
  O  O349  1  0.40049910  0.09459588  0.73564509  1
  O  O350  1  0.41125929  0.42736380  0.22558690  1
  O  O351  1  0.39315209  0.42647220  0.73238665  1
  O  O352  1  0.40521558  0.76232178  0.23424054  1
  O  O353  1  0.39814687  0.77157331  0.73319504  1
  O  O354  1  0.73766078  0.09232570  0.21439247  1
  O  O355  1  0.73025952  0.10027480  0.74600789  1
  O  O356  1  0.73634705  0.43566118  0.23891720  1
  O  O357  1  0.73970214  0.43625654  0.74426974  1
  O  O358  1  0.73810079  0.76315327  0.22159034  1
  O  O359  1  0.73885743  0.75143719  0.72908370  1
