# generated using pymatgen
data_BaLaInIrO6
_symmetry_space_group_name_H-M   'P 1'
_cell_length_a   17.52250323
_cell_length_b   17.54876888
_cell_length_c   16.49657001
_cell_angle_alpha   89.96152130
_cell_angle_beta   90.00696472
_cell_angle_gamma   89.93715416
_symmetry_Int_Tables_number   1
_chemical_formula_structural   BaLaInIrO6
_chemical_formula_sum   'Ba36 La36 In36 Ir36 O216'
_cell_volume   5072.66398008
_cell_formula_units_Z   36
loop_
 _symmetry_equiv_pos_site_id
 _symmetry_equiv_pos_as_xyz
  1  'x, y, z'
loop_
 _atom_site_type_symbol
 _atom_site_label
 _atom_site_symmetry_multiplicity
 _atom_site_fract_x
 _atom_site_fract_y
 _atom_site_fract_z
 _atom_site_occupancy
  Ba  Ba0  1  -0.00032636  0.15810447  0.37781379  1
  Ba  Ba1  1  0.50035571  0.65850040  0.87102014  1
  Ba  Ba2  1  0.83259511  0.98969130  0.37366368  1
  Ba  Ba3  1  0.16547670  0.34071395  0.12819460  1
  Ba  Ba4  1  0.99601588  0.16889428  0.62434224  1
  Ba  Ba5  1  0.66892936  0.49282371  0.87642000  1
  Ba  Ba6  1  0.83304010  0.00596476  0.12752387  1
  Ba  Ba7  1  -0.00313604  0.82515708  0.87478839  1
  Ba  Ba8  1  0.16152105  0.34039654  0.62218006  1
  Ba  Ba9  1  0.33147934  0.15394062  0.88046357  1
  Ba  Ba10  1  0.33293085  0.49538949  0.87461470  1
  Ba  Ba11  1  0.16760280  0.67461676  0.12506357  1
  Ba  Ba12  1  0.83080638  0.32302581  0.37199774  1
  Ba  Ba13  1  0.49679650  0.67413888  0.12407602  1
  Ba  Ba14  1  0.83464778  0.33602869  0.62356468  1
  Ba  Ba15  1  0.66443195  0.84203420  0.62418269  1
  Ba  Ba16  1  0.16519605  0.99457632  0.37688029  1
  Ba  Ba17  1  0.00318321  0.15783242  0.87633175  1
  Ba  Ba18  1  0.50202854  0.32369956  0.36994120  1
  Ba  Ba19  1  0.66886324  0.50997926  0.12673800  1
  Ba  Ba20  1  0.33710262  0.50961965  0.12184016  1
  Ba  Ba21  1  0.66565699  0.15754126  0.87532154  1
  Ba  Ba22  1  0.82546433  0.00793928  0.62021884  1
  Ba  Ba23  1  1.00147428  0.84491960  0.12758975  1
  Ba  Ba24  1  0.17025124  0.00620639  0.62525607  1
  Ba  Ba25  1  -0.00049215  0.82980740  0.37770049  1
  Ba  Ba26  1  0.16854659  0.98882190  0.87091136  1
  Ba  Ba27  1  0.49746227  0.01113146  0.62779925  1
  Ba  Ba28  1  0.50384953  0.98749984  0.88161756  1
  Ba  Ba29  1  0.66816238  0.48970649  0.37584849  1
  Ba  Ba30  1  0.83895089  0.34496601  0.12519740  1
  Ba  Ba31  1  0.83427448  0.99274799  0.87120735  1
  Ba  Ba32  1  0.33101372  0.82793231  0.87565523  1
  Ba  Ba33  1  0.66920564  0.17233744  0.62801987  1
  Ba  Ba34  1  0.33029064  0.15696447  0.37481642  1
  Ba  Ba35  1  0.66864385  0.82584860  0.37574146  1
  La  La36  1  0.17147235  0.31440921  0.87494656  1
  La  La37  1  0.33839043  0.84888863  0.12422674  1
  La  La38  1  0.50631230  0.98446904  0.37718642  1
  La  La39  1  0.83690660  0.31644065  0.87701751  1
  La  La40  1  0.16713198  0.66169414  0.88164097  1
  La  La41  1  0.16461284  0.01061302  0.12171760  1
  La  La42  1  0.83450859  0.65449460  0.87565409  1
  La  La43  1  0.16952769  0.65193986  0.37541359  1
  La  La44  1  1.00076298  0.85301042  0.62467372  1
  La  La45  1  0.66699204  0.84081512  0.12447594  1
  La  La46  1  0.49722293  0.34945649  0.12151482  1
  La  La47  1  0.32585036  0.48316211  0.36737606  1
  La  La48  1  0.99584945  0.16738474  0.12971447  1
  La  La49  1  0.49493525  0.68343339  0.61876073  1
  La  La50  1  -0.00514652  0.48848764  0.37338036  1
  La  La51  1  0.66147585  0.15384885  0.37880122  1
  La  La52  1  0.16288136  0.68119135  0.62819235  1
  La  La53  1  0.82927578  0.67986423  0.12453230  1
  La  La54  1  0.34117530  0.18510074  0.62856264  1
  La  La55  1  0.49915236  0.34629448  0.62151244  1
  La  La56  1  0.67275212  0.18322568  0.12419761  1
  La  La57  1  0.16874633  0.31422219  0.37610175  1
  La  La58  1  0.32604119  0.81843388  0.37873660  1
  La  La59  1  0.83925610  0.65829561  0.37098692  1
  La  La60  1  0.33846177  0.84986943  0.62515574  1
  La  La61  1  0.50093576  0.64994225  0.37553010  1
  La  La62  1  0.49635860  0.01727472  0.12665331  1
  La  La63  1  0.82991153  0.67699982  0.62628924  1
  La  La64  1  0.33744677  0.18599682  0.12803836  1
  La  La65  1  0.65963016  0.82624286  0.87701305  1
  La  La66  1  1.00535122  0.51868227  0.12389543  1
  La  La67  1  0.33413104  0.51688866  0.62228315  1
  La  La68  1  -0.00374654  0.48796653  0.87645262  1
  La  La69  1  0.66568121  0.50932347  0.62305375  1
  La  La70  1  0.50600398  0.32594499  0.87320482  1
  La  La71  1  1.00804414  0.51721896  0.62280791  1
  In  In72  1  0.33581305  0.00206254  0.75344494  1
  In  In73  1  0.66649547  -0.00119671  0.75121451  1
  In  In74  1  0.17025215  0.16403818  0.50310196  1
  In  In75  1  0.16677283  0.83405111  0.00239489  1
  In  In76  1  0.83578739  0.16680399  0.74940584  1
  In  In77  1  0.00185264  0.33299557  0.00104344  1
  In  In78  1  0.00002662  0.33528944  0.50050358  1
  In  In79  1  0.33379112  0.33537172  -0.00363367  1
  In  In80  1  0.66283393  -0.00034708  0.24790802  1
  In  In81  1  0.16618364  0.83197167  0.50205786  1
  In  In82  1  0.50081521  0.16898402  0.00169631  1
  In  In83  1  0.33048959  0.66690677  0.74737840  1
  In  In84  1  0.00238337  0.33347450  0.25025043  1
  In  In85  1  0.50318525  0.50303018  -0.00489023  1
  In  In86  1  0.33180342  0.33871834  0.50141161  1
  In  In87  1  0.66733027  0.33216095  0.24878074  1
  In  In88  1  0.83561979  0.49938864  0.50228220  1
  In  In89  1  0.16357984  0.49988709  -0.00083912  1
  In  In90  1  -0.00208423  0.00038233  -0.00070370  1
  In  In91  1  0.83407693  0.82988394  0.50007346  1
  In  In92  1  0.16978815  0.16595338  0.74922270  1
  In  In93  1  0.16941897  0.16240396  0.24876665  1
  In  In94  1  0.16878718  0.83566742  0.25128880  1
  In  In95  1  0.66608805  0.66358494  0.74762544  1
  In  In96  1  0.83760629  0.49788048  0.74693487  1
  In  In97  1  0.49981171  0.50014760  0.25221843  1
  In  In98  1  0.16690366  0.49888219  0.74914120  1
  In  In99  1  0.00122505  0.67001091  0.25062789  1
  In  In100  1  0.49782306  0.16799197  0.50000501  1
  In  In101  1  0.66711908  0.66863145  0.25200068  1
  In  In102  1  0.33353187  0.66827713  0.25060786  1
  In  In103  1  0.83416776  0.83007884  0.75032004  1
  In  In104  1  0.66505966  0.66536555  0.49997832  1
  In  In105  1  0.66650252  -0.00087220  0.00470012  1
  In  In106  1  0.66778421  0.33639738  0.74799750  1
  In  In107  1  0.49819977  0.83149165  0.75196558  1
  Ir  Ir108  1  0.33215494  0.67000466  -0.00151096  1
  Ir  Ir109  1  0.17151387  0.16419734  0.00374796  1
  Ir  Ir110  1  0.50174943  0.82952434  0.00669209  1
  Ir  Ir111  1  0.49808191  0.17418923  0.75063518  1
  Ir  Ir112  1  -0.00453423  0.66680947  -0.00402713  1
  Ir  Ir113  1  0.49217133  0.83337640  0.49441921  1
  Ir  Ir114  1  0.49665177  0.50046660  0.50310314  1
  Ir  Ir115  1  0.33312403  -0.00097661  0.00972320  1
  Ir  Ir116  1  -0.00329175  0.00278359  0.25008504  1
  Ir  Ir117  1  0.16718016  0.50517440  0.49556951  1
  Ir  Ir118  1  0.33932199  -0.00191871  0.49705242  1
  Ir  Ir119  1  0.83223189  0.16922071  0.00494659  1
  Ir  Ir120  1  0.83475760  0.50229740  -0.00073460  1
  Ir  Ir121  1  0.00262323  -0.00199885  0.74711134  1
  Ir  Ir122  1  0.83244305  0.83185514  0.24605872  1
  Ir  Ir123  1  0.49950395  0.16540676  0.24892198  1
  Ir  Ir124  1  0.16303747  0.82798360  0.74767919  1
  Ir  Ir125  1  0.66994210  0.67040233  0.00115278  1
  Ir  Ir126  1  0.00312965  0.66517141  0.50309343  1
  Ir  Ir127  1  0.33569068  0.33672159  0.75048746  1
  Ir  Ir128  1  0.33317848  0.66497677  0.49762841  1
  Ir  Ir129  1  -0.00329577  0.00119651  0.50023042  1
  Ir  Ir130  1  0.83849480  0.50402169  0.24785676  1
  Ir  Ir131  1  0.16355663  0.49942984  0.25188696  1
  Ir  Ir132  1  0.00247584  0.33629545  0.75376521  1
  Ir  Ir133  1  0.33932613  -0.00124826  0.25068655  1
  Ir  Ir134  1  0.82958464  0.82923157  0.00224063  1
  Ir  Ir135  1  0.83061879  0.16519656  0.24804916  1
  Ir  Ir136  1  0.00159331  0.66585000  0.74962914  1
  Ir  Ir137  1  0.33345072  0.33423900  0.24931422  1
  Ir  Ir138  1  0.67041654  0.33459383  -0.00059966  1
  Ir  Ir139  1  0.82730756  0.16651740  0.49413086  1
  Ir  Ir140  1  0.66213469  0.33132407  0.49945785  1
  Ir  Ir141  1  0.49903031  0.49711187  0.74323961  1
  Ir  Ir142  1  0.49528138  0.83536492  0.25175936  1
  Ir  Ir143  1  0.66169970  -0.00059493  0.49607966  1
  O  O144  1  0.31713284  0.33317784  0.12905761  1
  O  O145  1  0.31094865  0.32933757  0.63237911  1
  O  O146  1  0.31736781  0.66805988  0.11926833  1
  O  O147  1  0.29974721  0.65449177  0.61523772  1
  O  O148  1  0.30366496  0.98752536  0.13138026  1
  O  O149  1  0.32165035  0.98627057  0.61759554  1
  O  O150  1  0.63592408  0.32472126  0.11892131  1
  O  O151  1  0.63573650  0.32808883  0.61894626  1
  O  O152  1  0.64864391  0.67084926  0.12162793  1
  O  O153  1  0.62724246  0.65014705  0.62205110  1
  O  O154  1  0.63115426  0.98119624  0.12707268  1
  O  O155  1  0.64693431  1.00091307  0.61712189  1
  O  O156  1  0.98944164  0.30833460  0.12499042  1
  O  O157  1  0.98577081  0.32925175  0.63353188  1
  O  O158  1  0.96640250  0.65673379  0.11720101  1
  O  O159  1  0.96829537  0.65392923  0.62667458  1
  O  O160  1  0.98164132  1.00933491  0.13016833  1
  O  O161  1  0.97618238  0.99518866  0.62314228  1
  O  O162  1  0.19838355  0.15297616  0.12300058  1
  O  O163  1  0.20375823  0.16932191  0.62637767  1
  O  O164  1  0.18748158  0.49831182  0.13119251  1
  O  O165  1  0.19806535  0.49667767  0.61472998  1
  O  O166  1  0.20141524  0.83138878  0.12786667  1
  O  O167  1  0.19808733  0.82001889  0.62695229  1
  O  O168  1  0.53237464  0.15962047  0.13235045  1
  O  O169  1  0.51683230  0.17202561  0.63137223  1
  O  O170  1  0.51504868  0.49081790  0.12307986  1
  O  O171  1  0.52929119  0.48647993  0.62319645  1
  O  O172  1  0.52994660  0.82732048  0.13128681  1
  O  O173  1  0.51250194  0.82446625  0.61523480  1
  O  O174  1  0.86225936  0.16427749  0.12671683  1
  O  O175  1  0.84414871  0.16745156  0.61568171  1
  O  O176  1  0.86874838  0.49971982  0.12393243  1
  O  O177  1  0.87654358  0.49197789  0.62506454  1
  O  O178  1  0.85564424  0.81830693  0.12367107  1
  O  O179  1  0.87037576  0.81400907  0.62403329  1
  O  O180  1  0.15974598  0.16864372  0.37505705  1
  O  O181  1  0.15723633  0.17299886  0.88151796  1
  O  O182  1  0.13239125  0.51354583  0.37470624  1
  O  O183  1  0.13390555  0.52160211  0.87291846  1
  O  O184  1  0.15280438  0.84082799  0.37805348  1
  O  O185  1  0.14733397  0.82994113  0.86936555  1
  O  O186  1  0.47828749  0.16956029  0.36765175  1
  O  O187  1  0.47832469  0.18526593  0.87189201  1
  O  O188  1  0.46431668  0.50886693  0.38422042  1
  O  O189  1  0.48209729  0.49835315  0.86356391  1
  O  O190  1  0.46068542  0.84620904  0.37135167  1
  O  O191  1  0.48168537  0.83002056  0.88615633  1
  O  O192  1  0.79733985  0.16619924  0.36908657  1
  O  O193  1  0.81483171  0.17608610  0.88484302  1
  O  O194  1  0.81707483  0.51905826  0.36956715  1
  O  O195  1  0.81625380  0.51534668  0.87841697  1
  O  O196  1  0.82003597  0.82636171  0.36803749  1
  O  O197  1  0.79994265  0.83066951  0.88333617  1
  O  O198  1  0.01472745  -0.00148950  0.37502303  1
  O  O199  1  0.01793510  -0.00301259  0.86907328  1
  O  O200  1  0.03572790  0.35231080  0.37385075  1
  O  O201  1  0.03392914  0.34782417  0.87318597  1
  O  O202  1  0.03408470  0.67183348  0.38376128  1
  O  O203  1  0.03217824  0.67154770  0.87223331  1
  O  O204  1  0.37077967  0.00573922  0.37272417  1
  O  O205  1  0.35406628  -0.00020396  0.88826498  1
  O  O206  1  0.35094650  0.34063825  0.37005196  1
  O  O207  1  0.36902322  0.33707742  0.86798909  1
  O  O208  1  0.36823007  0.68032489  0.38165184  1
  O  O209  1  0.34752195  0.67036155  0.87743031  1
  O  O210  1  0.67741012  0.00870364  0.37471372  1
  O  O211  1  0.68146511  -0.00834560  0.88083053  1
  O  O212  1  0.68010983  0.33367519  0.37937393  1
  O  O213  1  0.70066290  0.33933848  0.88109833  1
  O  O214  1  0.70256320  0.66810550  0.37633445  1
  O  O215  1  0.69696723  0.67856930  0.88028170  1
  O  O216  1  0.07619023  0.09983170  0.02680686  1
  O  O217  1  0.07277778  0.08607391  0.51433978  1
  O  O218  1  0.05925187  0.43856144  0.02050414  1
  O  O219  1  0.07127868  0.44399870  0.52014802  1
  O  O220  1  0.06724096  0.75548103  0.01528764  1
  O  O221  1  0.06826301  0.75716470  0.53388687  1
  O  O222  1  0.40015380  0.09248249  0.03396981  1
  O  O223  1  0.39845060  0.09672699  0.52310798  1
  O  O224  1  0.41525479  0.42118638  0.01447225  1
  O  O225  1  0.40140513  0.43663259  0.52551379  1
  O  O226  1  0.40098202  0.76633561  0.02449980  1
  O  O227  1  0.39585142  0.76451307  0.52393753  1
  O  O228  1  0.73928867  0.09991952  0.02905225  1
  O  O229  1  0.72887804  0.09675341  0.50558803  1
  O  O230  1  0.74294960  0.42898387  0.02219081  1
  O  O231  1  0.72959387  0.42590526  0.52134540  1
  O  O232  1  0.73739753  0.76174518  0.02820411  1
  O  O233  1  0.74512077  0.75222080  0.52619453  1
  O  O234  1  0.10577664  0.25967470  0.00548022  1
  O  O235  1  0.09252804  0.26020213  0.50415984  1
  O  O236  1  0.08426555  0.59719380  0.01973850  1
  O  O237  1  0.10235490  0.60174855  0.52658749  1
  O  O238  1  0.09709484  0.93255063  0.02272230  1
  O  O239  1  0.08345048  0.92435275  0.52108571  1
  O  O240  1  0.42825775  0.25995937  0.03131253  1
  O  O241  1  0.42786934  0.26541214  0.52514848  1
  O  O242  1  0.42085894  0.59672911  0.00883785  1
  O  O243  1  0.43074493  0.59848483  0.52741381  1
  O  O244  1  0.43122902  0.92860344  0.03509026  1
  O  O245  1  0.43140316  0.93092488  0.51222790  1
  O  O246  1  0.75788052  0.25908797  0.02691992  1
  O  O247  1  0.75630448  0.26262547  0.51328410  1
  O  O248  1  0.76904902  0.60311981  0.02061063  1
  O  O249  1  0.75892258  0.58767393  0.53516257  1
  O  O250  1  0.75696714  0.91457566  0.02952365  1
  O  O251  1  0.74942768  0.92331558  0.50785356  1
  O  O252  1  0.24518815  0.06301516  0.26176740  1
  O  O253  1  0.24322212  0.07236629  0.76584286  1
  O  O254  1  0.23479854  0.40190982  0.27847672  1
  O  O255  1  0.23871810  0.39892774  0.77712250  1
  O  O256  1  0.23936860  0.73476353  0.28393725  1
  O  O257  1  0.22274093  0.72940481  0.76608126  1
  O  O258  1  0.55853014  0.06767168  0.26963580  1
  O  O259  1  0.56527276  0.08194782  0.76829503  1
  O  O260  1  0.57125418  0.40279096  0.25544977  1
  O  O261  1  0.55950472  0.39969693  0.76299680  1
  O  O262  1  0.55897462  0.74084792  0.27828144  1
  O  O263  1  0.57590264  0.74085051  0.76437927  1
  O  O264  1  0.90236775  0.07425439  0.26836182  1
  O  O265  1  0.91679310  0.07364383  0.76205350  1
  O  O266  1  0.90996093  0.41584613  0.26977335  1
  O  O267  1  0.90860573  0.40156173  0.78304570  1
  O  O268  1  0.89650366  0.73405036  0.26279233  1
  O  O269  1  0.90605732  0.72708828  0.77623000  1
  O  O270  1  0.26837889  0.24037195  0.25506499  1
  O  O271  1  0.26737936  0.24688817  0.77301628  1
  O  O272  1  0.25591718  0.56792761  0.27955321  1
  O  O273  1  0.26561626  0.56705586  0.75396765  1
  O  O274  1  0.27937813  0.90233522  0.27308251  1
  O  O275  1  0.25539764  0.89728270  0.75623619  1
  O  O276  1  0.59832813  0.22522023  0.26846682  1
  O  O277  1  0.58684625  0.24586091  0.77349607  1
  O  O278  1  0.58960160  0.57968441  0.27420518  1
  O  O279  1  0.59460019  0.55982693  0.75883567  1
  O  O280  1  0.58437204  0.90325117  0.27317433  1
  O  O281  1  0.59432444  0.90208869  0.77162915  1
  O  O282  1  0.92190249  0.23536190  0.26481523  1
  O  O283  1  0.93099415  0.24728053  0.77433941  1
  O  O284  1  0.93034987  0.57242104  0.27243388  1
  O  O285  1  0.94048743  0.57074414  0.77507227  1
  O  O286  1  0.92615220  0.90589712  0.26417731  1
  O  O287  1  0.93368196  0.90628895  0.75594768  1
  O  O288  1  0.25727391  0.24861438  0.48259942  1
  O  O289  1  0.26412683  0.23347151  0.99333114  1
  O  O290  1  0.26700496  0.56905696  0.46762190  1
  O  O291  1  0.25552917  0.58302211  0.98066820  1
  O  O292  1  0.27587976  0.89886411  0.48538500  1
  O  O293  1  0.26752564  0.90706432  0.99270761  1
  O  O294  1  0.59913138  0.23538052  0.47720232  1
  O  O295  1  0.59691358  0.24802850  0.98097870  1
  O  O296  1  0.58534184  0.57005999  0.47707443  1
  O  O297  1  0.59929673  0.58060049  0.98314686  1
  O  O298  1  0.58647323  0.90713010  0.47252096  1
  O  O299  1  0.59831580  0.89011473  0.98785138  1
  O  O300  1  0.91621851  0.23922711  0.48303814  1
  O  O301  1  0.91939901  0.24361589  0.98068866  1
  O  O302  1  0.93965928  0.57328202  0.47594452  1
  O  O303  1  0.92868300  0.57182872  0.97072446  1
  O  O304  1  0.92558591  0.91053651  0.49195872  1
  O  O305  1  0.91735975  0.90375195  0.98754346  1
  O  O306  1  0.24813765  0.06374053  0.48629795  1
  O  O307  1  0.23359878  0.06226420  0.99412988  1
  O  O308  1  0.23209425  0.41318525  0.46551097  1
  O  O309  1  0.23216304  0.40100115  0.97306843  1
  O  O310  1  0.23747719  0.72872898  0.47436198  1
  O  O311  1  0.23813797  0.73655963  0.97884022  1
  O  O312  1  0.56988331  0.07068634  0.47507683  1
  O  O313  1  0.56715723  0.07061295  0.99625406  1
  O  O314  1  0.56239790  0.40043102  0.48804450  1
  O  O315  1  0.57774567  0.40081841  0.97612202  1
  O  O316  1  0.55616654  0.73545002  0.47824036  1
  O  O317  1  0.57711332  0.74042099  0.97644819  1
  O  O318  1  0.90073037  0.07568433  0.47945033  1
  O  O319  1  0.90503008  0.08138385  0.98739386  1
  O  O320  1  0.91138886  0.41170327  0.47016292  1
  O  O321  1  0.90141337  0.40895615  0.97208806  1
  O  O322  1  0.90709453  0.72526622  0.47734493  1
  O  O323  1  0.89661625  0.73190572  0.97630660  1
  O  O324  1  0.10012840  0.26101357  0.24750389  1
  O  O325  1  0.09622764  0.26700210  0.74592909  1
  O  O326  1  0.09420508  0.58965039  0.23203122  1
  O  O327  1  0.09432089  0.60069518  0.71846756  1
  O  O328  1  0.09465801  0.93892688  0.22838850  1
  O  O329  1  0.09160165  0.91978188  0.72314249  1
  O  O330  1  0.43233228  0.26461042  0.21996772  1
  O  O331  1  0.43036947  0.27022023  0.72287464  1
  O  O332  1  0.42658516  0.59641810  0.24420700  1
  O  O333  1  0.43363830  0.59209559  0.71695400  1
  O  O334  1  0.43485014  0.93491531  0.22506200  1
  O  O335  1  0.42026978  0.92121583  0.73455633  1
  O  O336  1  0.75864608  0.25311793  0.22344594  1
  O  O337  1  0.76541639  0.26571957  0.74662679  1
  O  O338  1  0.77210821  0.59790690  0.22685429  1
  O  O339  1  0.76748971  0.59565287  0.72707196  1
  O  O340  1  0.75584560  0.91814739  0.23140006  1
  O  O341  1  0.76028393  0.92157914  0.73229139  1
  O  O342  1  0.06592995  0.09490464  0.22916293  1
  O  O343  1  0.07490687  0.08627900  0.73500206  1
  O  O344  1  0.06904185  0.43791168  0.22455539  1
  O  O345  1  0.06295919  0.43491506  0.73059180  1
  O  O346  1  0.07420944  0.76104241  0.23363343  1
  O  O347  1  0.06637251  0.76193275  0.72060217  1
  O  O348  1  0.40313727  0.09849479  0.21983675  1
  O  O349  1  0.40407380  0.10706916  0.72836205  1
  O  O350  1  0.40022064  0.42650270  0.24054262  1
  O  O351  1  0.40191729  0.43235762  0.71810693  1
  O  O352  1  0.39980085  0.77501891  0.23150862  1
  O  O353  1  0.40230053  0.75806920  0.71903528  1
  O  O354  1  0.73360468  0.09980206  0.22677073  1
  O  O355  1  0.74348973  0.09124837  0.74226804  1
  O  O356  1  0.74970662  0.42959092  0.23586536  1
  O  O357  1  0.73291646  0.43579734  0.72222960  1
  O  O358  1  0.73980999  0.76422625  0.22392258  1
  O  O359  1  0.74721236  0.75029425  0.72104461  1
