# generated using pymatgen
data_BaLaInIrO6
_symmetry_space_group_name_H-M   'P 1'
_cell_length_a   17.54918322
_cell_length_b   17.58244966
_cell_length_c   16.50645112
_cell_angle_alpha   89.93368065
_cell_angle_beta   90.02011927
_cell_angle_gamma   89.99811375
_symmetry_Int_Tables_number   1
_chemical_formula_structural   BaLaInIrO6
_chemical_formula_sum   'Ba36 La36 In36 Ir36 O216'
_cell_volume   5093.18771808
_cell_formula_units_Z   36
loop_
 _symmetry_equiv_pos_site_id
 _symmetry_equiv_pos_as_xyz
  1  'x, y, z'
loop_
 _atom_site_type_symbol
 _atom_site_label
 _atom_site_symmetry_multiplicity
 _atom_site_fract_x
 _atom_site_fract_y
 _atom_site_fract_z
 _atom_site_occupancy
  Ba  Ba0  1  0.16746584  0.66056040  0.37876493  1
  Ba  Ba1  1  0.83672730  0.99090305  0.37988545  1
  Ba  Ba2  1  0.33599128  0.84628114  0.12603432  1
  Ba  Ba3  1  0.16845399  0.01007861  0.12520329  1
  Ba  Ba4  1  0.33536085  0.82436066  0.37363035  1
  Ba  Ba5  1  -0.00200908  0.82289555  0.87635285  1
  Ba  Ba6  1  0.49510627  0.34349032  0.12629265  1
  Ba  Ba7  1  0.16889111  0.65425479  0.87550977  1
  Ba  Ba8  1  0.82811314  0.32821039  0.87376893  1
  Ba  Ba9  1  0.00196694  0.49531719  0.37513419  1
  Ba  Ba10  1  0.16462227  0.34114613  0.12522314  1
  Ba  Ba11  1  0.66804772  0.84419055  0.62626351  1
  Ba  Ba12  1  0.66890028  0.50995367  0.62338026  1
  Ba  Ba13  1  0.99940818  0.17304388  0.13353728  1
  Ba  Ba14  1  0.33518225  0.48611787  0.86780967  1
  Ba  Ba15  1  0.99847169  0.17442470  0.61889808  1
  Ba  Ba16  1  0.83029258  0.00873028  0.12628136  1
  Ba  Ba17  1  0.99883086  0.50608554  0.62528200  1
  Ba  Ba18  1  0.33864034  0.51130506  0.62542209  1
  Ba  Ba19  1  0.82887964  0.01002390  0.62772741  1
  Ba  Ba20  1  0.66959822  0.84426097  0.12520695  1
  Ba  Ba21  1  0.66548979  0.82170188  0.87500216  1
  Ba  Ba22  1  -0.00031013  0.16267819  0.37755165  1
  Ba  Ba23  1  0.83154195  0.33741690  0.12617295  1
  Ba  Ba24  1  0.33663004  0.84205538  0.62197448  1
  Ba  Ba25  1  0.16509203  0.34791234  0.62231026  1
  Ba  Ba26  1  -0.00257391  0.49515245  0.87154045  1
  Ba  Ba27  1  0.83202763  0.65905826  0.87613215  1
  Ba  Ba28  1  0.32950217  0.81831700  0.87636198  1
  Ba  Ba29  1  0.33371446  0.17815086  0.12640605  1
  Ba  Ba30  1  0.66262019  0.15073452  0.37660607  1
  Ba  Ba31  1  0.83418285  0.67111650  0.12568416  1
  Ba  Ba32  1  0.83325809  0.33950809  0.62249342  1
  Ba  Ba33  1  0.66283542  0.15813635  0.87424714  1
  Ba  Ba34  1  0.16428295  0.99572169  0.37451241  1
  Ba  Ba35  1  0.66753484  0.82342821  0.37761468  1
  La  La36  1  0.50665158  0.98540414  0.87829665  1
  La  La37  1  0.33080793  0.16022573  0.87271451  1
  La  La38  1  0.82987457  0.67681037  0.62944929  1
  La  La39  1  0.33247174  0.15296270  0.37358580  1
  La  La40  1  0.50679249  0.64822671  0.37865562  1
  La  La41  1  -0.00552986  0.15801517  0.87705526  1
  La  La42  1  0.50729837  0.31899059  0.87786662  1
  La  La43  1  0.16325102  0.32657050  0.87097884  1
  La  La44  1  0.50606275  0.64886809  0.87136293  1
  La  La45  1  0.66077465  0.48244944  0.37293462  1
  La  La46  1  -0.00968802  0.81849905  0.37175203  1
  La  La47  1  0.49417856  0.01782787  0.12944262  1
  La  La48  1  0.50925694  0.98310663  0.37777889  1
  La  La49  1  0.66775100  0.51183666  0.12517932  1
  La  La50  1  0.50086279  0.31665924  0.37176794  1
  La  La51  1  0.34037818  0.51230329  0.12234701  1
  La  La52  1  0.32533919  0.48624167  0.37877086  1
  La  La53  1  0.83254805  0.31830906  0.37841051  1
  La  La54  1  0.17097915  0.31663112  0.37928107  1
  La  La55  1  0.66101500  0.48863412  0.87835979  1
  La  La56  1  0.83392957  0.98383145  0.87528491  1
  La  La57  1  0.16353821  0.01339906  0.62739763  1
  La  La58  1  0.67576823  0.17883034  0.62154505  1
  La  La59  1  0.49312456  0.68200944  0.12226462  1
  La  La60  1  0.16931580  0.67566631  0.62866378  1
  La  La61  1  0.49273877  0.35144593  0.62323711  1
  La  La62  1  1.00799986  0.85140631  0.12406118  1
  La  La63  1  1.00554801  0.84497062  0.62495144  1
  La  La64  1  0.49767021  0.68156742  0.62410460  1
  La  La65  1  0.49995419  0.01161218  0.62393872  1
  La  La66  1  0.16588693  0.68190510  0.12656667  1
  La  La67  1  0.83680613  0.65664632  0.37597647  1
  La  La68  1  0.17336896  0.98671494  0.87393075  1
  La  La69  1  0.67273248  0.17976374  0.12684484  1
  La  La70  1  0.33842874  0.18519314  0.62160853  1
  La  La71  1  0.99876638  0.50116993  0.11560836  1
  In  In72  1  0.50192276  0.16510519  0.50080593  1
  In  In73  1  0.00006646  0.66310536  0.24796620  1
  In  In74  1  0.16833693  0.83295903  0.00047739  1
  In  In75  1  0.00131983  0.33289630  -0.00279268  1
  In  In76  1  0.83144501  0.83213766  0.24910875  1
  In  In77  1  0.82981801  0.16607539  -0.00257390  1
  In  In78  1  0.66357421  0.00127602  0.00279769  1
  In  In79  1  0.66388731  0.66635454  0.00046107  1
  In  In80  1  0.82831526  0.49709039  0.25186998  1
  In  In81  1  -0.00085141  0.00101831  0.25203583  1
  In  In82  1  0.33760558  0.66519416  0.49951326  1
  In  In83  1  0.33425121  0.33502544  -0.00432056  1
  In  In84  1  0.66223122  0.33511935  0.74706149  1
  In  In85  1  0.50015367  0.83301765  0.75121066  1
  In  In86  1  0.33613315  0.66300342  0.25160674  1
  In  In87  1  0.50085605  0.83181013  0.25038209  1
  In  In88  1  -0.00001234  0.00523152  -0.00193827  1
  In  In89  1  0.33678240  0.00433857  0.74679490  1
  In  In90  1  0.16995099  0.50041713  0.24693335  1
  In  In91  1  0.16763884  0.83377464  0.49939760  1
  In  In92  1  -0.00172543  0.33285743  0.74789194  1
  In  In93  1  0.16584022  0.83362563  0.25227818  1
  In  In94  1  0.33858367  0.00293401  -0.00314685  1
  In  In95  1  0.83191077  0.83256581  0.74993264  1
  In  In96  1  0.50093145  0.16626623  0.74814601  1
  In  In97  1  0.00044791  0.66465060  0.00166842  1
  In  In98  1  0.00050431  0.00308692  0.75052480  1
  In  In99  1  0.00049373  0.33618577  0.49734445  1
  In  In100  1  -0.00146431  0.33728928  0.25219424  1
  In  In101  1  0.16915321  0.83342706  0.74758957  1
  In  In102  1  0.33367928  0.33541988  0.25083864  1
  In  In103  1  -0.00123187  0.66542691  0.74803528  1
  In  In104  1  0.16653304  0.16943314  -0.00411126  1
  In  In105  1  0.00061309  -0.00097170  0.50253169  1
  In  In106  1  0.82846870  0.50062738  0.49860724  1
  In  In107  1  0.66414581  0.66487676  0.25127537  1
  Ir  Ir108  1  0.33733963  0.33650766  0.50050676  1
  Ir  Ir109  1  0.82825749  0.16580219  0.74880247  1
  Ir  Ir110  1  0.83414033  0.83361188  0.00078340  1
  Ir  Ir111  1  0.33660525  0.66283364  0.75096209  1
  Ir  Ir112  1  0.82667068  0.50057095  0.75146771  1
  Ir  Ir113  1  0.66493152  0.00122299  0.75088678  1
  Ir  Ir114  1  0.82576236  0.16804598  0.25432048  1
  Ir  Ir115  1  0.49840634  0.83172868  -0.00099826  1
  Ir  Ir116  1  0.16874203  0.50347071  0.50237839  1
  Ir  Ir117  1  0.66265264  0.66073882  0.74754459  1
  Ir  Ir118  1  0.17448768  0.50058051  -0.00269122  1
  Ir  Ir119  1  0.33621260  0.33263480  0.74585508  1
  Ir  Ir120  1  0.66214403  0.00195782  0.25354278  1
  Ir  Ir121  1  0.66756984  0.66677745  0.50250977  1
  Ir  Ir122  1  0.83419762  0.82713596  0.50184554  1
  Ir  Ir123  1  0.50242310  0.49934091  0.49683712  1
  Ir  Ir124  1  0.50120223  0.50017569  0.00125916  1
  Ir  Ir125  1  0.50301666  0.83402177  0.50210554  1
  Ir  Ir126  1  0.82861581  0.49634242  0.00024344  1
  Ir  Ir127  1  0.17253774  0.16743722  0.25535331  1
  Ir  Ir128  1  0.50062644  0.16830083  0.00123910  1
  Ir  Ir129  1  0.50008270  0.49872635  0.25041935  1
  Ir  Ir130  1  -0.00316672  0.66710476  0.50323865  1
  Ir  Ir131  1  0.82617891  0.16726308  0.50087474  1
  Ir  Ir132  1  0.33728996  0.66032220  -0.00199340  1
  Ir  Ir133  1  0.66008072  0.33307332  0.49401123  1
  Ir  Ir134  1  0.17193698  0.50170568  0.74821010  1
  Ir  Ir135  1  0.34060098  0.00594220  0.25362593  1
  Ir  Ir136  1  0.65963484  0.33098887  0.25104065  1
  Ir  Ir137  1  0.16938444  0.17010417  0.74632997  1
  Ir  Ir138  1  0.66482605  -0.00413837  0.50230034  1
  Ir  Ir139  1  0.33699315  0.00379381  0.49963931  1
  Ir  Ir140  1  0.17814967  0.16687929  0.50167921  1
  Ir  Ir141  1  0.50180975  0.16609265  0.25080135  1
  Ir  Ir142  1  0.49972552  0.49955739  0.74933840  1
  Ir  Ir143  1  0.65985159  0.33572323  0.00414857  1
  O  O144  1  0.31789382  0.33487699  0.12382143  1
  O  O145  1  0.31103005  0.32455940  0.62250141  1
  O  O146  1  0.30897179  0.65013455  0.11785518  1
  O  O147  1  0.31065169  0.66411605  0.63014454  1
  O  O148  1  0.32208184  1.00682586  0.13220077  1
  O  O149  1  0.30176690  0.99972410  0.61676805  1
  O  O150  1  0.63996233  0.31603807  0.12770665  1
  O  O151  1  0.63037744  0.32375959  0.61588970  1
  O  O152  1  0.62749209  0.65335389  0.12337740  1
  O  O153  1  0.63293920  0.66303754  0.62443348  1
  O  O154  1  0.63263586  1.00209190  0.13328848  1
  O  O155  1  0.63437742  0.99894713  0.62661543  1
  O  O156  1  0.98571709  0.33303747  0.12492710  1
  O  O157  1  0.98537086  0.33425013  0.62273099  1
  O  O158  1  0.98067961  0.63396270  0.12292743  1
  O  O159  1  0.96571102  0.65865674  0.61972061  1
  O  O160  1  0.97851708  0.99942562  0.12563890  1
  O  O161  1  0.97617989  0.99076481  0.62537479  1
  O  O162  1  0.18556739  0.16832913  0.13349223  1
  O  O163  1  0.20702590  0.15652408  0.62408391  1
  O  O164  1  0.20555080  0.49252236  0.11525450  1
  O  O165  1  0.19160445  0.50753140  0.62468234  1
  O  O166  1  0.19126532  0.82002989  0.12548271  1
  O  O167  1  0.19150259  0.81362811  0.62385459  1
  O  O168  1  0.53409717  0.15690436  0.12550252  1
  O  O169  1  0.53973559  0.15294293  0.62348819  1
  O  O170  1  0.53205753  0.49338974  0.12620727  1
  O  O171  1  0.52374340  0.48507031  0.62366497  1
  O  O172  1  0.52094174  0.82080843  0.11821188  1
  O  O173  1  0.52041208  0.82028606  0.62310547  1
  O  O174  1  0.84224427  0.16972272  0.13359904  1
  O  O175  1  0.84557567  0.16725581  0.62555101  1
  O  O176  1  0.85912098  0.49132682  0.12028622  1
  O  O177  1  0.84375767  0.49668612  0.63010778  1
  O  O178  1  0.86306253  0.83626375  0.11927518  1
  O  O179  1  0.86277013  0.82281002  0.62017684  1
  O  O180  1  0.15247575  0.17490932  0.37964442  1
  O  O181  1  0.13518771  0.18205721  0.86138963  1
  O  O182  1  0.15394765  0.50524448  0.38418428  1
  O  O183  1  0.14857844  0.49899090  0.87161508  1
  O  O184  1  0.12921400  0.83537853  0.37743236  1
  O  O185  1  0.14903860  0.84067025  0.87369799  1
  O  O186  1  0.47124976  0.17268892  0.37292208  1
  O  O187  1  0.47026890  0.17655927  0.87987007  1
  O  O188  1  0.46733851  0.50881013  0.37385632  1
  O  O189  1  0.48018389  0.51445811  0.87575944  1
  O  O190  1  0.48330954  0.84716829  0.38144648  1
  O  O191  1  0.47775529  0.84629877  0.87954958  1
  O  O192  1  0.80569590  0.17767702  0.37861972  1
  O  O193  1  0.80830700  0.17171454  0.86537381  1
  O  O194  1  0.79115338  0.51807949  0.37659385  1
  O  O195  1  0.79680376  0.50126684  0.87690486  1
  O  O196  1  0.81658789  0.82830028  0.38446714  1
  O  O197  1  0.81278345  0.83664462  0.88063206  1
  O  O198  1  0.01271956  0.00552334  0.37890378  1
  O  O199  1  0.03849793  0.01890128  0.87108936  1
  O  O200  1  0.03470866  0.33457571  0.37555336  1
  O  O201  1  0.02681378  0.33879425  0.86975746  1
  O  O202  1  0.01934126  0.67825499  0.38444574  1
  O  O203  1  0.01655763  0.66226535  0.87566174  1
  O  O204  1  0.37368317  0.01361605  0.37804368  1
  O  O205  1  0.37536298  0.02207954  0.87223879  1
  O  O206  1  0.36696187  0.34731816  0.38116236  1
  O  O207  1  0.37014239  0.33073811  0.86450726  1
  O  O208  1  0.37223898  0.66208734  0.37598618  1
  O  O209  1  0.36937921  0.66289989  0.87417476  1
  O  O210  1  0.68728347  -0.00267920  0.37820821  1
  O  O211  1  0.69396481  0.00385001  0.87115328  1
  O  O212  1  0.69321462  0.34264002  0.37196207  1
  O  O213  1  0.67522959  0.34787138  0.88287414  1
  O  O214  1  0.69693132  0.66762892  0.38420992  1
  O  O215  1  0.67847424  0.65795210  0.86885580  1
  O  O216  1  0.06412402  0.10887133  0.00831987  1
  O  O217  1  0.09371674  0.09012107  0.52345209  1
  O  O218  1  0.07670627  0.44093101  0.01549259  1
  O  O219  1  0.07899095  0.43416830  0.51454262  1
  O  O220  1  0.07277770  0.75789322  0.03197669  1
  O  O221  1  0.06196907  0.75863470  0.52840949  1
  O  O222  1  0.41565555  0.09674583  0.02604979  1
  O  O223  1  0.40376938  0.09541629  0.52750838  1
  O  O224  1  0.40642462  0.43566416  0.01905925  1
  O  O225  1  0.41015364  0.42727646  0.52171710  1
  O  O226  1  0.40700629  0.75509065  0.02135825  1
  O  O227  1  0.41783345  0.75966223  0.51903781  1
  O  O228  1  0.73045439  0.09972373  0.02453618  1
  O  O229  1  0.73007301  0.09414918  0.52345508  1
  O  O230  1  0.72740708  0.43014484  0.02392867  1
  O  O231  1  0.72988357  0.42156531  0.50968989  1
  O  O232  1  0.74440448  0.75862206  0.01657470  1
  O  O233  1  0.74135554  0.75511019  0.52994446  1
  O  O234  1  0.10778691  0.27473489  -0.00146038  1
  O  O235  1  0.10314944  0.25335745  0.51240604  1
  O  O236  1  0.11117814  0.59200379  0.02473309  1
  O  O237  1  0.09829540  0.60175782  0.52714663  1
  O  O238  1  0.08733555  0.92386028  0.01872686  1
  O  O239  1  0.09700653  0.92672476  0.53597084  1
  O  O240  1  0.43436914  0.25981779  0.01246236  1
  O  O241  1  0.42862930  0.26557269  0.52531883  1
  O  O242  1  0.43583326  0.59610883  0.02427451  1
  O  O243  1  0.44272544  0.59565852  0.52313872  1
  O  O244  1  0.43834563  0.92998555  0.02141017  1
  O  O245  1  0.43657037  0.93601698  0.52241380  1
  O  O246  1  0.74811254  0.26219852  0.01686901  1
  O  O247  1  0.74785464  0.25737428  0.52056191  1
  O  O248  1  0.75411720  0.58127629  0.02138003  1
  O  O249  1  0.76076031  0.60338462  0.52626135  1
  O  O250  1  0.76107271  0.92370878  0.01088148  1
  O  O251  1  0.76400351  0.92290444  0.52049989  1
  O  O252  1  0.25201464  0.08067277  0.27833364  1
  O  O253  1  0.23645992  0.08005774  0.77664640  1
  O  O254  1  0.23503357  0.39996654  0.28300031  1
  O  O255  1  0.23974311  0.40109487  0.76911929  1
  O  O256  1  0.23899671  0.73532972  0.26245995  1
  O  O257  1  0.24620806  0.73127313  0.76503070  1
  O  O258  1  0.56364397  0.06635410  0.27246167  1
  O  O259  1  0.56861051  0.06385793  0.77293532  1
  O  O260  1  0.56559152  0.40030568  0.27928844  1
  O  O261  1  0.56282669  0.40627837  0.77257281  1
  O  O262  1  0.56530189  0.73038310  0.27670081  1
  O  O263  1  0.56694795  0.72670596  0.76628366  1
  O  O264  1  0.89929557  0.08273795  0.26654461  1
  O  O265  1  0.89961324  0.07712669  0.77599312  1
  O  O266  1  0.89341077  0.39901838  0.28029976  1
  O  O267  1  0.89864739  0.41133730  0.76459657  1
  O  O268  1  0.90380744  0.73637432  0.27890366  1
  O  O269  1  0.90119700  0.73633161  0.75759398  1
  O  O270  1  0.26353080  0.23665497  0.28017331  1
  O  O271  1  0.26703805  0.23823542  0.77155535  1
  O  O272  1  0.27913398  0.55581641  0.26509549  1
  O  O273  1  0.26514221  0.57225991  0.76532800  1
  O  O274  1  0.26790285  0.91881220  0.26937872  1
  O  O275  1  0.25800993  0.91755477  0.77316175  1
  O  O276  1  0.59018597  0.23824895  0.27338170  1
  O  O277  1  0.58423033  0.24774986  0.77501488  1
  O  O278  1  0.59171342  0.56224391  0.27965355  1
  O  O279  1  0.59432025  0.56576796  0.77430438  1
  O  O280  1  0.59341382  0.91134551  0.27041296  1
  O  O281  1  0.59566749  0.91113270  0.77168512  1
  O  O282  1  0.91298333  0.24201256  0.27332849  1
  O  O283  1  0.92367289  0.23131487  0.76797028  1
  O  O284  1  0.91650964  0.57740306  0.27653363  1
  O  O285  1  0.91476699  0.57029548  0.76135024  1
  O  O286  1  0.92933335  0.89995146  0.27153183  1
  O  O287  1  0.91920898  0.91416672  0.77551975  1
  O  O288  1  0.27099553  0.24115199  0.47367357  1
  O  O289  1  0.26751791  0.23694104  0.96800733  1
  O  O290  1  0.26649378  0.56466139  0.48214936  1
  O  O291  1  0.27458882  0.56392510  0.98213778  1
  O  O292  1  0.26756745  0.91666567  0.47793060  1
  O  O293  1  0.25894761  0.91512556  0.97854490  1
  O  O294  1  0.58716691  0.24735707  0.47074260  1
  O  O295  1  0.58873991  0.24410996  0.97808118  1
  O  O296  1  0.59703100  0.57017331  0.47081679  1
  O  O297  1  0.59380016  0.56470777  0.97772898  1
  O  O298  1  0.59362867  0.90567343  0.48249170  1
  O  O299  1  0.58735671  0.90478232  0.98064589  1
  O  O300  1  0.91194808  0.24445313  0.48186808  1
  O  O301  1  0.92837716  0.23497537  0.97673268  1
  O  O302  1  0.92409236  0.58027901  0.47865028  1
  O  O303  1  0.91638904  0.56724924  0.98407197  1
  O  O304  1  0.93149222  0.88895853  0.48384944  1
  O  O305  1  0.91824408  0.90895168  0.97811261  1
  O  O306  1  0.25345128  0.07998049  0.47146013  1
  O  O307  1  0.24109726  0.07602501  0.96535135  1
  O  O308  1  0.24095644  0.40569499  0.47424278  1
  O  O309  1  0.23359905  0.40448892  0.96967250  1
  O  O310  1  0.24591416  0.74126517  0.48455289  1
  O  O311  1  0.24679874  0.72907168  0.98629651  1
  O  O312  1  0.56868757  0.06051164  0.48175706  1
  O  O313  1  0.56274429  0.07181978  0.97870419  1
  O  O314  1  0.56761475  0.40346766  0.46713799  1
  O  O315  1  0.56653231  0.40589359  0.97518730  1
  O  O316  1  0.56734326  0.73200157  0.48114358  1
  O  O317  1  0.56046966  0.73448374  0.97610630  1
  O  O318  1  0.90396624  0.08338191  0.49012590  1
  O  O319  1  0.89893967  0.07010477  0.96588389  1
  O  O320  1  0.89969443  0.40533620  0.47307116  1
  O  O321  1  0.90190286  0.41107026  0.98317867  1
  O  O322  1  0.89949201  0.73123903  0.47884848  1
  O  O323  1  0.90512271  0.74632314  0.98787649  1
  O  O324  1  0.10141167  0.25691855  0.24621636  1
  O  O325  1  0.10139754  0.25813344  0.72737489  1
  O  O326  1  0.10867493  0.60359296  0.23174803  1
  O  O327  1  0.10407774  0.59469528  0.72751770  1
  O  O328  1  0.09032609  0.92424880  0.22372533  1
  O  O329  1  0.09597904  0.92982662  0.72221503  1
  O  O330  1  0.43322647  0.26002783  0.24262295  1
  O  O331  1  0.42602208  0.26403969  0.71637339  1
  O  O332  1  0.44039190  0.59239248  0.22059014  1
  O  O333  1  0.43694899  0.59842496  0.72950292  1
  O  O334  1  0.43339771  0.93753766  0.23393600  1
  O  O335  1  0.43577061  0.93401264  0.72500709  1
  O  O336  1  0.75145769  0.25912715  0.23307695  1
  O  O337  1  0.75239725  0.25393050  0.72670175  1
  O  O338  1  0.74694189  0.58237808  0.21886874  1
  O  O339  1  0.76001696  0.59725333  0.72725798  1
  O  O340  1  0.75316620  0.93323055  0.23864587  1
  O  O341  1  0.75485233  0.93057416  0.73856151  1
  O  O342  1  0.08508579  0.09523817  0.24297037  1
  O  O343  1  0.08453190  0.09750670  0.72030713  1
  O  O344  1  0.06589215  0.43938540  0.22540995  1
  O  O345  1  0.08383398  0.43212443  0.73582592  1
  O  O346  1  0.06217970  0.76465657  0.22192741  1
  O  O347  1  0.07150084  0.75936500  0.71909002  1
  O  O348  1  0.41229528  0.09640209  0.22987134  1
  O  O349  1  0.40315665  0.10241384  0.71505842  1
  O  O350  1  0.40486890  0.43728544  0.23076563  1
  O  O351  1  0.41076325  0.42240641  0.72268313  1
  O  O352  1  0.40995638  0.75620617  0.22641273  1
  O  O353  1  0.40712552  0.75122318  0.73276016  1
  O  O354  1  0.72824596  0.09890002  0.23119212  1
  O  O355  1  0.72957637  0.09839980  0.72588082  1
  O  O356  1  0.72067596  0.42610712  0.23021312  1
  O  O357  1  0.73435921  0.43226791  0.74381448  1
  O  O358  1  0.73860155  0.75777735  0.23273754  1
  O  O359  1  0.73479551  0.74999359  0.73040608  1
