# generated using pymatgen
data_BaLaInIrO6
_symmetry_space_group_name_H-M   'P 1'
_cell_length_a   17.51380840
_cell_length_b   17.54357655
_cell_length_c   16.47811809
_cell_angle_alpha   90.00652131
_cell_angle_beta   90.00716753
_cell_angle_gamma   89.96145364
_symmetry_Int_Tables_number   1
_chemical_formula_structural   BaLaInIrO6
_chemical_formula_sum   'Ba36 La36 In36 Ir36 O216'
_cell_volume   5062.98029380
_cell_formula_units_Z   36
loop_
 _symmetry_equiv_pos_site_id
 _symmetry_equiv_pos_as_xyz
  1  'x, y, z'
loop_
 _atom_site_type_symbol
 _atom_site_label
 _atom_site_symmetry_multiplicity
 _atom_site_fract_x
 _atom_site_fract_y
 _atom_site_fract_z
 _atom_site_occupancy
  Ba  Ba0  1  -0.00262452  0.15671418  0.87187965  1
  Ba  Ba1  1  0.66967921  0.15676291  0.37745445  1
  Ba  Ba2  1  0.50676864  0.32496124  0.87254760  1
  Ba  Ba3  1  0.50160530  0.31549787  0.37392188  1
  Ba  Ba4  1  -0.00518128  0.16215038  0.37332465  1
  Ba  Ba5  1  0.33508764  0.17277606  0.12006360  1
  Ba  Ba6  1  0.16635924  0.32425772  0.37312663  1
  Ba  Ba7  1  0.32950253  0.48830092  0.37306406  1
  Ba  Ba8  1  0.49861957  0.67929065  0.12521506  1
  Ba  Ba9  1  0.66906457  0.50898635  0.62891302  1
  Ba  Ba10  1  0.99891516  0.83830269  0.62708414  1
  Ba  Ba11  1  -0.00187729  0.49040284  0.37475150  1
  Ba  Ba12  1  0.16534586  0.66169352  0.37863328  1
  Ba  Ba13  1  0.16872461  0.00823021  0.12627683  1
  Ba  Ba14  1  0.33490733  0.49464731  0.87834669  1
  Ba  Ba15  1  0.83187998  0.65616821  0.37604860  1
  Ba  Ba16  1  0.82970696  0.67402407  0.12782411  1
  Ba  Ba17  1  0.66816155  0.17711176  0.62505026  1
  Ba  Ba18  1  0.67002687  0.84594828  0.62641011  1
  Ba  Ba19  1  0.16364794  0.99354322  0.37654301  1
  Ba  Ba20  1  0.16664199  0.34025157  0.62426125  1
  Ba  Ba21  1  0.16552842  0.00470272  0.62294267  1
  Ba  Ba22  1  0.83529368  0.32547918  0.37351441  1
  Ba  Ba23  1  0.17409332  0.66972451  0.62662948  1
  Ba  Ba24  1  0.82782476  0.34356806  0.62196711  1
  Ba  Ba25  1  0.00116193  0.82272093  0.37999233  1
  Ba  Ba26  1  0.33201126  0.82642747  0.87523280  1
  Ba  Ba27  1  0.50186592  0.01827751  0.62387128  1
  Ba  Ba28  1  0.00226751  0.82232149  0.87879608  1
  Ba  Ba29  1  0.67007203  0.84347565  0.12477499  1
  Ba  Ba30  1  0.99761808  0.51301962  0.12589360  1
  Ba  Ba31  1  0.66317969  0.17389774  0.12548944  1
  Ba  Ba32  1  0.66565317  0.48722782  0.87469620  1
  Ba  Ba33  1  0.32862171  0.83007370  0.37713461  1
  Ba  Ba34  1  0.16524136  0.66007179  0.87415817  1
  Ba  Ba35  1  0.16696471  0.99030918  0.87474831  1
  La  La36  1  0.33058160  0.51080179  0.61740840  1
  La  La37  1  0.49649453  0.35136056  0.12545038  1
  La  La38  1  0.66150734  0.81405816  0.87367274  1
  La  La39  1  0.32866400  0.15917979  0.37463311  1
  La  La40  1  1.00008984  0.84136363  0.12808263  1
  La  La41  1  0.16737585  0.68076829  0.12769152  1
  La  La42  1  0.82864232  0.01419834  0.62615005  1
  La  La43  1  -0.00670526  0.49053427  0.87178900  1
  La  La44  1  0.51020386  0.64553250  0.37708052  1
  La  La45  1  0.84071759  0.98828428  0.37703357  1
  La  La46  1  0.83274317  0.34677678  0.12570988  1
  La  La47  1  0.33439307  0.18047077  0.62479392  1
  La  La48  1  0.32923626  0.15557261  0.86872284  1
  La  La49  1  0.66495053  0.14927449  0.86905132  1
  La  La50  1  0.33736244  0.85536560  0.62710526  1
  La  La51  1  0.67622806  0.51162631  0.12206737  1
  La  La52  1  0.84040583  0.98233130  0.87351314  1
  La  La53  1  1.00112453  0.51298902  0.62193929  1
  La  La54  1  0.66549820  0.47859180  0.37525378  1
  La  La55  1  1.00412958  0.18421329  0.62021580  1
  La  La56  1  0.66324592  0.81776861  0.37630645  1
  La  La57  1  0.50608691  0.98734589  0.87233571  1
  La  La58  1  0.32977390  0.51155108  0.13096116  1
  La  La59  1  0.49200972  0.68739844  0.63001759  1
  La  La60  1  0.82672600  0.68065300  0.62637991  1
  La  La61  1  0.83483794  0.32192486  0.87402390  1
  La  La62  1  0.16918639  0.31996746  0.87596149  1
  La  La63  1  0.50762258  0.64737030  0.87623284  1
  La  La64  1  0.49541773  0.00651667  0.12074948  1
  La  La65  1  0.50013410  0.99574353  0.37589404  1
  La  La66  1  0.49790825  0.34386345  0.62140898  1
  La  La67  1  1.00844881  0.18511222  0.12558929  1
  La  La68  1  0.16490321  0.34775378  0.12686786  1
  La  La69  1  0.82926720  0.01025329  0.12426208  1
  La  La70  1  0.33185206  0.85039034  0.12627225  1
  La  La71  1  0.84043233  0.65034426  0.87616489  1
  In  In72  1  0.16532109  0.16755507  -0.00057928  1
  In  In73  1  0.66410946  0.66509840  0.25050419  1
  In  In74  1  -0.00279290  0.00045060  0.00135489  1
  In  In75  1  0.83402934  0.16700203  0.00002103  1
  In  In76  1  0.50185184  0.50127486  0.74637815  1
  In  In77  1  0.83274483  0.49884038  0.25280926  1
  In  In78  1  0.33554100  0.00163620  -0.00513365  1
  In  In79  1  0.16602519  0.49895245  0.49960477  1
  In  In80  1  0.33433170  0.66880223  0.00142738  1
  In  In81  1  0.66835520  0.33041623  0.00027308  1
  In  In82  1  0.16709844  0.83255521  0.50343433  1
  In  In83  1  0.16793386  0.83293868  0.75047314  1
  In  In84  1  0.34002667  0.66919635  0.49831107  1
  In  In85  1  0.33810130  0.66623912  0.75431344  1
  In  In86  1  0.16510059  0.49740871  0.75253641  1
  In  In87  1  0.83276579  0.16715719  0.24498238  1
  In  In88  1  -0.00193463  0.00084319  0.50301635  1
  In  In89  1  0.49886449  0.83654032  0.25294416  1
  In  In90  1  0.66409566  0.66278648  0.50535803  1
  In  In91  1  0.83382608  0.16686161  0.75111048  1
  In  In92  1  0.83331858  0.83413520  0.25087738  1
  In  In93  1  0.16580938  0.83591719  0.25097872  1
  In  In94  1  -0.00336738  0.66632745  0.74862334  1
  In  In95  1  0.49977370  0.83755788  0.50036907  1
  In  In96  1  0.33392557  0.33606344  0.75139875  1
  In  In97  1  0.83267840  0.16657609  0.49953448  1
  In  In98  1  0.83283698  0.82878572  -0.00175980  1
  In  In99  1  0.16496135  0.50208963  0.24935610  1
  In  In100  1  0.33574906  0.33397985  -0.00106191  1
  In  In101  1  0.50265635  0.16911032  -0.00319092  1
  In  In102  1  0.66719064  -0.00091388  0.25073928  1
  In  In103  1  0.50233004  0.83373114  0.00074513  1
  In  In104  1  0.16412517  0.16361218  0.74647812  1
  In  In105  1  0.33438455  0.33197707  0.49724953  1
  In  In106  1  0.33581146  0.66938301  0.25147837  1
  In  In107  1  0.33299226  0.32870321  0.24621288  1
  Ir  Ir108  1  0.50436245  0.49684917  0.24999202  1
  Ir  Ir109  1  0.82798156  0.83283990  0.75060290  1
  Ir  Ir110  1  0.50480629  0.49738184  0.49760140  1
  Ir  Ir111  1  0.00079567  0.66313437  0.00341239  1
  Ir  Ir112  1  0.16435506  0.16381611  0.25129485  1
  Ir  Ir113  1  -0.00601533  -0.00279286  0.74968956  1
  Ir  Ir114  1  0.66817958  0.66819703  0.75291634  1
  Ir  Ir115  1  -0.00453031  -0.00058745  0.24948057  1
  Ir  Ir116  1  0.66953278  -0.00144086  0.75124830  1
  Ir  Ir117  1  0.66818542  0.33198297  0.74803910  1
  Ir  Ir118  1  0.82929991  0.83389554  0.50405874  1
  Ir  Ir119  1  -0.00342991  0.33672610  0.75100908  1
  Ir  Ir120  1  0.66086856  0.33167500  0.24759868  1
  Ir  Ir121  1  0.83203747  0.49859047  0.75133553  1
  Ir  Ir122  1  0.49900601  0.16434257  0.25187591  1
  Ir  Ir123  1  0.50161477  0.16897824  0.74724164  1
  Ir  Ir124  1  0.66272626  0.33356977  0.49945729  1
  Ir  Ir125  1  0.16028381  0.49880138  -0.00095891  1
  Ir  Ir126  1  0.00081662  0.33946412  -0.00312038  1
  Ir  Ir127  1  0.83323358  0.49882341  -0.00339270  1
  Ir  Ir128  1  0.66827342  -0.00112734  -0.00564113  1
  Ir  Ir129  1  0.33710387  0.00854751  0.25266801  1
  Ir  Ir130  1  0.34085470  0.00513681  0.74604919  1
  Ir  Ir131  1  -0.00162648  0.66899335  0.24799646  1
  Ir  Ir132  1  0.16568561  0.83102165  0.00419597  1
  Ir  Ir133  1  0.50388435  0.50112783  0.00772922  1
  Ir  Ir134  1  -0.00946563  0.66390812  0.50041034  1
  Ir  Ir135  1  0.67128923  -0.00153041  0.50217691  1
  Ir  Ir136  1  0.16700129  0.16598104  0.49795999  1
  Ir  Ir137  1  0.83231566  0.49836997  0.50546777  1
  Ir  Ir138  1  0.33574170  0.01001479  0.50176435  1
  Ir  Ir139  1  0.66807294  0.66244417  -0.00410813  1
  Ir  Ir140  1  -0.00068744  0.33201846  0.24542005  1
  Ir  Ir141  1  0.50147713  0.16697797  0.50154327  1
  Ir  Ir142  1  0.50297127  0.83712198  0.75091436  1
  Ir  Ir143  1  -0.00293742  0.33395970  0.50317643  1
  O  O144  1  0.30004734  0.32749931  0.12121560  1
  O  O145  1  0.31927237  0.31713800  0.62444399  1
  O  O146  1  0.30675845  0.64885345  0.12296887  1
  O  O147  1  0.33440451  0.64541257  0.62675714  1
  O  O148  1  0.32709779  0.99721633  0.12988484  1
  O  O149  1  0.31478134  1.00145612  0.62488825  1
  O  O150  1  0.63215179  0.32926144  0.12882532  1
  O  O151  1  0.63479683  0.33196567  0.62315094  1
  O  O152  1  0.64684082  0.65413987  0.11762939  1
  O  O153  1  0.63236787  0.66749141  0.63307204  1
  O  O154  1  0.63241548  0.99690456  0.11339220  1
  O  O155  1  0.64654484  0.99786932  0.62770149  1
  O  O156  1  0.97012035  0.32665011  0.11999968  1
  O  O157  1  0.97361778  0.32032731  0.62774591  1
  O  O158  1  0.97719774  0.67479351  0.12521070  1
  O  O159  1  0.96085198  0.65825955  0.61984983  1
  O  O160  1  0.96577210  0.98523253  0.13017967  1
  O  O161  1  0.96365166  0.99500038  0.63224109  1
  O  O162  1  0.18135722  0.16897494  0.13191572  1
  O  O163  1  0.19417395  0.16572722  0.61843846  1
  O  O164  1  0.19064898  0.48758506  0.11715641  1
  O  O165  1  0.19564906  0.49477187  0.62570398  1
  O  O166  1  0.19315982  0.82536069  0.12317617  1
  O  O167  1  0.20065915  0.83680322  0.62680134  1
  O  O168  1  0.51624735  0.14554831  0.13198123  1
  O  O169  1  0.52435769  0.17168151  0.62412550  1
  O  O170  1  0.53885995  0.49284143  0.13019612  1
  O  O171  1  0.52335023  0.48727623  0.61674109  1
  O  O172  1  0.52055770  0.85133010  0.12644354  1
  O  O173  1  0.52430067  0.82848265  0.63181839  1
  O  O174  1  0.87203871  0.15073383  0.12193828  1
  O  O175  1  0.86469227  0.15630997  0.62699247  1
  O  O176  1  0.84723411  0.48676264  0.11830292  1
  O  O177  1  0.86320523  0.49590143  0.62886662  1
  O  O178  1  0.86328363  0.82806305  0.12363723  1
  O  O179  1  0.85180124  0.81842575  0.62771679  1
  O  O180  1  0.14305660  0.16327658  0.37379975  1
  O  O181  1  0.14364844  0.17842683  0.87168209  1
  O  O182  1  0.14630310  0.50525497  0.37447053  1
  O  O183  1  0.12859372  0.50589406  0.88136657  1
  O  O184  1  0.15399195  0.83791414  0.37594371  1
  O  O185  1  0.15247079  0.83611306  0.88350891  1
  O  O186  1  0.47101656  0.16257198  0.37893889  1
  O  O187  1  0.46964588  0.16930255  0.86456775  1
  O  O188  1  0.47838848  0.50595739  0.37378287  1
  O  O189  1  0.48697239  0.50620495  0.88382352  1
  O  O190  1  0.47559436  0.85940652  0.37730450  1
  O  O191  1  0.48337531  0.84577106  0.87001618  1
  O  O192  1  0.82124405  0.16985498  0.37208716  1
  O  O193  1  0.80092734  0.18320191  0.87521170  1
  O  O194  1  0.80418424  0.49797188  0.38289986  1
  O  O195  1  0.81115463  0.51354457  0.87387790  1
  O  O196  1  0.79997586  0.84723225  0.38441880  1
  O  O197  1  0.79763247  0.84327974  0.86993484  1
  O  O198  1  0.01386362  0.00541440  0.36888227  1
  O  O199  1  0.01728000  -0.00025743  0.86835462  1
  O  O200  1  0.01799723  0.33467052  0.37181995  1
  O  O201  1  0.03112593  0.35018820  0.87348037  1
  O  O202  1  0.01653748  0.66343544  0.37320465  1
  O  O203  1  0.01373801  0.65635332  0.88305784  1
  O  O204  1  0.36320297  0.01847398  0.37894811  1
  O  O205  1  0.36867029  0.01112773  0.86432299  1
  O  O206  1  0.35200048  0.32039277  0.37150241  1
  O  O207  1  0.35981110  0.34253143  0.87540879  1
  O  O208  1  0.37667538  0.67416701  0.37397246  1
  O  O209  1  0.37128827  0.66805734  0.88037075  1
  O  O210  1  0.70258570  0.00213535  0.38401105  1
  O  O211  1  0.70248514  0.00800831  0.87277229  1
  O  O212  1  0.68578816  0.34094755  0.37272443  1
  O  O213  1  0.69689754  0.33464728  0.86910355  1
  O  O214  1  0.68145258  0.67392562  0.37938444  1
  O  O215  1  0.70184016  0.67270131  0.87409233  1
  O  O216  1  0.06557890  0.09912186  0.02367415  1
  O  O217  1  0.07147709  0.10148869  0.52181382  1
  O  O218  1  0.06842227  0.43001470  0.01914835  1
  O  O219  1  0.06274602  0.42678458  0.52546318  1
  O  O220  1  0.06995035  0.75933282  0.02983439  1
  O  O221  1  0.06514328  0.74794467  0.51685416  1
  O  O222  1  0.41162415  0.09476213  0.00975160  1
  O  O223  1  0.40130956  0.10710970  0.52075315  1
  O  O224  1  0.41026868  0.43534178  0.03432138  1
  O  O225  1  0.41010647  0.43229128  0.52155730  1
  O  O226  1  0.40026646  0.77045346  0.02735952  1
  O  O227  1  0.40596052  0.76833814  0.53685319  1
  O  O228  1  0.73444386  0.08938721  0.01559967  1
  O  O229  1  0.74054621  0.08592150  0.52535059  1
  O  O230  1  0.74090436  0.42985897  0.02260177  1
  O  O231  1  0.73181186  0.43147792  0.51186754  1
  O  O232  1  0.73309342  0.75651643  0.00906197  1
  O  O233  1  0.74300872  0.75971493  0.51952119  1
  O  O234  1  0.09287899  0.27140424  0.02427301  1
  O  O235  1  0.08889384  0.25584643  0.52339833  1
  O  O236  1  0.09845128  0.59833311  0.02807012  1
  O  O237  1  0.07743421  0.59094664  0.52405872  1
  O  O238  1  0.09009214  0.91698348  0.02350298  1
  O  O239  1  0.08597880  0.92215841  0.51618232  1
  O  O240  1  0.43995635  0.27027943  0.02609899  1
  O  O241  1  0.43536828  0.25925215  0.52462270  1
  O  O242  1  0.43248108  0.58844502  0.02067120  1
  O  O243  1  0.45020228  0.59654568  0.51655764  1
  O  O244  1  0.43766362  0.93742706  0.00794762  1
  O  O245  1  0.42328553  0.93779264  0.52018019  1
  O  O246  1  0.77141018  0.26930495  0.02625022  1
  O  O247  1  0.75215540  0.26209123  0.51191291  1
  O  O248  1  0.76047303  0.58987995  0.01942099  1
  O  O249  1  0.76735714  0.59258322  0.52875379  1
  O  O250  1  0.76100176  0.93414436  0.02119709  1
  O  O251  1  0.76739343  0.93253090  0.52729024  1
  O  O252  1  0.23720564  0.07273521  0.27083296  1
  O  O253  1  0.25035498  0.07332797  0.76972660  1
  O  O254  1  0.23619571  0.40177193  0.25371669  1
  O  O255  1  0.22599683  0.39401939  0.77618975  1
  O  O256  1  0.23246453  0.73458646  0.25504503  1
  O  O257  1  0.24677743  0.74295151  0.76747255  1
  O  O258  1  0.56313852  0.06848549  0.27227722  1
  O  O259  1  0.57408431  0.07037970  0.77671066  1
  O  O260  1  0.57139545  0.40434913  0.27213708  1
  O  O261  1  0.57681923  0.40286245  0.75832001  1
  O  O262  1  0.56338416  0.73286258  0.27519418  1
  O  O263  1  0.57199736  0.73964520  0.78058587  1
  O  O264  1  0.90209001  0.06243390  0.26833467  1
  O  O265  1  0.89964226  0.06322671  0.77219225  1
  O  O266  1  0.90457436  0.40057463  0.25509113  1
  O  O267  1  0.90173844  0.40683911  0.78108353  1
  O  O268  1  0.90998706  0.73860742  0.26857019  1
  O  O269  1  0.89121794  0.73425125  0.77033156  1
  O  O270  1  0.25864395  0.22710865  0.27094860  1
  O  O271  1  0.26729794  0.23165191  0.76714991  1
  O  O272  1  0.26883067  0.56631706  0.25536741  1
  O  O273  1  0.26296429  0.56958207  0.76366031  1
  O  O274  1  0.27073382  0.91346835  0.25480493  1
  O  O275  1  0.27179799  0.91469850  0.76101577  1
  O  O276  1  0.59445970  0.23166454  0.26607675  1
  O  O277  1  0.60194766  0.23348347  0.77189943  1
  O  O278  1  0.59585390  0.56209267  0.27701243  1
  O  O279  1  0.59949932  0.57973656  0.77444532  1
  O  O280  1  0.60406957  0.90101409  0.28089475  1
  O  O281  1  0.59989061  0.90595057  0.77915350  1
  O  O282  1  0.93184266  0.24121689  0.25208579  1
  O  O283  1  0.92309535  0.25075012  0.77453972  1
  O  O284  1  0.92687948  0.57800595  0.26092937  1
  O  O285  1  0.92216795  0.56724430  0.77340981  1
  O  O286  1  0.92871938  0.90936825  0.27414536  1
  O  O287  1  0.92070688  0.90380397  0.77536992  1
  O  O288  1  0.26175061  0.22904974  0.48225726  1
  O  O289  1  0.26203327  0.23919934  0.96687292  1
  O  O290  1  0.26799296  0.57079974  0.49221028  1
  O  O291  1  0.25159813  0.56534144  0.98625372  1
  O  O292  1  0.26732349  0.91999846  0.49161793  1
  O  O293  1  0.25908413  0.90162367  0.99542549  1
  O  O294  1  0.59544037  0.23626994  0.48296493  1
  O  O295  1  0.60549754  0.22907947  0.97156070  1
  O  O296  1  0.60001701  0.55960887  0.47227586  1
  O  O297  1  0.59600609  0.57224182  0.98072407  1
  O  O298  1  0.60401229  0.90770589  0.47738300  1
  O  O299  1  0.60469705  0.90551313  0.96721604  1
  O  O300  1  0.93077345  0.24123167  0.49337788  1
  O  O301  1  0.93116076  0.25095398  0.97700987  1
  O  O302  1  0.92424375  0.56599277  0.48768752  1
  O  O303  1  0.92959287  0.56769350  0.97561966  1
  O  O304  1  0.91539501  0.90441290  0.48334898  1
  O  O305  1  0.92181269  0.90695112  0.97804117  1
  O  O306  1  0.24384957  0.08040934  0.47389580  1
  O  O307  1  0.24452097  0.07697955  0.97872800  1
  O  O308  1  0.23986406  0.40301664  0.48545554  1
  O  O309  1  0.22250962  0.40251833  0.97880566  1
  O  O310  1  0.24389192  0.74161343  0.48716209  1
  O  O311  1  0.23192016  0.73872373  0.99218135  1
  O  O312  1  0.57299495  0.06677758  0.47777489  1
  O  O313  1  0.57667909  0.06580537  0.96574990  1
  O  O314  1  0.56916573  0.40151272  0.48110928  1
  O  O315  1  0.57100114  0.40887393  0.99285663  1
  O  O316  1  0.56749026  0.73693985  0.47744956  1
  O  O317  1  0.57572631  0.73355878  0.97181293  1
  O  O318  1  0.89718077  0.06315059  0.48384891  1
  O  O319  1  0.89697545  0.06698711  0.97205468  1
  O  O320  1  0.90370984  0.40576918  0.48371549  1
  O  O321  1  0.90302335  0.40619209  0.96917217  1
  O  O322  1  0.89695230  0.73778436  0.48587625  1
  O  O323  1  0.90435593  0.72703765  0.97718040  1
  O  O324  1  0.09506272  0.26086805  0.22358602  1
  O  O325  1  0.08243939  0.26042999  0.73152628  1
  O  O326  1  0.09337524  0.60325452  0.22424534  1
  O  O327  1  0.08132214  0.58364528  0.72366028  1
  O  O328  1  0.08393319  0.92697048  0.22626592  1
  O  O329  1  0.08606556  0.92891817  0.73469341  1
  O  O330  1  0.43762831  0.26015747  0.22321462  1
  O  O331  1  0.43868724  0.26286821  0.72378361  1
  O  O332  1  0.43619435  0.58609007  0.23103560  1
  O  O333  1  0.44916173  0.60955908  0.74145452  1
  O  O334  1  0.43539327  0.94998069  0.23797164  1
  O  O335  1  0.43342879  0.93048815  0.72622744  1
  O  O336  1  0.75807027  0.26958888  0.22251870  1
  O  O337  1  0.75709283  0.26309006  0.73310110  1
  O  O338  1  0.75193200  0.58336980  0.22866101  1
  O  O339  1  0.76660874  0.60032931  0.72949043  1
  O  O340  1  0.76887527  0.93458754  0.22401091  1
  O  O341  1  0.76750004  0.93341754  0.72882052  1
  O  O342  1  0.06345044  0.09706856  0.22471836  1
  O  O343  1  0.06062596  0.09133069  0.72376633  1
  O  O344  1  0.07178629  0.41918363  0.22639307  1
  O  O345  1  0.05796721  0.42884042  0.72761283  1
  O  O346  1  0.06625532  0.76125230  0.22577623  1
  O  O347  1  0.07348087  0.75638634  0.73880507  1
  O  O348  1  0.39838805  0.10685195  0.24565347  1
  O  O349  1  0.40245931  0.10623416  0.72558345  1
  O  O350  1  0.41126806  0.42922079  0.22079086  1
  O  O351  1  0.40180681  0.43609824  0.72144969  1
  O  O352  1  0.39672709  0.77356040  0.22205011  1
  O  O353  1  0.41057220  0.77176915  0.72466015  1
  O  O354  1  0.74188722  0.08985802  0.22313624  1
  O  O355  1  0.73860250  0.08858533  0.73355253  1
  O  O356  1  0.72815516  0.42472816  0.22780061  1
  O  O357  1  0.73983209  0.42559512  0.73215308  1
  O  O358  1  0.73492561  0.76366522  0.24523171  1
  O  O359  1  0.73701566  0.76043866  0.73161907  1
