# generated using pymatgen
data_BaLaInIrO6
_symmetry_space_group_name_H-M   'P 1'
_cell_length_a   17.51517062
_cell_length_b   17.54946085
_cell_length_c   16.48448082
_cell_angle_alpha   89.98739985
_cell_angle_beta   89.99348993
_cell_angle_gamma   90.01271370
_symmetry_Int_Tables_number   1
_chemical_formula_structural   BaLaInIrO6
_chemical_formula_sum   'Ba36 La36 In36 Ir36 O216'
_cell_volume   5067.02912471
_cell_formula_units_Z   36
loop_
 _symmetry_equiv_pos_site_id
 _symmetry_equiv_pos_as_xyz
  1  'x, y, z'
loop_
 _atom_site_type_symbol
 _atom_site_label
 _atom_site_symmetry_multiplicity
 _atom_site_fract_x
 _atom_site_fract_y
 _atom_site_fract_z
 _atom_site_occupancy
  Ba  Ba0  1  -0.00060706  0.49333192  0.88051453  1
  Ba  Ba1  1  0.83226545  0.33040260  0.87868234  1
  Ba  Ba2  1  -0.00030155  0.16094200  0.87231028  1
  Ba  Ba3  1  0.17154839  0.67100738  0.12528028  1
  Ba  Ba4  1  0.83580968  0.32231806  0.37312885  1
  Ba  Ba5  1  0.49515720  0.67922481  0.12571886  1
  Ba  Ba6  1  0.17218637  0.65284388  0.37299238  1
  Ba  Ba7  1  0.49775862  0.34279326  0.62408552  1
  Ba  Ba8  1  0.34217646  0.51677235  0.12336696  1
  Ba  Ba9  1  0.66079479  0.82667800  0.87808096  1
  Ba  Ba10  1  0.66934221  0.50749594  0.12348007  1
  Ba  Ba11  1  -0.00375117  0.16074673  0.37421841  1
  Ba  Ba12  1  0.33755733  0.84184560  0.12557780  1
  Ba  Ba13  1  0.49713956  0.34189912  0.12286734  1
  Ba  Ba14  1  0.99885510  0.50446904  0.12679510  1
  Ba  Ba15  1  0.16908542  0.98565701  0.87382671  1
  Ba  Ba16  1  0.16564549  0.00274756  0.12237900  1
  Ba  Ba17  1  0.00099754  0.49129847  0.37699830  1
  Ba  Ba18  1  0.66410379  0.84938711  0.12418685  1
  Ba  Ba19  1  0.16790703  0.34441233  0.62587502  1
  Ba  Ba20  1  0.66086242  0.48818879  0.87307599  1
  Ba  Ba21  1  0.17209640  0.34089428  0.12790493  1
  Ba  Ba22  1  0.83231851  0.01152330  0.12013906  1
  Ba  Ba23  1  1.00168763  0.50697053  0.62683158  1
  Ba  Ba24  1  0.83402357  0.65909148  0.87787377  1
  Ba  Ba25  1  0.33269929  0.81968173  0.87860258  1
  Ba  Ba26  1  0.49608809  0.00868075  0.12655847  1
  Ba  Ba27  1  0.33295436  0.16244738  0.87379689  1
  Ba  Ba28  1  0.83834079  0.67401514  0.62549146  1
  Ba  Ba29  1  0.33096369  0.82117408  0.37123442  1
  Ba  Ba30  1  0.16061706  0.32985719  0.37574752  1
  Ba  Ba31  1  0.83397650  0.65699570  0.37580402  1
  Ba  Ba32  1  0.33654640  0.49301436  0.87886738  1
  Ba  Ba33  1  0.82844883  0.99673593  0.37277958  1
  Ba  Ba34  1  -0.00257858  0.82923982  0.87752321  1
  Ba  Ba35  1  0.50291519  0.31736085  0.87559894  1
  La  La36  1  0.66741662  0.15133772  0.36897115  1
  La  La37  1  0.49517655  0.01771662  0.62384277  1
  La  La38  1  0.33592535  0.51675211  0.62393374  1
  La  La39  1  0.66154024  0.15555195  0.87721351  1
  La  La40  1  1.00526961  0.17989576  0.12565405  1
  La  La41  1  0.33564178  0.17872219  0.62716947  1
  La  La42  1  0.83313982  0.34887647  0.62684859  1
  La  La43  1  0.16291242  0.01497251  0.62398531  1
  La  La44  1  1.00236222  0.84337961  0.62569527  1
  La  La45  1  0.32877345  0.15592915  0.37527955  1
  La  La46  1  0.50625726  0.30993588  0.37583665  1
  La  La47  1  0.67154720  0.85301491  0.62514409  1
  La  La48  1  0.50271529  0.98895114  0.88474751  1
  La  La49  1  1.00337325  0.83896318  0.12427374  1
  La  La50  1  0.67549687  0.18175369  0.61910177  1
  La  La51  1  0.17094214  0.65178753  0.88093557  1
  La  La52  1  0.99767782  0.18556766  0.62313655  1
  La  La53  1  0.32572217  0.48513481  0.37157840  1
  La  La54  1  0.50816543  0.65064572  0.88081444  1
  La  La55  1  0.83995756  0.33857088  0.12418801  1
  La  La56  1  0.66258830  0.47689039  0.37975464  1
  La  La57  1  0.17454263  0.32244106  0.87748766  1
  La  La58  1  0.15981834  0.67921590  0.62445666  1
  La  La59  1  0.50265262  0.64901115  0.37228719  1
  La  La60  1  0.49610743  0.68032426  0.62913363  1
  La  La61  1  0.65970396  0.82063790  0.37233250  1
  La  La62  1  0.83701726  0.98927643  0.87232350  1
  La  La63  1  -0.00561437  0.82152657  0.37223533  1
  La  La64  1  0.16905760  0.98572022  0.37436794  1
  La  La65  1  0.82870771  0.68690281  0.12553227  1
  La  La66  1  0.50697384  0.98366654  0.37266949  1
  La  La67  1  0.33753402  0.17205210  0.11895567  1
  La  La68  1  0.66668450  0.17646970  0.12283238  1
  La  La69  1  0.33372581  0.84647010  0.62441262  1
  La  La70  1  0.67527474  0.51309241  0.62700507  1
  La  La71  1  0.84022414  0.00807625  0.62706774  1
  In  In72  1  0.33524151  0.66694300  0.50032848  1
  In  In73  1  0.83184781  0.83423669  0.74811078  1
  In  In74  1  0.16706751  0.16486723  0.24883481  1
  In  In75  1  0.00008291  0.66757180  0.00208826  1
  In  In76  1  0.16510845  0.16684633  0.49889550  1
  In  In77  1  0.00327761  0.66738109  0.75413626  1
  In  In78  1  0.83167270  0.83761608  0.49798670  1
  In  In79  1  0.66279439  0.66806003  0.50062619  1
  In  In80  1  0.33814777  0.33241093  0.49863870  1
  In  In81  1  0.00304268  0.00182404  0.74934791  1
  In  In82  1  0.00295597  0.33410783  0.75403676  1
  In  In83  1  0.82993183  0.83800825  -0.00107527  1
  In  In84  1  -0.00240893  0.00047574  0.25042734  1
  In  In85  1  0.66501439  0.33030326  0.74804484  1
  In  In86  1  -0.00075750  0.00402471  -0.00004370  1
  In  In87  1  0.33450802  0.33628378  0.74953381  1
  In  In88  1  0.83262345  0.50086559  0.75276900  1
  In  In89  1  0.16694519  0.83384864  0.49866900  1
  In  In90  1  0.33489362  0.00076869  0.49857256  1
  In  In91  1  0.00093944  0.33315927  0.24999576  1
  In  In92  1  0.66740027  0.66500849  0.25070331  1
  In  In93  1  0.66434727  0.00310315  0.50193773  1
  In  In94  1  0.83113386  0.50093978  0.00166605  1
  In  In95  1  0.00073828  0.66673580  0.49924999  1
  In  In96  1  0.33591953  0.33460007  0.00178931  1
  In  In97  1  0.49944842  0.49551002  0.25504089  1
  In  In98  1  0.83063544  0.16734974  0.75148682  1
  In  In99  1  0.66547968  0.33027310  0.24923022  1
  In  In100  1  0.33366507  0.00003067  0.74902898  1
  In  In101  1  0.33434809  0.00187121  0.25231760  1
  In  In102  1  0.49849025  0.83546735  0.74800254  1
  In  In103  1  0.33214157  0.00070041  -0.00176828  1
  In  In104  1  0.66199223  0.67039069  0.74874035  1
  In  In105  1  0.00094587  0.66397539  0.25004333  1
  In  In106  1  0.83026748  0.49993860  0.25085975  1
  In  In107  1  0.50001576  0.49918644  0.74557775  1
  Ir  Ir108  1  0.16445550  0.83251583  0.24686159  1
  Ir  Ir109  1  0.49921394  0.83356595  0.25484153  1
  Ir  Ir110  1  0.16784897  0.49820717  0.00127650  1
  Ir  Ir111  1  0.33746930  0.66683005  -0.00379109  1
  Ir  Ir112  1  0.16752444  0.82950279  0.00062574  1
  Ir  Ir113  1  0.83324976  0.16684427  0.49888552  1
  Ir  Ir114  1  0.17239699  0.50230432  0.75170037  1
  Ir  Ir115  1  0.50473188  0.16000343  0.74799007  1
  Ir  Ir116  1  0.16660792  0.16823135  -0.00101943  1
  Ir  Ir117  1  0.66544202  0.32832323  0.00149438  1
  Ir  Ir118  1  0.50041827  0.49963389  0.49943644  1
  Ir  Ir119  1  0.82935115  0.83935391  0.25254829  1
  Ir  Ir120  1  0.82970460  0.17155811  0.00024005  1
  Ir  Ir121  1  0.00446893  0.32905478  -0.00003684  1
  Ir  Ir122  1  0.17466195  0.49771487  0.24896102  1
  Ir  Ir123  1  0.66443127  0.66953646  0.00370896  1
  Ir  Ir124  1  0.50345691  0.16445386  0.00078012  1
  Ir  Ir125  1  0.32847746  0.66645489  0.74800165  1
  Ir  Ir126  1  0.49953796  0.83436664  0.00099644  1
  Ir  Ir127  1  0.50189107  0.16436123  0.49981062  1
  Ir  Ir128  1  0.50366341  0.50100254  0.00116560  1
  Ir  Ir129  1  0.66289374  0.00295505  0.24693853  1
  Ir  Ir130  1  0.83064890  0.16673013  0.24431263  1
  Ir  Ir131  1  0.50220709  0.83202464  0.50067553  1
  Ir  Ir132  1  0.82841594  0.49598134  0.50147103  1
  Ir  Ir133  1  -0.00332522  0.33396037  0.50316905  1
  Ir  Ir134  1  0.66554114  0.32787240  0.49887959  1
  Ir  Ir135  1  0.34086136  0.33062752  0.25298151  1
  Ir  Ir136  1  0.33799946  0.66887755  0.25072884  1
  Ir  Ir137  1  0.00122511  0.00211251  0.50030038  1
  Ir  Ir138  1  0.49888966  0.16672850  0.25225143  1
  Ir  Ir139  1  0.66204985  0.00489748  0.74911423  1
  Ir  Ir140  1  0.17310384  0.49733508  0.50088275  1
  Ir  Ir141  1  0.66577462  0.00815175  -0.00089418  1
  Ir  Ir142  1  0.16711729  0.16681000  0.74848409  1
  Ir  Ir143  1  0.17155766  0.82907333  0.75029323  1
  O  O144  1  0.32389509  0.31352642  0.13139445  1
  O  O145  1  0.32121325  0.31502719  0.62468723  1
  O  O146  1  0.31903619  0.67027423  0.12480451  1
  O  O147  1  0.29732288  0.65709320  0.62936101  1
  O  O148  1  0.31905993  1.00827601  0.12558891  1
  O  O149  1  0.29992916  0.98934415  0.62345572  1
  O  O150  1  0.64432661  0.32045854  0.12144239  1
  O  O151  1  0.64249917  0.31531840  0.61676388  1
  O  O152  1  0.64377399  0.66937592  0.12204945  1
  O  O153  1  0.62768137  0.65101034  0.62099685  1
  O  O154  1  0.64300498  1.01331585  0.12209734  1
  O  O155  1  0.62988630  0.99502789  0.62967135  1
  O  O156  1  0.97578705  0.32144388  0.11887657  1
  O  O157  1  0.97553024  0.33128537  0.62209554  1
  O  O158  1  0.96738012  0.67598026  0.12906514  1
  O  O159  1  0.99180780  0.66460859  0.62493208  1
  O  O160  1  0.98114649  0.97780210  0.12440115  1
  O  O161  1  0.97351045  0.98632282  0.61875504  1
  O  O162  1  0.19993413  0.16240841  0.11844989  1
  O  O163  1  0.19853017  0.15591294  0.62890951  1
  O  O164  1  0.19665163  0.49440574  0.12453906  1
  O  O165  1  0.20242447  0.49640145  0.62767727  1
  O  O166  1  0.19048257  0.83311145  0.12371665  1
  O  O167  1  0.20062506  0.82068900  0.63197568  1
  O  O168  1  0.53093077  0.16650605  0.12680136  1
  O  O169  1  0.53727842  0.15618917  0.62371857  1
  O  O170  1  0.51733053  0.50149859  0.12321540  1
  O  O171  1  0.53735737  0.49635998  0.61443649  1
  O  O172  1  0.51794606  0.83216664  0.13025669  1
  O  O173  1  0.53661132  0.81883952  0.61830331  1
  O  O174  1  0.86274978  0.16904492  0.12170611  1
  O  O175  1  0.85661174  0.14869610  0.61755457  1
  O  O176  1  0.84175714  0.47469887  0.12392843  1
  O  O177  1  0.84766145  0.48939807  0.61919542  1
  O  O178  1  0.86096199  0.83181877  0.13234666  1
  O  O179  1  0.86553254  0.84165247  0.62218949  1
  O  O180  1  0.14573891  0.17688987  0.37485047  1
  O  O181  1  0.14514913  0.18427088  0.87380387  1
  O  O182  1  0.15341435  0.49745716  0.37499169  1
  O  O183  1  0.14738468  0.51368342  0.87542626  1
  O  O184  1  0.13470881  0.84028468  0.36773221  1
  O  O185  1  0.14711122  0.82807282  0.87621532  1
  O  O186  1  0.46790698  0.17029794  0.37586870  1
  O  O187  1  0.48075759  0.15684122  0.87361379  1
  O  O188  1  0.46207013  0.50990784  0.38380766  1
  O  O189  1  0.48702297  0.50701038  0.88051309  1
  O  O190  1  0.47788296  0.84778099  0.37924877  1
  O  O191  1  0.48355161  0.84806526  0.87949081  1
  O  O192  1  0.80239035  0.16915254  0.36943455  1
  O  O193  1  0.79719536  0.17540397  0.88062845  1
  O  O194  1  0.79956935  0.49861130  0.38349735  1
  O  O195  1  0.81027244  0.49381571  0.87857384  1
  O  O196  1  0.79448052  0.84400063  0.37121862  1
  O  O197  1  0.80648264  0.85296223  0.87231429  1
  O  O198  1  0.03378119  0.00877696  0.38094143  1
  O  O199  1  0.02291616  0.00745809  0.87450594  1
  O  O200  1  0.00819535  0.32971608  0.38184530  1
  O  O201  1  0.03638911  0.33168599  0.88057120  1
  O  O202  1  0.02377677  0.68272744  0.37441522  1
  O  O203  1  0.03779688  0.67206786  0.87808664  1
  O  O204  1  0.37307506  0.01894881  0.37696691  1
  O  O205  1  0.36517333  0.00158298  0.87295759  1
  O  O206  1  0.36812584  0.34489627  0.37314015  1
  O  O207  1  0.35055859  0.32930469  0.87490637  1
  O  O208  1  0.36424770  0.66815873  0.37264618  1
  O  O209  1  0.36569911  0.66555973  0.87111716  1
  O  O210  1  0.67579463  0.00978181  0.36942370  1
  O  O211  1  0.69607974  0.01519143  0.87285296  1
  O  O212  1  0.68498600  0.33188424  0.38024446  1
  O  O213  1  0.68104625  0.32137881  0.88075301  1
  O  O214  1  0.68562032  0.68601679  0.37648732  1
  O  O215  1  0.68038364  0.67023628  0.88382621  1
  O  O216  1  0.07390222  0.10107332  0.02396750  1
  O  O217  1  0.06570155  0.09391391  0.53293237  1
  O  O218  1  0.07668279  0.42232783  0.02232977  1
  O  O219  1  0.07101888  0.42563693  0.51517889  1
  O  O220  1  0.07769026  0.76294723  0.02676141  1
  O  O221  1  0.07039188  0.76970535  0.52760113  1
  O  O222  1  0.41010849  0.09793565  0.01871261  1
  O  O223  1  0.40547880  0.10186568  0.53146357  1
  O  O224  1  0.41348934  0.42919773  0.01532008  1
  O  O225  1  0.40533052  0.43754700  0.52520088  1
  O  O226  1  0.40774301  0.76067155  0.01486189  1
  O  O227  1  0.40845377  0.76650227  0.53101570  1
  O  O228  1  0.73131746  0.10708347  0.01965395  1
  O  O229  1  0.73193090  0.10748461  0.50765399  1
  O  O230  1  0.73617659  0.41480766  0.01564403  1
  O  O231  1  0.72928702  0.42644156  0.52377384  1
  O  O232  1  0.73734525  0.75737108  0.02292268  1
  O  O233  1  0.72780812  0.77167593  0.52435071  1
  O  O234  1  0.09292032  0.25540478  0.02435903  1
  O  O235  1  0.08498431  0.26074674  0.52474570  1
  O  O236  1  0.09720990  0.58616026  0.01695076  1
  O  O237  1  0.10740238  0.59283097  0.51981283  1
  O  O238  1  0.09138718  0.91457435  0.01533068  1
  O  O239  1  0.09599490  0.93821031  0.52417689  1
  O  O240  1  0.42640533  0.24881630  0.01909266  1
  O  O241  1  0.44053663  0.25975734  0.50771871  1
  O  O242  1  0.43590713  0.59853445  0.00816170  1
  O  O243  1  0.43668722  0.59532173  0.52804078  1
  O  O244  1  0.43043447  0.92517562  0.01311397  1
  O  O245  1  0.43836323  0.92801650  0.52540922  1
  O  O246  1  0.75988729  0.26257690  0.03006595  1
  O  O247  1  0.76491120  0.26303492  0.52577420  1
  O  O248  1  0.75803859  0.60426035  0.02658744  1
  O  O249  1  0.75487776  0.58366489  0.52208188  1
  O  O250  1  0.75115198  0.93529108  0.01363861  1
  O  O251  1  0.76142409  0.93751955  0.52966112  1
  O  O252  1  0.23972151  0.07212339  0.28615235  1
  O  O253  1  0.23674442  0.07715547  0.76519104  1
  O  O254  1  0.24924157  0.40326149  0.27277962  1
  O  O255  1  0.23247707  0.40621156  0.77514527  1
  O  O256  1  0.23918988  0.74137695  0.26446963  1
  O  O257  1  0.23200281  0.72975555  0.77461559  1
  O  O258  1  0.56421996  0.06922151  0.27410726  1
  O  O259  1  0.56566329  0.06458182  0.77541491  1
  O  O260  1  0.56610059  0.39750732  0.28122700  1
  O  O261  1  0.56909871  0.40070226  0.76241067  1
  O  O262  1  0.56737313  0.74183416  0.27840860  1
  O  O263  1  0.55489953  0.73293894  0.76831988  1
  O  O264  1  0.89940888  0.07736951  0.26221948  1
  O  O265  1  0.89306883  0.06528286  0.76274713  1
  O  O266  1  0.90312327  0.40014004  0.25443737  1
  O  O267  1  0.90283817  0.39955926  0.75524924  1
  O  O268  1  0.90116326  0.75350608  0.27281038  1
  O  O269  1  0.90770448  0.74226507  0.76691089  1
  O  O270  1  0.27698006  0.23539459  0.26976963  1
  O  O271  1  0.25211729  0.24193102  0.76563738  1
  O  O272  1  0.27184459  0.56963270  0.27066904  1
  O  O273  1  0.26610857  0.57093861  0.76902867  1
  O  O274  1  0.24977680  0.90977647  0.27158666  1
  O  O275  1  0.26263674  0.89683448  0.76358600  1
  O  O276  1  0.59624322  0.22832600  0.27533859  1
  O  O277  1  0.60025492  0.22240444  0.76694837  1
  O  O278  1  0.59483307  0.56846387  0.28509408  1
  O  O279  1  0.58415611  0.57892513  0.77138675  1
  O  O280  1  0.59551079  0.90496720  0.27571864  1
  O  O281  1  0.59524357  0.91363360  0.76764580  1
  O  O282  1  0.92225455  0.23269049  0.25429278  1
  O  O283  1  0.93246312  0.23278483  0.75078334  1
  O  O284  1  0.92603807  0.57210007  0.26980289  1
  O  O285  1  0.92822869  0.57329451  0.76577937  1
  O  O286  1  0.92355475  0.90403752  0.27870040  1
  O  O287  1  0.92457469  0.91303404  0.76476014  1
  O  O288  1  0.27435749  0.22787446  0.48582777  1
  O  O289  1  0.25231385  0.24321800  0.98320096  1
  O  O290  1  0.27091792  0.55955655  0.48447676  1
  O  O291  1  0.25902097  0.57741673  0.97872898  1
  O  O292  1  0.25872683  0.90779324  0.47589860  1
  O  O293  1  0.25446354  0.90357117  0.98565276  1
  O  O294  1  0.60045465  0.22857921  0.47056864  1
  O  O295  1  0.60179673  0.22857934  0.98443678  1
  O  O296  1  0.59010765  0.56550535  0.46681510  1
  O  O297  1  0.59293357  0.57734897  0.98051425  1
  O  O298  1  0.59766843  0.89703350  0.47760168  1
  O  O299  1  0.58932524  0.91697327  0.97871084  1
  O  O300  1  0.93116552  0.23350747  0.49768623  1
  O  O301  1  0.92990823  0.23743290  0.98334022  1
  O  O302  1  0.91798086  0.56800280  0.48635048  1
  O  O303  1  0.92528749  0.57437619  0.99035109  1
  O  O304  1  0.93999901  0.90824049  0.47361110  1
  O  O305  1  0.91387383  0.92219821  0.97570830  1
  O  O306  1  0.23174377  0.06550196  0.47566486  1
  O  O307  1  0.23685154  0.08070620  0.97786781  1
  O  O308  1  0.24268435  0.40725889  0.48188069  1
  O  O309  1  0.23581851  0.40632545  0.97945781  1
  O  O310  1  0.23834672  0.73578053  0.48928770  1
  O  O311  1  0.23854730  0.73296284  0.97863513  1
  O  O312  1  0.55917017  0.06478636  0.48273727  1
  O  O313  1  0.57386932  0.07517196  0.97238193  1
  O  O314  1  0.56755915  0.40103963  0.47036635  1
  O  O315  1  0.57221998  0.40232370  0.98325321  1
  O  O316  1  0.55751439  0.73572954  0.47329902  1
  O  O317  1  0.56725447  0.73766052  0.97881588  1
  O  O318  1  0.90221611  0.06771773  0.48495235  1
  O  O319  1  0.89437334  0.08051843  0.97373007  1
  O  O320  1  0.89784390  0.40069009  0.48903531  1
  O  O321  1  0.91579385  0.39850645  0.98987163  1
  O  O322  1  0.90951673  0.74795456  0.47612849  1
  O  O323  1  0.90680486  0.74678311  0.98827116  1
  O  O324  1  0.08766928  0.25431840  0.22516114  1
  O  O325  1  0.09435997  0.25293783  0.72698624  1
  O  O326  1  0.10130662  0.58521461  0.23529408  1
  O  O327  1  0.11235291  0.59837311  0.73210943  1
  O  O328  1  0.09196797  0.91825430  0.23275846  1
  O  O329  1  0.10414200  0.92345718  0.71984964  1
  O  O330  1  0.43977476  0.26765517  0.24507549  1
  O  O331  1  0.43030663  0.24718478  0.73032052  1
  O  O332  1  0.43041553  0.60068612  0.24330115  1
  O  O333  1  0.42129622  0.60059914  0.71866684  1
  O  O334  1  0.43214039  0.92744612  0.24521234  1
  O  O335  1  0.42689126  0.92502073  0.71114541  1
  O  O336  1  0.76297249  0.25798320  0.22107161  1
  O  O337  1  0.76186449  0.26004666  0.71488066  1
  O  O338  1  0.76772596  0.60367698  0.22264081  1
  O  O339  1  0.75125651  0.59055670  0.72638649  1
  O  O340  1  0.75709536  0.93369996  0.22832222  1
  O  O341  1  0.75546986  0.94046198  0.72123715  1
  O  O342  1  0.06896725  0.09425112  0.22035840  1
  O  O343  1  0.07679624  0.09606276  0.71787833  1
  O  O344  1  0.08535600  0.42512766  0.23948166  1
  O  O345  1  0.08181395  0.43286564  0.73808686  1
  O  O346  1  0.07178168  0.76601593  0.22611810  1
  O  O347  1  0.07923270  0.76694335  0.72196512  1
  O  O348  1  0.40096643  0.11034629  0.22935275  1
  O  O349  1  0.41112494  0.09370268  0.71700739  1
  O  O350  1  0.40037218  0.42576584  0.23652235  1
  O  O351  1  0.39857269  0.43683604  0.72356132  1
  O  O352  1  0.40523684  0.76448972  0.23643641  1
  O  O353  1  0.39262611  0.76085225  0.72023761  1
  O  O354  1  0.72669043  0.10367999  0.23212207  1
  O  O355  1  0.72519365  0.09812960  0.72480198  1
  O  O356  1  0.72644578  0.43274091  0.25053733  1
  O  O357  1  0.73699217  0.42426707  0.71986624  1
  O  O358  1  0.74246265  0.76789185  0.23089261  1
  O  O359  1  0.72728207  0.77059402  0.72245199  1
