# generated using pymatgen
data_BaLaInIrO6
_symmetry_space_group_name_H-M   'P 1'
_cell_length_a   17.51720644
_cell_length_b   17.53970141
_cell_length_c   16.47952591
_cell_angle_alpha   89.99344021
_cell_angle_beta   89.99533340
_cell_angle_gamma   90.01833395
_symmetry_Int_Tables_number   1
_chemical_formula_structural   BaLaInIrO6
_chemical_formula_sum   'Ba36 La36 In36 Ir36 O216'
_cell_volume   5063.27751028
_cell_formula_units_Z   36
loop_
 _symmetry_equiv_pos_site_id
 _symmetry_equiv_pos_as_xyz
  1  'x, y, z'
loop_
 _atom_site_type_symbol
 _atom_site_label
 _atom_site_symmetry_multiplicity
 _atom_site_fract_x
 _atom_site_fract_y
 _atom_site_fract_z
 _atom_site_occupancy
  Ba  Ba0  1  0.66737836  0.84181905  0.62707182  1
  Ba  Ba1  1  0.16287660  0.67495304  0.62369710  1
  Ba  Ba2  1  0.16834023  0.99465842  0.37560541  1
  Ba  Ba3  1  0.66389747  0.83997014  0.12755748  1
  Ba  Ba4  1  0.83043813  0.99268453  0.87863115  1
  Ba  Ba5  1  0.33206090  0.17478632  0.62596901  1
  Ba  Ba6  1  0.33144817  0.82666400  0.88036261  1
  Ba  Ba7  1  0.50409296  0.33827299  0.12666948  1
  Ba  Ba8  1  0.50342915  0.32297932  0.87650058  1
  Ba  Ba9  1  0.83019310  0.00433216  0.62840766  1
  Ba  Ba10  1  1.00186095  0.84787565  0.62422743  1
  Ba  Ba11  1  0.67182374  0.50614805  0.12178141  1
  Ba  Ba12  1  0.16268755  0.67654596  0.12333219  1
  Ba  Ba13  1  0.66813455  0.15238587  0.37293727  1
  Ba  Ba14  1  0.83957248  0.32264360  0.37135350  1
  Ba  Ba15  1  0.50335672  0.00463597  0.12599196  1
  Ba  Ba16  1  0.50198336  0.31415733  0.37363001  1
  Ba  Ba17  1  0.50115864  0.66085107  0.87645984  1
  Ba  Ba18  1  -0.00249901  0.15824658  0.38215391  1
  Ba  Ba19  1  0.16525946  0.34188873  0.62430343  1
  Ba  Ba20  1  0.17072820  0.65653860  0.37268865  1
  Ba  Ba21  1  0.66900035  0.16927609  0.12456133  1
  Ba  Ba22  1  1.00396716  0.50691316  0.62118226  1
  Ba  Ba23  1  0.33226028  0.83981723  0.12648977  1
  Ba  Ba24  1  0.66201009  0.48939712  0.87530459  1
  Ba  Ba25  1  0.49863363  0.99405193  0.88000758  1
  Ba  Ba26  1  0.33522249  0.16185908  0.87687270  1
  Ba  Ba27  1  0.16777476  0.32220223  0.37690729  1
  Ba  Ba28  1  0.50341219  0.99067373  0.37462823  1
  Ba  Ba29  1  0.99755394  0.50917216  0.12411746  1
  Ba  Ba30  1  0.83046406  0.68093457  0.12455165  1
  Ba  Ba31  1  0.83433748  0.33822650  0.62359463  1
  Ba  Ba32  1  0.33144433  0.49363205  0.87723158  1
  Ba  Ba33  1  0.83068570  0.32520525  0.87530474  1
  Ba  Ba34  1  0.83195825  0.67563768  0.62639571  1
  Ba  Ba35  1  0.66116436  0.82626374  0.87653472  1
  La  La36  1  0.50327399  0.65507818  0.36998225  1
  La  La37  1  0.33081798  0.81985260  0.37231028  1
  La  La38  1  0.16282494  0.01608612  0.62659878  1
  La  La39  1  0.17380495  0.98627217  0.87287479  1
  La  La40  1  0.50698206  0.67021060  0.11556810  1
  La  La41  1  0.49688376  0.01644661  0.62459082  1
  La  La42  1  0.33453199  0.51897555  0.62020371  1
  La  La43  1  0.33783053  0.85299140  0.61776983  1
  La  La44  1  1.00241404  0.18402144  0.12538409  1
  La  La45  1  1.00584234  0.84656081  0.12400553  1
  La  La46  1  0.83146675  0.65152850  0.87331002  1
  La  La47  1  -0.00321866  0.81823213  0.87247999  1
  La  La48  1  0.83722724  0.65220960  0.37405905  1
  La  La49  1  0.32720399  0.48524980  0.37182642  1
  La  La50  1  0.82419694  0.34675978  0.12618503  1
  La  La51  1  0.17231749  0.31862875  0.87497998  1
  La  La52  1  -0.00211772  0.81918138  0.37612805  1
  La  La53  1  0.34095694  0.17326666  0.12828443  1
  La  La54  1  0.66156704  0.48154239  0.37676341  1
  La  La55  1  0.16258971  0.34892260  0.12397000  1
  La  La56  1  0.49318234  0.34923953  0.62456871  1
  La  La57  1  0.67110908  0.82660252  0.37728814  1
  La  La58  1  0.65649249  0.15396261  0.87232749  1
  La  La59  1  -0.00021361  0.48658337  0.87140207  1
  La  La60  1  0.17005209  0.65500986  0.87771830  1
  La  La61  1  0.49492073  0.68711885  0.62392824  1
  La  La62  1  1.00043985  0.17995807  0.62666095  1
  La  La63  1  0.83856651  0.98841514  0.37730279  1
  La  La64  1  0.66679861  0.17747241  0.62177831  1
  La  La65  1  0.33977060  0.52228151  0.12927661  1
  La  La66  1  0.67157404  0.51144195  0.63142686  1
  La  La67  1  0.16437471  0.01521207  0.11996485  1
  La  La68  1  0.00033853  0.48503291  0.37208643  1
  La  La69  1  0.82791789  0.00923597  0.12732514  1
  La  La70  1  0.32901178  0.15227034  0.37656303  1
  La  La71  1  -0.00395879  0.15067735  0.87461922  1
  In  In72  1  0.66977710  0.66817830  0.25258432  1
  In  In73  1  0.49992310  0.50111191  0.25092748  1
  In  In74  1  0.66264391  0.66768612  0.74933583  1
  In  In75  1  0.49995982  0.50367561  0.74573867  1
  In  In76  1  0.33201216  0.00384663  0.74958710  1
  In  In77  1  0.33453705  0.33212696  0.50026896  1
  In  In78  1  -0.00046048  0.66697293  0.24960597  1
  In  In79  1  0.00227426  0.33292695  0.49933139  1
  In  In80  1  0.00002414  0.00169816  0.24759486  1
  In  In81  1  0.49586466  0.83861025  0.74940043  1
  In  In82  1  0.16788586  0.49895340  0.74853053  1
  In  In83  1  0.16656961  0.83332229  0.74896594  1
  In  In84  1  0.66525091  0.66639392  0.49750598  1
  In  In85  1  0.49790763  0.49842437  0.00117458  1
  In  In86  1  0.83089515  0.16517354  0.75217322  1
  In  In87  1  0.16521655  0.83804699  0.24985893  1
  In  In88  1  0.33179254  0.00026704  0.00388058  1
  In  In89  1  0.33295097  0.33133620  0.24783403  1
  In  In90  1  0.33002559  0.33322624  0.00313953  1
  In  In91  1  0.83212697  0.16247290  0.50244928  1
  In  In92  1  0.33148955  0.67124369  0.74847234  1
  In  In93  1  0.66819301  0.32920002  -0.00132884  1
  In  In94  1  0.66765264  0.32684763  0.25294481  1
  In  In95  1  0.16785186  0.83585503  0.49897517  1
  In  In96  1  0.83299820  0.83367542  0.75434592  1
  In  In97  1  0.66827993  -0.00311931  0.00209011  1
  In  In98  1  0.16544530  0.49977885  0.00200379  1
  In  In99  1  0.83071968  0.49795000  0.50209469  1
  In  In100  1  0.83597656  0.16640572  0.00018149  1
  In  In101  1  0.16790769  0.16708403  0.24825043  1
  In  In102  1  0.83362136  0.50086849  0.25056200  1
  In  In103  1  0.83470151  0.83355531  0.50163032  1
  In  In104  1  0.49984097  0.50255070  0.49763311  1
  In  In105  1  -0.00143589  0.66716525  -0.00100008  1
  In  In106  1  0.33297247  0.33560779  0.74972842  1
  In  In107  1  0.00090431  0.66668641  0.74909703  1
  Ir  Ir108  1  0.83989028  0.16135039  0.24912576  1
  Ir  Ir109  1  0.83545725  0.83708378  0.25187617  1
  Ir  Ir110  1  0.00227571  0.33129300  0.75688725  1
  Ir  Ir111  1  0.50168604  0.16332542  0.50096215  1
  Ir  Ir112  1  0.49673294  0.83304492  0.25488972  1
  Ir  Ir113  1  0.66133749  0.32855827  0.50284014  1
  Ir  Ir114  1  0.83533318  0.49453644  0.75255726  1
  Ir  Ir115  1  0.66334027  -0.00151501  0.50053572  1
  Ir  Ir116  1  0.67233705  0.66897447  0.00046026  1
  Ir  Ir117  1  0.33614700  0.00173491  0.49792736  1
  Ir  Ir118  1  0.00154200  0.00102238  0.50300995  1
  Ir  Ir119  1  0.16000403  0.83847017  0.00038956  1
  Ir  Ir120  1  0.50477137  0.16748232  0.74709780  1
  Ir  Ir121  1  0.00124367  0.33169984  0.00014237  1
  Ir  Ir122  1  0.33665973  0.67134197  0.25098544  1
  Ir  Ir123  1  0.16947024  0.49872473  0.24989223  1
  Ir  Ir124  1  0.00118633  -0.00216575  -0.00196749  1
  Ir  Ir125  1  0.83720417  0.49857275  -0.00767716  1
  Ir  Ir126  1  0.49865071  0.15935851  0.24968461  1
  Ir  Ir127  1  0.15813784  0.16687670  0.75347023  1
  Ir  Ir128  1  0.66343230  0.32856711  0.74397799  1
  Ir  Ir129  1  0.33709906  0.67060984  0.49483059  1
  Ir  Ir130  1  0.33494510  -0.00151834  0.25277641  1
  Ir  Ir131  1  0.16003833  0.16484018  -0.00024283  1
  Ir  Ir132  1  0.00143022  0.66575711  0.49481151  1
  Ir  Ir133  1  0.49745388  0.83588852  0.49430926  1
  Ir  Ir134  1  0.00153484  0.33251202  0.24268628  1
  Ir  Ir135  1  0.16666778  0.16208344  0.50293475  1
  Ir  Ir136  1  0.00419425  0.00422993  0.75262956  1
  Ir  Ir137  1  0.67243700  -0.00250883  0.25450462  1
  Ir  Ir138  1  0.66103966  0.00335460  0.74642455  1
  Ir  Ir139  1  0.16906208  0.50363853  0.49251445  1
  Ir  Ir140  1  0.83779066  0.83268690  0.00137784  1
  Ir  Ir141  1  0.33134748  0.67172511  0.00331220  1
  Ir  Ir142  1  0.50032703  0.16475814  0.00222584  1
  Ir  Ir143  1  0.49905240  0.82962598  0.00603057  1
  O  O144  1  0.29552278  0.30904737  0.12604687  1
  O  O145  1  0.31279842  0.32551675  0.62418264  1
  O  O146  1  0.30979595  0.66296883  0.12944022  1
  O  O147  1  0.31206355  0.66246085  0.61203216  1
  O  O148  1  0.30357333  0.99675509  0.13238092  1
  O  O149  1  0.30275943  0.99489148  0.61779353  1
  O  O150  1  0.65585567  0.32935625  0.12661939  1
  O  O151  1  0.62928749  0.31821698  0.62266289  1
  O  O152  1  0.64655710  0.66778109  0.12356138  1
  O  O153  1  0.62997632  0.65585099  0.62002902  1
  O  O154  1  0.65536354  0.99706549  0.13409352  1
  O  O155  1  0.63172895  0.99606283  0.62295365  1
  O  O156  1  0.96443481  0.32353296  0.11994676  1
  O  O157  1  0.98511394  0.32218872  0.63433787  1
  O  O158  1  0.97941105  0.66900397  0.12471368  1
  O  O159  1  0.98155057  0.66176990  0.61503597  1
  O  O160  1  0.96620726  0.98560189  0.11604799  1
  O  O161  1  0.97909447  1.00615558  0.62914990  1
  O  O162  1  0.19813975  0.15393589  0.11735624  1
  O  O163  1  0.18408792  0.15365349  0.62966899  1
  O  O164  1  0.20224129  0.48902754  0.13023501  1
  O  O165  1  0.19666901  0.49963477  0.61280303  1
  O  O166  1  0.18087247  0.83191223  0.11910995  1
  O  O167  1  0.20090504  0.83283225  0.62226168  1
  O  O168  1  0.52206586  0.16171757  0.12545475  1
  O  O169  1  0.53196008  0.15684241  0.62464527  1
  O  O170  1  0.52009653  0.51958250  0.12590347  1
  O  O171  1  0.53719056  0.48707196  0.61934772  1
  O  O172  1  0.51624512  0.81474215  0.13275661  1
  O  O173  1  0.51644329  0.82729186  0.61288234  1
  O  O174  1  0.86801731  0.14939505  0.12924832  1
  O  O175  1  0.86418746  0.16173995  0.62905628  1
  O  O176  1  0.85020814  0.49005565  0.11466025  1
  O  O177  1  0.85441464  0.49267825  0.63381092  1
  O  O178  1  0.86884725  0.83237760  0.12820368  1
  O  O179  1  0.85226638  0.84093484  0.62764244  1
  O  O180  1  0.14769309  0.16061754  0.38099668  1
  O  O181  1  0.12774670  0.17860013  0.87665604  1
  O  O182  1  0.13667916  0.50256405  0.37071697  1
  O  O183  1  0.13864103  0.51433068  0.87620756  1
  O  O184  1  0.13374340  0.84200268  0.37574078  1
  O  O185  1  0.13285798  0.85122352  0.88106495  1
  O  O186  1  0.46829044  0.16069315  0.37523695  1
  O  O187  1  0.48454466  0.16573428  0.87403031  1
  O  O188  1  0.45930298  0.51498034  0.37386526  1
  O  O189  1  0.48137552  0.50299378  0.87442372  1
  O  O190  1  0.46650921  0.84096273  0.37529702  1
  O  O191  1  0.48404242  0.83284434  0.88401569  1
  O  O192  1  0.82108446  0.16497022  0.36995222  1
  O  O193  1  0.79624915  0.16599448  0.87514083  1
  O  O194  1  0.79693023  0.50879005  0.37781561  1
  O  O195  1  0.81114705  0.50369426  0.87198545  1
  O  O196  1  0.80760881  0.85082938  0.37105461  1
  O  O197  1  0.81218775  0.84052219  0.88431877  1
  O  O198  1  0.01837813  0.00235292  0.38182461  1
  O  O199  1  0.03756292  0.01176819  0.87519212  1
  O  O200  1  0.01949160  0.33922618  0.36551253  1
  O  O201  1  0.03508490  0.34241028  0.87978524  1
  O  O202  1  0.02231336  0.67960438  0.37719467  1
  O  O203  1  0.03654767  0.68069055  0.87703660  1
  O  O204  1  0.35761954  0.01597726  0.37430392  1
  O  O205  1  0.34570914  0.00544682  0.87736691  1
  O  O206  1  0.35393704  0.34585262  0.37461059  1
  O  O207  1  0.35244067  0.33113122  0.87635800  1
  O  O208  1  0.36727173  0.67883560  0.37327849  1
  O  O209  1  0.34987112  0.66958782  0.88331305  1
  O  O210  1  0.69858089  -0.00283519  0.37787946  1
  O  O211  1  0.67835129  0.01470048  0.86927614  1
  O  O212  1  0.68898852  0.33522938  0.38348942  1
  O  O213  1  0.68116793  0.32705328  0.86486175  1
  O  O214  1  0.70218885  0.68775830  0.37530036  1
  O  O215  1  0.69507830  0.67073155  0.87976689  1
  O  O216  1  0.06681272  0.09460075  0.02817386  1
  O  O217  1  0.06995437  0.09529409  0.53122311  1
  O  O218  1  0.07147357  0.41768443  0.02604701  1
  O  O219  1  0.08062842  0.42974367  0.50617650  1
  O  O220  1  0.06374880  0.77684983  0.01597850  1
  O  O221  1  0.06955586  0.75878323  0.51252189  1
  O  O222  1  0.40460690  0.09720764  0.02571683  1
  O  O223  1  0.40878050  0.09331524  0.52282356  1
  O  O224  1  0.39523344  0.43304951  0.03128912  1
  O  O225  1  0.40407478  0.43222181  0.52688581  1
  O  O226  1  0.41220735  0.75224336  0.02702809  1
  O  O227  1  0.39985001  0.77045629  0.51843977  1
  O  O228  1  0.75273594  0.08103439  0.02250142  1
  O  O229  1  0.72954811  0.09234064  0.52415092  1
  O  O230  1  0.75283175  0.42275735  0.01035317  1
  O  O231  1  0.72638563  0.42223868  0.52383238  1
  O  O232  1  0.74335427  0.76492074  0.01833771  1
  O  O233  1  0.73647890  0.76539513  0.51213367  1
  O  O234  1  0.09166248  0.26050217  0.03220986  1
  O  O235  1  0.09254461  0.24926517  0.51994839  1
  O  O236  1  0.09076634  0.59132767  0.01819446  1
  O  O237  1  0.09450037  0.59330252  0.51188793  1
  O  O238  1  0.09549707  0.93392714  0.02755394  1
  O  O239  1  0.09778685  0.93923257  0.52542764  1
  O  O240  1  0.42336387  0.24952115  0.02317461  1
  O  O241  1  0.43902406  0.25924228  0.52045121  1
  O  O242  1  0.42011232  0.60030668  0.02605570  1
  O  O243  1  0.43016076  0.60640002  0.52202776  1
  O  O244  1  0.42420035  0.91696820  0.01814894  1
  O  O245  1  0.42984662  0.93214185  0.52551203  1
  O  O246  1  0.77091112  0.26395499  0.02630061  1
  O  O247  1  0.74819205  0.25451067  0.52356357  1
  O  O248  1  0.76948090  0.59789512  0.00809460  1
  O  O249  1  0.75368670  0.58595714  0.52894105  1
  O  O250  1  0.77080494  0.92363368  0.02613047  1
  O  O251  1  0.75660651  0.93487052  0.50831441  1
  O  O252  1  0.24670220  0.06965071  0.26478792  1
  O  O253  1  0.22355640  0.07241282  0.76761197  1
  O  O254  1  0.23583729  0.40803796  0.26776764  1
  O  O255  1  0.23050579  0.39893967  0.77625164  1
  O  O256  1  0.24500758  0.74256524  0.26787532  1
  O  O257  1  0.22848502  0.73140372  0.77778519  1
  O  O258  1  0.57638498  0.06717583  0.26751229  1
  O  O259  1  0.56906145  0.07212814  0.76362209  1
  O  O260  1  0.57938217  0.41072385  0.27479390  1
  O  O261  1  0.57156376  0.39349193  0.75489518  1
  O  O262  1  0.56459055  0.74138713  0.27532092  1
  O  O263  1  0.56332904  0.74009095  0.75376704  1
  O  O264  1  0.89818088  0.06264795  0.26917062  1
  O  O265  1  0.91366799  0.07241004  0.77517555  1
  O  O266  1  0.91638938  0.40750562  0.26308896  1
  O  O267  1  0.91365721  0.40582979  0.77794507  1
  O  O268  1  0.89665687  0.74180713  0.28142868  1
  O  O269  1  0.90404649  0.73520679  0.78170551  1
  O  O270  1  0.26605136  0.23044066  0.27669238  1
  O  O271  1  0.24890533  0.23557377  0.77002236  1
  O  O272  1  0.27134069  0.56603081  0.26724357  1
  O  O273  1  0.26938070  0.56719869  0.75224361  1
  O  O274  1  0.26828674  0.90641881  0.27665233  1
  O  O275  1  0.25640766  0.91087025  0.77115614  1
  O  O276  1  0.58866431  0.23070745  0.26500253  1
  O  O277  1  0.60419752  0.22828404  0.76332845  1
  O  O278  1  0.59603246  0.57524837  0.28371138  1
  O  O279  1  0.60279160  0.56499065  0.75853136  1
  O  O280  1  0.60090109  0.89906675  0.27441451  1
  O  O281  1  0.59067067  0.91550745  0.76544366  1
  O  O282  1  0.93891284  0.22994647  0.25723906  1
  O  O283  1  0.93485156  0.23760896  0.77660358  1
  O  O284  1  0.93038661  0.57088446  0.28199120  1
  O  O285  1  0.92464980  0.56599740  0.77823544  1
  O  O286  1  0.93125366  0.89865173  0.27299644  1
  O  O287  1  0.93985107  0.90915059  0.77593550  1
  O  O288  1  0.26096973  0.23012760  0.47855247  1
  O  O289  1  0.24504465  0.23597744  0.97636883  1
  O  O290  1  0.27297612  0.57145467  0.47372293  1
  O  O291  1  0.25839923  0.58465529  0.98751141  1
  O  O292  1  0.27311930  0.90665803  0.47533247  1
  O  O293  1  0.24851982  0.90957356  0.98341147  1
  O  O294  1  0.59663888  0.22953646  0.48451364  1
  O  O295  1  0.59539015  0.22994385  0.97840363  1
  O  O296  1  0.59339618  0.57211897  0.45956615  1
  O  O297  1  0.59854221  0.58438426  0.98740328  1
  O  O298  1  0.59700094  0.89954737  0.47479878  1
  O  O299  1  0.58604644  0.90567787  0.99274994  1
  O  O300  1  0.92437314  0.24131290  0.49397290  1
  O  O301  1  0.93906615  0.23616195  0.97695173  1
  O  O302  1  0.93053644  0.57611096  0.46830073  1
  O  O303  1  0.92407583  0.57102347  0.96476397  1
  O  O304  1  0.93359985  0.90711949  0.47380604  1
  O  O305  1  0.93821521  0.89825747  0.97751851  1
  O  O306  1  0.24368530  0.07422628  0.48057270  1
  O  O307  1  0.22327495  0.07003451  0.97877164  1
  O  O308  1  0.24196201  0.41822913  0.47350982  1
  O  O309  1  0.22643083  0.39703080  0.98191989  1
  O  O310  1  0.25016136  0.74305606  0.47148199  1
  O  O311  1  0.22867311  0.74206091  0.97704871  1
  O  O312  1  0.56757514  0.06503076  0.49164922  1
  O  O313  1  0.57682130  0.07969859  0.98595834  1
  O  O314  1  0.57529195  0.40032266  0.47795297  1
  O  O315  1  0.57633195  0.40672461  0.99160097  1
  O  O316  1  0.56092617  0.74202901  0.46965543  1
  O  O317  1  0.57299156  0.73569142  0.99289851  1
  O  O318  1  0.90418185  0.06206311  0.48218544  1
  O  O319  1  0.91842463  0.07337126  0.97464999  1
  O  O320  1  0.91576127  0.41534287  0.47826040  1
  O  O321  1  0.91596827  0.41173141  0.96871914  1
  O  O322  1  0.90887943  0.73525370  0.47224329  1
  O  O323  1  0.90039474  0.73985068  0.96986189  1
  O  O324  1  0.09447316  0.26473997  0.21702648  1
  O  O325  1  0.09070586  0.25953371  0.73256631  1
  O  O326  1  0.09872036  0.58783608  0.23500320  1
  O  O327  1  0.09287239  0.59216296  0.73485549  1
  O  O328  1  0.09720821  0.93609431  0.21749972  1
  O  O329  1  0.10062172  0.94485228  0.73098891  1
  O  O330  1  0.42558597  0.24677352  0.22889910  1
  O  O331  1  0.44051480  0.26188534  0.72665171  1
  O  O332  1  0.43234382  0.61069414  0.22930155  1
  O  O333  1  0.43163685  0.60388082  0.71678558  1
  O  O334  1  0.42689647  0.92815756  0.23421243  1
  O  O335  1  0.42564989  0.93224704  0.71580273  1
  O  O336  1  0.77582660  0.25496829  0.22902537  1
  O  O337  1  0.75241934  0.25913976  0.72442350  1
  O  O338  1  0.76837340  0.60060388  0.23911385  1
  O  O339  1  0.76456963  0.58337816  0.73498844  1
  O  O340  1  0.77354698  0.93640489  0.23445419  1
  O  O341  1  0.75055604  0.93236171  0.74162897  1
  O  O342  1  0.07200377  0.09764582  0.21733109  1
  O  O343  1  0.06234881  0.10376866  0.73105604  1
  O  O344  1  0.07513753  0.42781525  0.22631196  1
  O  O345  1  0.06743304  0.42287034  0.73932491  1
  O  O346  1  0.06136943  0.77252146  0.23581372  1
  O  O347  1  0.06395975  0.77205179  0.73934963  1
  O  O348  1  0.40086778  0.09360046  0.22898670  1
  O  O349  1  0.41338438  0.09699616  0.73057661  1
  O  O350  1  0.39834479  0.43353538  0.22434443  1
  O  O351  1  0.40331012  0.43324520  0.71576521  1
  O  O352  1  0.39733082  0.77151214  0.24543715  1
  O  O353  1  0.39469118  0.77171676  0.72100603  1
  O  O354  1  0.74617153  0.09076919  0.23028773  1
  O  O355  1  0.72805314  0.09529162  0.72533291  1
  O  O356  1  0.75023802  0.41634303  0.23424975  1
  O  O357  1  0.73389578  0.42469463  0.72538775  1
  O  O358  1  0.74138260  0.77493073  0.24019256  1
  O  O359  1  0.74134965  0.75631887  0.73669493  1
