# generated using pymatgen
data_BaLaInIrO6
_symmetry_space_group_name_H-M   'P 1'
_cell_length_a   17.52861281
_cell_length_b   17.56553463
_cell_length_c   16.51782296
_cell_angle_alpha   90.00344179
_cell_angle_beta   89.94731314
_cell_angle_gamma   90.00133565
_symmetry_Int_Tables_number   1
_chemical_formula_structural   BaLaInIrO6
_chemical_formula_sum   'Ba36 La36 In36 Ir36 O216'
_cell_volume   5085.82653119
_cell_formula_units_Z   36
loop_
 _symmetry_equiv_pos_site_id
 _symmetry_equiv_pos_as_xyz
  1  'x, y, z'
loop_
 _atom_site_type_symbol
 _atom_site_label
 _atom_site_symmetry_multiplicity
 _atom_site_fract_x
 _atom_site_fract_y
 _atom_site_fract_z
 _atom_site_occupancy
  Ba  Ba0  1  1.00600966  0.84412606  0.62681457  1
  Ba  Ba1  1  0.66751351  0.17496330  0.62865968  1
  Ba  Ba2  1  0.83422278  0.67471250  0.62339639  1
  Ba  Ba3  1  0.66820695  0.50506187  0.12272444  1
  Ba  Ba4  1  0.16305227  0.33565762  0.12418932  1
  Ba  Ba5  1  0.83281728  0.34091110  0.63058338  1
  Ba  Ba6  1  0.83046694  0.33703678  0.12143769  1
  Ba  Ba7  1  0.83136888  0.01334081  0.13105600  1
  Ba  Ba8  1  0.33178961  0.82426815  0.37219435  1
  Ba  Ba9  1  -0.00356074  0.16523229  0.87688877  1
  Ba  Ba10  1  0.00287341  0.48968730  0.37775627  1
  Ba  Ba11  1  0.66606520  0.17337538  0.12297260  1
  Ba  Ba12  1  0.33089452  0.15848686  0.87577289  1
  Ba  Ba13  1  0.49796422  0.01092266  0.12651169  1
  Ba  Ba14  1  0.83092469  0.32933616  0.87704056  1
  Ba  Ba15  1  0.49551222  0.33952197  0.12322556  1
  Ba  Ba16  1  0.49855483  0.65681368  0.37534984  1
  Ba  Ba17  1  0.83237847  0.65982456  0.87064884  1
  Ba  Ba18  1  0.49743267  0.32325467  0.87558965  1
  Ba  Ba19  1  1.00352644  0.84334405  0.12502565  1
  Ba  Ba20  1  0.99726595  0.17375272  0.12455672  1
  Ba  Ba21  1  0.66717556  0.16232619  0.87628563  1
  Ba  Ba22  1  1.00022891  0.50273023  0.12131580  1
  Ba  Ba23  1  0.33282827  0.50881962  0.62559667  1
  Ba  Ba24  1  0.16745945  0.32025562  0.87001221  1
  Ba  Ba25  1  0.33257915  0.84134817  0.62293649  1
  Ba  Ba26  1  0.16824207  0.65771068  0.37575998  1
  Ba  Ba27  1  0.16641940  0.99328638  0.37621526  1
  Ba  Ba28  1  0.83433367  0.99889050  0.87697191  1
  Ba  Ba29  1  0.33124809  0.16050757  0.37543541  1
  Ba  Ba30  1  1.00176075  0.51288737  0.62739952  1
  Ba  Ba31  1  0.50008030  0.67572873  0.62555720  1
  Ba  Ba32  1  0.83547167  0.01067720  0.62440921  1
  Ba  Ba33  1  0.50670303  0.99356435  0.87739877  1
  Ba  Ba34  1  0.66885927  0.50841870  0.62353135  1
  Ba  Ba35  1  0.50320949  0.65746785  0.87192644  1
  La  La36  1  0.84116160  0.98516499  0.37982846  1
  La  La37  1  0.32247669  0.48663919  0.37589011  1
  La  La38  1  0.66335020  0.48234826  0.87204374  1
  La  La39  1  -0.00453507  0.15555024  0.37186474  1
  La  La40  1  0.49563706  0.68211705  0.12104876  1
  La  La41  1  0.33353888  0.85037009  0.12766939  1
  La  La42  1  0.82845610  0.67835566  0.12533632  1
  La  La43  1  0.33412600  0.81597552  0.87669303  1
  La  La44  1  -0.00323329  0.81662819  0.87426187  1
  La  La45  1  0.66332979  0.82492028  0.87108680  1
  La  La46  1  0.16063050  0.01573649  0.13039028  1
  La  La47  1  0.33034504  0.48312117  0.86650714  1
  La  La48  1  -0.00378421  0.48567257  0.87125987  1
  La  La49  1  -0.00460796  0.81098665  0.37940164  1
  La  La50  1  0.49947692  0.01495839  0.62584625  1
  La  La51  1  0.66689215  0.81906906  0.37356980  1
  La  La52  1  0.83444724  0.31591895  0.37806808  1
  La  La53  1  0.49398049  0.34763863  0.62969769  1
  La  La54  1  1.00210803  0.18512541  0.62509915  1
  La  La55  1  0.17101622  0.99376014  0.87326312  1
  La  La56  1  0.34335330  0.51670961  0.12053860  1
  La  La57  1  0.15722779  0.68146808  0.62195978  1
  La  La58  1  0.16192333  0.02049320  0.61963681  1
  La  La59  1  0.67297570  0.84574502  0.12556718  1
  La  La60  1  0.16781237  0.32067661  0.37429978  1
  La  La61  1  0.33517509  0.17555006  0.11711995  1
  La  La62  1  0.33453479  0.18128448  0.62437543  1
  La  La63  1  0.50410261  0.98331403  0.37808523  1
  La  La64  1  0.49881306  0.32045865  0.37899627  1
  La  La65  1  0.16454975  0.67949179  0.12583753  1
  La  La66  1  0.66258485  0.15217641  0.37585091  1
  La  La67  1  0.66629030  0.48181839  0.37663307  1
  La  La68  1  0.17315427  0.65141853  0.87537771  1
  La  La69  1  0.15892429  0.35005179  0.62367268  1
  La  La70  1  0.67277013  0.83596547  0.63202647  1
  La  La71  1  0.84099623  0.64839310  0.37710447  1
  In  In72  1  0.83358555  0.50350387  -0.00052566  1
  In  In73  1  0.33546274  0.00198564  0.50153531  1
  In  In74  1  0.33377503  0.33506073  0.25079392  1
  In  In75  1  0.16967694  0.49900745  0.24384679  1
  In  In76  1  0.16627671  0.83686294  0.49859206  1
  In  In77  1  0.66421091  0.66607553  0.00380280  1
  In  In78  1  0.66650082  -0.00092625  0.74828435  1
  In  In79  1  0.83789792  0.83670439  0.74959692  1
  In  In80  1  0.66552793  0.32921768  0.50211589  1
  In  In81  1  0.50276271  0.83203678  0.24856835  1
  In  In82  1  0.16831277  0.83408714  -0.00192691  1
  In  In83  1  0.49590349  0.16743580  0.74978001  1
  In  In84  1  0.33053350  0.66527351  0.75048992  1
  In  In85  1  0.49734336  0.83673997  0.74802770  1
  In  In86  1  0.33422944  0.00336890  0.25021776  1
  In  In87  1  0.83454436  0.49648330  0.50086052  1
  In  In88  1  0.49722610  0.49815032  0.49694373  1
  In  In89  1  0.49992149  0.16704528  0.25173463  1
  In  In90  1  0.66957463  0.66561594  0.49557378  1
  In  In91  1  -0.00420953  0.33434801  0.25290291  1
  In  In92  1  0.66918273  -0.00165478  0.49948265  1
  In  In93  1  0.83475416  0.83372474  0.00036328  1
  In  In94  1  0.83525763  0.83161249  0.25246204  1
  In  In95  1  0.49926684  0.50068404  0.25016035  1
  In  In96  1  0.32996104  0.33578994  -0.00141194  1
  In  In97  1  -0.00155738  0.66170713  0.24386126  1
  In  In98  1  0.00029382  0.33487126  -0.00014640  1
  In  In99  1  0.00432927  -0.00094969  -0.00091097  1
  In  In100  1  0.83572626  0.16827502  0.74867764  1
  In  In101  1  0.66625247  0.66506085  0.75029978  1
  In  In102  1  0.66688830  -0.00154306  0.00307479  1
  In  In103  1  0.16658145  0.16407556  -0.00212450  1
  In  In104  1  0.33186542  0.66592352  0.50045856  1
  In  In105  1  0.16821193  0.83707828  0.75371246  1
  In  In106  1  0.66159695  0.33345862  0.00345422  1
  In  In107  1  0.16502699  0.83408690  0.24988568  1
  Ir  Ir108  1  0.49576906  0.83112480  0.00324926  1
  Ir  Ir109  1  0.00885184  0.00528804  0.74654625  1
  Ir  Ir110  1  0.17191811  0.50419056  -0.00525379  1
  Ir  Ir111  1  0.82691391  0.49885379  0.25188080  1
  Ir  Ir112  1  0.00255421  0.33020367  0.49908988  1
  Ir  Ir113  1  0.00108911  0.66497640  0.50208257  1
  Ir  Ir114  1  0.49864253  0.49561832  0.75324745  1
  Ir  Ir115  1  0.16547603  0.50000955  0.75097629  1
  Ir  Ir116  1  0.66960727  -0.00003920  0.25614835  1
  Ir  Ir117  1  0.00041200  0.00488134  0.50093098  1
  Ir  Ir118  1  0.83581869  0.16699387  0.49638508  1
  Ir  Ir119  1  0.00509396  0.66360559  -0.00436759  1
  Ir  Ir120  1  0.66245830  0.33613366  0.74993715  1
  Ir  Ir121  1  0.66817850  0.66474154  0.25005717  1
  Ir  Ir122  1  -0.00006142  0.00216624  0.25697555  1
  Ir  Ir123  1  0.66959234  0.33172317  0.25626683  1
  Ir  Ir124  1  0.49802062  0.50287258  -0.00294781  1
  Ir  Ir125  1  0.00627371  0.66471007  0.75246277  1
  Ir  Ir126  1  0.83615138  0.83610302  0.49767204  1
  Ir  Ir127  1  0.16767125  0.16562321  0.74330186  1
  Ir  Ir128  1  0.33457452  -0.00482438  -0.00560651  1
  Ir  Ir129  1  0.83381415  0.49924855  0.75157729  1
  Ir  Ir130  1  0.16419189  0.16579921  0.25521002  1
  Ir  Ir131  1  0.49646661  0.16475177  0.00094249  1
  Ir  Ir132  1  0.49790445  0.16689535  0.50064124  1
  Ir  Ir133  1  0.82755258  0.16594178  0.25606967  1
  Ir  Ir134  1  0.33028260  0.00202672  0.75005168  1
  Ir  Ir135  1  0.83229207  0.16694154  0.00332234  1
  Ir  Ir136  1  0.16388255  0.17101628  0.50086410  1
  Ir  Ir137  1  0.32778079  0.33256249  0.74415069  1
  Ir  Ir138  1  0.50677854  0.83585676  0.49684417  1
  Ir  Ir139  1  0.16660776  0.49626498  0.50146693  1
  Ir  Ir140  1  0.33025517  0.33101621  0.50396756  1
  Ir  Ir141  1  0.33340796  0.66438064  0.24333444  1
  Ir  Ir142  1  0.00319737  0.33565026  0.74499199  1
  Ir  Ir143  1  0.33268954  0.66569068  0.00058692  1
  O  O144  1  0.31684304  0.31444526  0.12566850  1
  O  O145  1  0.29509269  0.31967048  0.62338950  1
  O  O146  1  0.30165326  0.65322346  0.12119492  1
  O  O147  1  0.29384555  0.66467770  0.62823502  1
  O  O148  1  0.30316580  0.98990484  0.11383944  1
  O  O149  1  0.29942966  0.99816732  0.63219286  1
  O  O150  1  0.64847073  0.33256066  0.13613689  1
  O  O151  1  0.63483807  0.33363379  0.62928007  1
  O  O152  1  0.63102538  0.65701327  0.13350834  1
  O  O153  1  0.65019504  0.66867517  0.62156096  1
  O  O154  1  0.64611585  0.98948717  0.13656408  1
  O  O155  1  0.63407179  0.98165831  0.61898818  1
  O  O156  1  0.98231386  0.33601373  0.12735886  1
  O  O157  1  0.98083252  0.32478895  0.62052764  1
  O  O158  1  0.96711274  0.65894433  0.11386774  1
  O  O159  1  0.98379585  0.66686148  0.62941759  1
  O  O160  1  0.98037292  0.99836715  0.13858591  1
  O  O161  1  0.98258678  0.99929017  0.62340211  1
  O  O162  1  0.19656386  0.15784307  0.13469404  1
  O  O163  1  0.19741274  0.16179748  0.62169215  1
  O  O164  1  0.20577685  0.49371715  0.11269809  1
  O  O165  1  0.18584956  0.48630484  0.62659757  1
  O  O166  1  0.19886913  0.81747110  0.12213434  1
  O  O167  1  0.17983525  0.82017153  0.62773767  1
  O  O168  1  0.51015553  0.17319661  0.12165102  1
  O  O169  1  0.51744813  0.15873177  0.61872983  1
  O  O170  1  0.51731274  0.50162540  0.11700527  1
  O  O171  1  0.51880266  0.48558315  0.63160060  1
  O  O172  1  0.53164139  0.82454420  0.12239483  1
  O  O173  1  0.53440108  0.83272422  0.61553477  1
  O  O174  1  0.84832072  0.17014616  0.13180416  1
  O  O175  1  0.86597755  0.16824529  0.61566270  1
  O  O176  1  0.84701566  0.49289530  0.13350998  1
  O  O177  1  0.85191520  0.49495347  0.63114413  1
  O  O178  1  0.85796391  0.81694982  0.12822097  1
  O  O179  1  0.85866548  0.83257552  0.61527174  1
  O  O180  1  0.13160906  0.17713038  0.37906366  1
  O  O181  1  0.14819942  0.15857936  0.86324110  1
  O  O182  1  0.15245335  0.50175966  0.38209970  1
  O  O183  1  0.13464858  0.51434580  0.87275662  1
  O  O184  1  0.12974967  0.83668913  0.37447029  1
  O  O185  1  0.13006312  0.85396728  0.87576246  1
  O  O186  1  0.48009213  0.17785963  0.38248313  1
  O  O187  1  0.48294380  0.15981616  0.87969466  1
  O  O188  1  0.45903480  0.49642327  0.37269531  1
  O  O189  1  0.46713339  0.50010127  0.87611980  1
  O  O190  1  0.48035490  0.84418083  0.37723250  1
  O  O191  1  0.46714874  0.83594248  0.88469171  1
  O  O192  1  0.79952989  0.17288497  0.37635633  1
  O  O193  1  0.82316198  0.16572326  0.88176853  1
  O  O194  1  0.80256867  0.51125166  0.36960973  1
  O  O195  1  0.80364312  0.50275471  0.86922953  1
  O  O196  1  0.80680932  0.84168080  0.37875748  1
  O  O197  1  0.80213810  0.83659170  0.87560090  1
  O  O198  1  0.02006315  0.01858206  0.37964521  1
  O  O199  1  0.03675121  0.01346219  0.86599403  1
  O  O200  1  0.03028643  0.32975090  0.38081294  1
  O  O201  1  0.01909145  0.34135695  0.86585315  1
  O  O202  1  0.01573258  0.66784230  0.38026733  1
  O  O203  1  0.03815813  0.67341771  0.87451136  1
  O  O204  1  0.36964025  0.00762738  0.37624071  1
  O  O205  1  0.35928028  0.00479942  0.87186173  1
  O  O206  1  0.36215461  0.34454466  0.38566304  1
  O  O207  1  0.34808521  0.34132171  0.86613263  1
  O  O208  1  0.35002086  0.66715956  0.36353879  1
  O  O209  1  0.35582180  0.67550666  0.88251950  1
  O  O210  1  0.70059528  0.01246034  0.37362652  1
  O  O211  1  0.68125374  -0.00107379  0.87751741  1
  O  O212  1  0.69714201  0.33647182  0.37366737  1
  O  O213  1  0.67787059  0.34176720  0.87066442  1
  O  O214  1  0.70444801  0.68145902  0.36603643  1
  O  O215  1  0.68188088  0.68596453  0.87829350  1
  O  O216  1  0.08299099  0.08550333  0.02983945  1
  O  O217  1  0.06676677  0.10348879  0.52545577  1
  O  O218  1  0.08433710  0.43371598  0.00851838  1
  O  O219  1  0.07353524  0.42181456  0.52427565  1
  O  O220  1  0.07519317  0.75132617  0.01861978  1
  O  O221  1  0.06946992  0.75646849  0.51326863  1
  O  O222  1  0.39942167  0.09274710  0.02202476  1
  O  O223  1  0.40525324  0.10004162  0.52964639  1
  O  O224  1  0.40191296  0.43676361  0.01522234  1
  O  O225  1  0.40627811  0.41220678  0.53128230  1
  O  O226  1  0.39719426  0.76333423  0.03016544  1
  O  O227  1  0.41757923  0.76505153  0.51441456  1
  O  O228  1  0.74855313  0.09181319  0.01472054  1
  O  O229  1  0.74185572  0.10056274  0.51369374  1
  O  O230  1  0.73804219  0.42645676  0.00310304  1
  O  O231  1  0.73494142  0.42850272  0.50547113  1
  O  O232  1  0.73753290  0.75935476  0.03539806  1
  O  O233  1  0.73774239  0.77746080  0.51571638  1
  O  O234  1  0.08771063  0.25472877  0.00790161  1
  O  O235  1  0.09663062  0.26339597  0.52730919  1
  O  O236  1  0.10536458  0.59875443  0.02046238  1
  O  O237  1  0.10027475  0.59627077  0.52468570  1
  O  O238  1  0.10575387  0.93311833  0.02785955  1
  O  O239  1  0.09524348  0.94071510  0.52363157  1
  O  O240  1  0.42058208  0.25007785  0.01067574  1
  O  O241  1  0.42822297  0.26205453  0.52873431  1
  O  O242  1  0.42927140  0.59920564  0.02594168  1
  O  O243  1  0.42461117  0.59224282  0.51900796  1
  O  O244  1  0.42381341  0.92211302  0.02602140  1
  O  O245  1  0.44280156  0.93290395  0.51951334  1
  O  O246  1  0.75317869  0.25075231  0.00963246  1
  O  O247  1  0.76944006  0.25980310  0.51216966  1
  O  O248  1  0.76892150  0.60217424  0.02454101  1
  O  O249  1  0.77065717  0.60063493  0.50230015  1
  O  O250  1  0.75459046  0.92036563  0.03223952  1
  O  O251  1  0.77374744  0.93162137  0.50739623  1
  O  O252  1  0.23430296  0.07696238  0.26736885  1
  O  O253  1  0.23054738  0.06523633  0.76717648  1
  O  O254  1  0.23976380  0.40494681  0.28383320  1
  O  O255  1  0.23748259  0.40787291  0.76790576  1
  O  O256  1  0.24073338  0.72889453  0.25657524  1
  O  O257  1  0.23800685  0.74081396  0.78759811  1
  O  O258  1  0.57408015  0.06765865  0.28055418  1
  O  O259  1  0.56608707  0.07041819  0.74842748  1
  O  O260  1  0.57469540  0.39796018  0.28126983  1
  O  O261  1  0.57082145  0.40738658  0.77192735  1
  O  O262  1  0.57962547  0.73706180  0.27122367  1
  O  O263  1  0.57609966  0.74554981  0.76640916  1
  O  O264  1  0.90034049  0.07135793  0.28226203  1
  O  O265  1  0.91915722  0.07355613  0.76268913  1
  O  O266  1  0.89061188  0.40414348  0.27860261  1
  O  O267  1  0.91244574  0.41024013  0.77244321  1
  O  O268  1  0.90487161  0.73492744  0.27873896  1
  O  O269  1  0.92030639  0.74250072  0.77268200  1
  O  O270  1  0.24811862  0.24276993  0.27566919  1
  O  O271  1  0.26248858  0.23490237  0.76057665  1
  O  O272  1  0.27494898  0.56498778  0.26250284  1
  O  O273  1  0.25622954  0.56763056  0.78053828  1
  O  O274  1  0.26184869  0.90586973  0.25689903  1
  O  O275  1  0.26926484  0.90783305  0.78054811  1
  O  O276  1  0.60518749  0.23640744  0.27697884  1
  O  O277  1  0.58970670  0.24804579  0.76349728  1
  O  O278  1  0.60377905  0.56989338  0.27808941  1
  O  O279  1  0.59254915  0.56198796  0.77361848  1
  O  O280  1  0.60318443  0.90603910  0.27692423  1
  O  O281  1  0.59659806  0.89957144  0.77409177  1
  O  O282  1  0.92007429  0.23492253  0.28225064  1
  O  O283  1  0.93202791  0.24519382  0.75502572  1
  O  O284  1  0.91869771  0.56792237  0.26944910  1
  O  O285  1  0.93171720  0.56603246  0.77366624  1
  O  O286  1  0.93328626  0.90917739  0.28450283  1
  O  O287  1  0.94372667  0.90960276  0.77369361  1
  O  O288  1  0.25258565  0.24487733  0.47452154  1
  O  O289  1  0.25852158  0.23839570  0.98947237  1
  O  O290  1  0.26114822  0.56041089  0.47979908  1
  O  O291  1  0.26796250  0.57047199  0.96952704  1
  O  O292  1  0.26067937  0.91142008  0.48295652  1
  O  O293  1  0.27258558  0.90026386  0.97212847  1
  O  O294  1  0.59306443  0.23199666  0.47505000  1
  O  O295  1  0.58270679  0.24030942  0.98649668  1
  O  O296  1  0.59911913  0.56590718  0.47195378  1
  O  O297  1  0.59449916  0.56479645  0.97406435  1
  O  O298  1  0.59660512  0.90406920  0.46390999  1
  O  O299  1  0.59251159  0.89202623  0.98234915  1
  O  O300  1  0.93362768  0.23400467  0.47254798  1
  O  O301  1  0.91323575  0.24526461  0.99200951  1
  O  O302  1  0.92906899  0.57594551  0.48366194  1
  O  O303  1  0.94000673  0.57387379  0.96994082  1
  O  O304  1  0.93525650  0.90470036  0.47128611  1
  O  O305  1  0.93593992  0.90253680  0.97373646  1
  O  O306  1  0.23436033  0.08130759  0.48684460  1
  O  O307  1  0.24123746  0.06106777  0.97706385  1
  O  O308  1  0.23371038  0.39844347  0.47850008  1
  O  O309  1  0.24161407  0.41794528  0.96599182  1
  O  O310  1  0.23951941  0.73982310  0.48562119  1
  O  O311  1  0.23885724  0.73187652  0.97479306  1
  O  O312  1  0.56501644  0.07263605  0.47468352  1
  O  O313  1  0.57217281  0.07849693  0.99625145  1
  O  O314  1  0.56708169  0.39891387  0.47486151  1
  O  O315  1  0.56750176  0.41350038  0.97953525  1
  O  O316  1  0.57913833  0.74855616  0.46958188  1
  O  O317  1  0.55993974  0.73760422  0.99164159  1
  O  O318  1  0.90371712  0.07291011  0.47169450  1
  O  O319  1  0.91095183  0.08189079  0.99388899  1
  O  O320  1  0.90741126  0.39561665  0.47495550  1
  O  O321  1  0.91720461  0.41928536  0.97629431  1
  O  O322  1  0.90428039  0.73818138  0.47293047  1
  O  O323  1  0.91842077  0.73730176  0.97363894  1
  O  O324  1  0.09187042  0.25207062  0.24071242  1
  O  O325  1  0.09748932  0.26148095  0.71730720  1
  O  O326  1  0.10030038  0.59650159  0.22255092  1
  O  O327  1  0.10421073  0.59828282  0.72988455  1
  O  O328  1  0.09406965  0.93802256  0.22982116  1
  O  O329  1  0.10499973  0.94393675  0.72777244  1
  O  O330  1  0.43557355  0.26981553  0.25288161  1
  O  O331  1  0.41959195  0.26290741  0.71904344  1
  O  O332  1  0.42973758  0.60344926  0.22039027  1
  O  O333  1  0.42588661  0.58355566  0.73670789  1
  O  O334  1  0.42527949  0.92228835  0.23041801  1
  O  O335  1  0.42732396  0.94113441  0.72421959  1
  O  O336  1  0.76609706  0.26618564  0.24160590  1
  O  O337  1  0.75168764  0.26385180  0.73865984  1
  O  O338  1  0.76576051  0.60097704  0.22777234  1
  O  O339  1  0.76330401  0.58682243  0.73429609  1
  O  O340  1  0.75803954  0.92719480  0.23816232  1
  O  O341  1  0.75548517  0.91999260  0.71914070  1
  O  O342  1  0.07155986  0.09390076  0.23453395  1
  O  O343  1  0.07410654  0.10044070  0.71276995  1
  O  O344  1  0.07586601  0.42461646  0.23813265  1
  O  O345  1  0.07595845  0.42548078  0.72819060  1
  O  O346  1  0.07363003  0.75628253  0.23011769  1
  O  O347  1  0.07572589  0.75351642  0.73719320  1
  O  O348  1  0.39848295  0.10307762  0.22312864  1
  O  O349  1  0.39226871  0.09749229  0.72287322  1
  O  O350  1  0.39778072  0.43755951  0.22204896  1
  O  O351  1  0.40299253  0.42264066  0.72993161  1
  O  O352  1  0.40102769  0.75851981  0.21809086  1
  O  O353  1  0.40198808  0.76352909  0.74068277  1
  O  O354  1  0.73182508  0.09819213  0.23870710  1
  O  O355  1  0.74527278  0.09261692  0.73457457  1
  O  O356  1  0.72854356  0.43349404  0.24486663  1
  O  O357  1  0.73479929  0.43055196  0.73791126  1
  O  O358  1  0.73259369  0.75859116  0.22330407  1
  O  O359  1  0.74284920  0.76101420  0.72943575  1
