# generated using pymatgen
data_BaLaInIrO6
_symmetry_space_group_name_H-M   'P 1'
_cell_length_a   17.53864202
_cell_length_b   17.56127509
_cell_length_c   16.49720081
_cell_angle_alpha   90.03057256
_cell_angle_beta   89.98976574
_cell_angle_gamma   89.92519256
_symmetry_Int_Tables_number   1
_chemical_formula_structural   BaLaInIrO6
_chemical_formula_sum   'Ba36 La36 In36 Ir36 O216'
_cell_volume   5081.14784554
_cell_formula_units_Z   36
loop_
 _symmetry_equiv_pos_site_id
 _symmetry_equiv_pos_as_xyz
  1  'x, y, z'
loop_
 _atom_site_type_symbol
 _atom_site_label
 _atom_site_symmetry_multiplicity
 _atom_site_fract_x
 _atom_site_fract_y
 _atom_site_fract_z
 _atom_site_occupancy
  Ba  Ba0  1  0.16623563  0.32237719  0.37407530  1
  Ba  Ba1  1  0.83149518  0.67672642  0.62409606  1
  Ba  Ba2  1  0.83369993  0.00857844  0.12916010  1
  Ba  Ba3  1  0.16818460  0.33907086  0.62611659  1
  Ba  Ba4  1  0.17119633  0.65730297  0.87438331  1
  Ba  Ba5  1  0.83176002  0.33867573  0.12598661  1
  Ba  Ba6  1  0.83194539  0.32763850  0.87859520  1
  Ba  Ba7  1  0.16762119  0.32467392  0.87861384  1
  Ba  Ba8  1  -0.00094421  0.16296994  0.87230419  1
  Ba  Ba9  1  0.66372351  0.18144889  0.62277776  1
  Ba  Ba10  1  0.83420901  0.65518931  0.87505859  1
  Ba  Ba11  1  0.83135152  0.67694930  0.12306876  1
  Ba  Ba12  1  0.83638346  0.99200753  0.37565616  1
  Ba  Ba13  1  0.49635695  0.68305962  0.62857975  1
  Ba  Ba14  1  1.00252327  0.50725418  0.12238509  1
  Ba  Ba15  1  0.00002023  0.48986335  0.37559763  1
  Ba  Ba16  1  -0.00482862  0.82656523  0.37450718  1
  Ba  Ba17  1  0.33634467  0.49119009  0.87477696  1
  Ba  Ba18  1  0.83859339  0.66094338  0.37157378  1
  Ba  Ba19  1  0.83071538  0.33845529  0.62538558  1
  Ba  Ba20  1  0.32730643  0.15709540  0.87417658  1
  Ba  Ba21  1  0.50080185  0.67366568  0.12263513  1
  Ba  Ba22  1  0.16123594  0.99082405  0.37366733  1
  Ba  Ba23  1  0.66531172  0.48579918  0.87280555  1
  Ba  Ba24  1  0.33011556  0.81818154  0.87651918  1
  Ba  Ba25  1  0.99494197  0.84047359  0.12645298  1
  Ba  Ba26  1  0.67221854  0.50736623  0.12276738  1
  Ba  Ba27  1  0.66509099  0.82340363  0.37107158  1
  Ba  Ba28  1  0.16917373  0.66198446  0.37115005  1
  Ba  Ba29  1  0.67095269  0.84355009  0.12459076  1
  Ba  Ba30  1  0.33181833  0.82716356  0.37279924  1
  Ba  Ba31  1  0.50332886  0.34539544  0.12534509  1
  Ba  Ba32  1  0.34033154  0.50977990  0.12130502  1
  Ba  Ba33  1  0.66985147  0.17628925  0.12661398  1
  Ba  Ba34  1  0.16608594  0.00702849  0.62541730  1
  Ba  Ba35  1  0.33847752  0.84196889  0.12556362  1
  La  La36  1  0.49529257  0.00626120  0.63124028  1
  La  La37  1  0.83391818  0.01750982  0.62439784  1
  La  La38  1  0.50422763  0.31815196  0.37539355  1
  La  La39  1  0.50428869  0.64468497  0.87639114  1
  La  La40  1  1.00123484  0.17543267  0.12735443  1
  La  La41  1  0.16554975  0.34713425  0.12503391  1
  La  La42  1  0.16730183  0.68533941  0.11951807  1
  La  La43  1  0.32769423  0.17557144  0.62689241  1
  La  La44  1  -0.00331221  0.15678187  0.37559501  1
  La  La45  1  -0.00923871  0.47892241  0.87076973  1
  La  La46  1  0.50096722  0.98286551  0.87754436  1
  La  La47  1  0.65734022  0.81388660  0.87614475  1
  La  La48  1  0.33087016  0.84494806  0.62951706  1
  La  La49  1  0.67134940  0.85663083  0.62429626  1
  La  La50  1  0.49730387  0.01157083  0.12639345  1
  La  La51  1  0.67076162  0.16469915  0.87708126  1
  La  La52  1  0.49292165  0.35109511  0.62610267  1
  La  La53  1  0.50784098  0.64803548  0.36982439  1
  La  La54  1  0.66954250  0.48942018  0.37546436  1
  La  La55  1  0.66969934  0.51222831  0.62351632  1
  La  La56  1  1.00307101  0.84345954  0.62251818  1
  La  La57  1  0.50794988  0.31612829  0.87782901  1
  La  La58  1  0.32949014  0.48941530  0.37577633  1
  La  La59  1  1.00214420  0.51713709  0.62406391  1
  La  La60  1  0.82817566  0.99321166  0.87936343  1
  La  La61  1  0.33906213  0.52068172  0.62694252  1
  La  La62  1  0.50220280  0.98815941  0.37368322  1
  La  La63  1  0.32527861  0.15122588  0.37493579  1
  La  La64  1  0.33495824  0.17912333  0.12536184  1
  La  La65  1  0.16570509  0.68088778  0.62513766  1
  La  La66  1  0.17154587  0.98338159  0.87538889  1
  La  La67  1  0.83477725  0.31598794  0.37525797  1
  La  La68  1  1.00205935  0.17782732  0.62550719  1
  La  La69  1  -0.00517161  0.82306671  0.87770755  1
  La  La70  1  0.16086062  0.00929895  0.12451857  1
  La  La71  1  0.66501842  0.15216940  0.37291412  1
  In  In72  1  0.49738978  0.16296761  0.75111341  1
  In  In73  1  0.83327615  0.49709918  0.74699568  1
  In  In74  1  0.16770169  0.50164312  -0.00077057  1
  In  In75  1  -0.00038136  0.33292251  0.25323618  1
  In  In76  1  0.16764634  0.83369350  0.49785553  1
  In  In77  1  0.17246462  0.49897371  0.50161779  1
  In  In78  1  0.33660360  0.66682609  0.24847376  1
  In  In79  1  0.00251928  0.66675299  0.75271080  1
  In  In80  1  0.00251972  0.66554768  -0.00181920  1
  In  In81  1  0.83053712  0.83849211  0.75186818  1
  In  In82  1  -0.00177974  0.00124061  0.75586944  1
  In  In83  1  0.00239629  0.32767797  0.00222755  1
  In  In84  1  0.83496678  0.49642313  0.50023956  1
  In  In85  1  0.50013984  0.83561037  0.50108387  1
  In  In86  1  0.00334520  0.66447063  0.24702138  1
  In  In87  1  0.33385179  0.00253447  0.49939001  1
  In  In88  1  0.50150603  0.83335413  0.24735156  1
  In  In89  1  0.33681702  0.33219566  0.49826607  1
  In  In90  1  -0.00208656  0.00219058  0.50245529  1
  In  In91  1  0.66372739  0.66843770  0.49965509  1
  In  In92  1  0.33572131  0.33239988  0.75073358  1
  In  In93  1  0.33776189  0.66998349  0.49833019  1
  In  In94  1  0.00177542  0.00334684  -0.00341500  1
  In  In95  1  0.33589010  0.33195481  0.25122679  1
  In  In96  1  0.66425516  0.00469302  0.75093603  1
  In  In97  1  0.66388708  0.00295390  0.00175120  1
  In  In98  1  0.33631328  0.33157098  -0.00035270  1
  In  In99  1  0.83370265  0.49792366  -0.00101892  1
  In  In100  1  0.83208551  0.83527469  0.50291132  1
  In  In101  1  0.33336407  0.00062293  0.00104114  1
  In  In102  1  0.66304100  0.66797638  0.74653367  1
  In  In103  1  0.16801350  0.49802990  0.74954545  1
  In  In104  1  0.82925578  0.83689145  -0.00403330  1
  In  In105  1  0.66639911  0.33175359  0.25248533  1
  In  In106  1  0.49782216  0.16602385  0.49876033  1
  In  In107  1  0.00116879  0.66646009  0.50019337  1
  Ir  Ir108  1  -0.00226369  0.32691760  0.50059782  1
  Ir  Ir109  1  0.83291159  0.16426279  0.25271284  1
  Ir  Ir110  1  0.50339123  0.49959906  -0.00021480  1
  Ir  Ir111  1  0.16900774  0.83736837  0.00058227  1
  Ir  Ir112  1  -0.00130285  0.32802242  0.74395083  1
  Ir  Ir113  1  0.83151662  0.16654086  -0.00042056  1
  Ir  Ir114  1  0.16846237  0.16266740  0.24933105  1
  Ir  Ir115  1  0.66445148  0.32861388  -0.00191583  1
  Ir  Ir116  1  0.82900859  0.17005230  0.75000025  1
  Ir  Ir117  1  0.82969150  0.83645972  0.24986396  1
  Ir  Ir118  1  0.82991386  0.49857018  0.25199496  1
  Ir  Ir119  1  0.66930600  0.66264577  0.25028337  1
  Ir  Ir120  1  0.33737163  0.66864463  -0.00273957  1
  Ir  Ir121  1  0.17254102  0.49945663  0.25057777  1
  Ir  Ir122  1  0.33652366  0.66900520  0.75151094  1
  Ir  Ir123  1  0.33097710  0.00506951  0.24645159  1
  Ir  Ir124  1  0.49604213  0.16344839  0.24923815  1
  Ir  Ir125  1  0.16276113  0.16670961  0.49692580  1
  Ir  Ir126  1  0.50106565  0.49740312  0.74764092  1
  Ir  Ir127  1  0.82814167  0.16853946  0.50050087  1
  Ir  Ir128  1  0.49901027  0.83517044  0.75472598  1
  Ir  Ir129  1  0.33157135  -0.00114655  0.75200051  1
  Ir  Ir130  1  0.50050952  0.83248398  -0.00387786  1
  Ir  Ir131  1  0.65946010  0.33010301  0.74793308  1
  Ir  Ir132  1  -0.00088339  0.00451414  0.24755196  1
  Ir  Ir133  1  0.16479980  0.16286372  0.74855256  1
  Ir  Ir134  1  0.50173071  0.49700564  0.49948013  1
  Ir  Ir135  1  0.16869314  0.83383249  0.75144198  1
  Ir  Ir136  1  0.16874076  0.83944680  0.24375520  1
  Ir  Ir137  1  0.66320188  0.66643023  0.00067160  1
  Ir  Ir138  1  0.66385877  0.00378525  0.25436128  1
  Ir  Ir139  1  0.49836335  0.16388874  0.00502469  1
  Ir  Ir140  1  0.16872738  0.16254389  0.00330510  1
  Ir  Ir141  1  0.50192683  0.49884177  0.25339571  1
  Ir  Ir142  1  0.66373440  0.33403157  0.49893336  1
  Ir  Ir143  1  0.66456041  0.00480762  0.49861301  1
  O  O144  1  0.30441684  0.31993690  0.12767896  1
  O  O145  1  0.31862803  0.31173932  0.62260140  1
  O  O146  1  0.30837064  0.66471940  0.11829145  1
  O  O147  1  0.31065316  0.66091298  0.63133189  1
  O  O148  1  0.29962980  1.00297539  0.12797297  1
  O  O149  1  0.31744469  0.98766404  0.63175482  1
  O  O150  1  0.65184791  0.33204286  0.12131379  1
  O  O151  1  0.62899632  0.33097505  0.62334974  1
  O  O152  1  0.64963052  0.66718872  0.12537187  1
  O  O153  1  0.63860878  0.64753060  0.62305965  1
  O  O154  1  0.63458536  1.00292373  0.13251594  1
  O  O155  1  0.63257164  0.99898900  0.61912609  1
  O  O156  1  0.98178066  0.31345684  0.13057581  1
  O  O157  1  0.97773585  0.31364683  0.62072527  1
  O  O158  1  0.98226029  0.66798123  0.12462363  1
  O  O159  1  0.97820018  0.65415719  0.62846865  1
  O  O160  1  0.98557862  1.00410953  0.12724535  1
  O  O161  1  0.96869693  0.98980268  0.63129726  1
  O  O162  1  0.19986423  0.14908597  0.12619284  1
  O  O163  1  0.19375314  0.16192371  0.62218791  1
  O  O164  1  0.19248134  0.48552983  0.13369364  1
  O  O165  1  0.20847173  0.49034491  0.62584430  1
  O  O166  1  0.19213365  0.84421173  0.12209611  1
  O  O167  1  0.19843239  0.82996221  0.63410825  1
  O  O168  1  0.52364395  0.14859837  0.12706410  1
  O  O169  1  0.51736448  0.14188657  0.62271185  1
  O  O170  1  0.52535451  0.49932970  0.12809851  1
  O  O171  1  0.53354092  0.48833396  0.62295146  1
  O  O172  1  0.52153466  0.83571497  0.11585936  1
  O  O173  1  0.53123806  0.84072471  0.63518510  1
  O  O174  1  0.86262354  0.16252045  0.12674807  1
  O  O175  1  0.85740075  0.15916254  0.62615524  1
  O  O176  1  0.84738840  0.49514894  0.13106084  1
  O  O177  1  0.86697169  0.48849328  0.62492307  1
  O  O178  1  0.84093870  0.83875556  0.12931618  1
  O  O179  1  0.86765685  0.83778597  0.62948550  1
  O  O180  1  0.13290151  0.16731544  0.37294586  1
  O  O181  1  0.14569789  0.17079462  0.87918068  1
  O  O182  1  0.15085243  0.50577354  0.36841238  1
  O  O183  1  0.12806252  0.50090643  0.87406952  1
  O  O184  1  0.15053411  0.83454989  0.36360309  1
  O  O185  1  0.13763063  0.84100220  0.87721425  1
  O  O186  1  0.46378672  0.17497591  0.36756918  1
  O  O187  1  0.47839164  0.17601650  0.88446963  1
  O  O188  1  0.46928039  0.50562256  0.37694504  1
  O  O189  1  0.48226168  0.50590954  0.87386799  1
  O  O190  1  0.48142681  0.85423023  0.37344226  1
  O  O191  1  0.47484603  0.84613383  0.87541276  1
  O  O192  1  0.80132714  0.17570154  0.37648693  1
  O  O193  1  0.80274964  0.17294741  0.87527217  1
  O  O194  1  0.80522821  0.50163097  0.37240353  1
  O  O195  1  0.81676420  0.48962676  0.87206335  1
  O  O196  1  0.81450875  0.83508130  0.36922970  1
  O  O197  1  0.78775733  0.85539408  0.87274906  1
  O  O198  1  0.01275436  0.01669708  0.36985114  1
  O  O199  1  0.04079547  0.01421531  0.87526278  1
  O  O200  1  0.01618450  0.32236954  0.38090623  1
  O  O201  1  0.01763243  0.33268309  0.86610564  1
  O  O202  1  0.01908312  0.66871097  0.37099013  1
  O  O203  1  0.02788205  0.68895568  0.87520197  1
  O  O204  1  0.36331066  0.01270981  0.36701381  1
  O  O205  1  0.36255605  0.00428387  0.87180101  1
  O  O206  1  0.37069493  0.34213147  0.37362151  1
  O  O207  1  0.37111864  0.32640657  0.87550725  1
  O  O208  1  0.37134943  0.67205234  0.37477928  1
  O  O209  1  0.36816980  0.66916044  0.87342931  1
  O  O210  1  0.68969474  0.01379729  0.37682624  1
  O  O211  1  0.69096731  0.02189554  0.87489172  1
  O  O212  1  0.69656402  0.34513992  0.38099054  1
  O  O213  1  0.68032376  0.32050121  0.87329930  1
  O  O214  1  0.68614332  0.65971206  0.36889005  1
  O  O215  1  0.67744699  0.67135805  0.87956835  1
  O  O216  1  0.07574512  0.09906092  0.03098378  1
  O  O217  1  0.06489494  0.10441336  0.51640248  1
  O  O218  1  0.08441499  0.41405258  0.02597854  1
  O  O219  1  0.06341995  0.42145611  0.52147442  1
  O  O220  1  0.08288514  0.76776259  0.02006725  1
  O  O221  1  0.07339903  0.76289256  0.53343262  1
  O  O222  1  0.40632575  0.09637605  0.03169622  1
  O  O223  1  0.38836463  0.11017914  0.51328073  1
  O  O224  1  0.41735380  0.42665169  0.01474622  1
  O  O225  1  0.40917660  0.43495492  0.52986751  1
  O  O226  1  0.40772355  0.76138823  0.01480378  1
  O  O227  1  0.39783639  0.77490095  0.52972436  1
  O  O228  1  0.73667406  0.10443424  0.00897946  1
  O  O229  1  0.73113921  0.10133631  0.51327884  1
  O  O230  1  0.73613899  0.41675461  0.00953131  1
  O  O231  1  0.72571636  0.42826735  0.52154245  1
  O  O232  1  0.72960483  0.75910849  0.00568194  1
  O  O233  1  0.72791636  0.77234925  0.52637036  1
  O  O234  1  0.10317044  0.25385232  0.03110087  1
  O  O235  1  0.09106555  0.25590892  0.52135262  1
  O  O236  1  0.10554712  0.60119792  0.02817395  1
  O  O237  1  0.10258440  0.59422151  0.52841909  1
  O  O238  1  0.10625101  0.93397757  0.01520134  1
  O  O239  1  0.08822610  0.92335686  0.51972503  1
  O  O240  1  0.42920986  0.25198673  0.02762147  1
  O  O241  1  0.44564773  0.27437243  0.51312959  1
  O  O242  1  0.43582439  0.60074430  0.00539575  1
  O  O243  1  0.43822131  0.58967481  0.52075398  1
  O  O244  1  0.43792664  0.93251156  0.01684943  1
  O  O245  1  0.44216373  0.94552642  0.51475287  1
  O  O246  1  0.75985383  0.25928401  0.01713471  1
  O  O247  1  0.76112857  0.26686930  0.50884701  1
  O  O248  1  0.75385518  0.59576266  0.01123272  1
  O  O249  1  0.75288623  0.58579191  0.52041950  1
  O  O250  1  0.76173790  0.93700343  0.01333485  1
  O  O251  1  0.75654029  0.93967757  0.53083055  1
  O  O252  1  0.24045981  0.07428712  0.27493632  1
  O  O253  1  0.23313301  0.06493777  0.77366424  1
  O  O254  1  0.24322375  0.41011931  0.27221546  1
  O  O255  1  0.24273745  0.40459129  0.77189536  1
  O  O256  1  0.23999614  0.74890128  0.25419304  1
  O  O257  1  0.23968616  0.73812623  0.76395565  1
  O  O258  1  0.56820854  0.07278871  0.27754439  1
  O  O259  1  0.55672389  0.05924656  0.77125038  1
  O  O260  1  0.57086715  0.40757048  0.28199522  1
  O  O261  1  0.55902739  0.39386063  0.76672561  1
  O  O262  1  0.57560831  0.73065029  0.27044647  1
  O  O263  1  0.56125629  0.74036023  0.78014846  1
  O  O264  1  0.90989299  0.07906681  0.27285243  1
  O  O265  1  0.88986548  0.07324532  0.76824569  1
  O  O266  1  0.89596959  0.40294184  0.27427619  1
  O  O267  1  0.91252626  0.39721602  0.76625347  1
  O  O268  1  0.90595631  0.75234063  0.25823027  1
  O  O269  1  0.91123058  0.74932703  0.77642043  1
  O  O270  1  0.26342693  0.22818489  0.27200294  1
  O  O271  1  0.25743091  0.23006905  0.75811633  1
  O  O272  1  0.26610941  0.56704211  0.27227921  1
  O  O273  1  0.27126974  0.57714779  0.76458258  1
  O  O274  1  0.26038177  0.91426525  0.26722470  1
  O  O275  1  0.25855863  0.90852862  0.77614242  1
  O  O276  1  0.58799667  0.23491463  0.27775008  1
  O  O277  1  0.59625824  0.23509834  0.77450240  1
  O  O278  1  0.59886201  0.56779881  0.27684228  1
  O  O279  1  0.58646806  0.57004630  0.76838924  1
  O  O280  1  0.59018682  0.91821876  0.27050673  1
  O  O281  1  0.59404263  0.89988322  0.77778871  1
  O  O282  1  0.92501223  0.23219012  0.27555632  1
  O  O283  1  0.92792120  0.23176984  0.75524618  1
  O  O284  1  0.92073296  0.56618370  0.26292315  1
  O  O285  1  0.93889591  0.56129029  0.77083555  1
  O  O286  1  0.92480239  0.91198581  0.26571839  1
  O  O287  1  0.92209529  0.91481269  0.79517011  1
  O  O288  1  0.26105025  0.22971593  0.47643967  1
  O  O289  1  0.26102970  0.22908513  0.99264294  1
  O  O290  1  0.27872726  0.56380762  0.48237003  1
  O  O291  1  0.26885332  0.58033409  0.98173632  1
  O  O292  1  0.26607508  0.90520540  0.49376213  1
  O  O293  1  0.25721205  0.90748389  0.97862191  1
  O  O294  1  0.60024383  0.23987796  0.46720858  1
  O  O295  1  0.59235829  0.23321913  0.97777921  1
  O  O296  1  0.59242607  0.56106371  0.47026341  1
  O  O297  1  0.59133779  0.57457655  0.98036723  1
  O  O298  1  0.60246009  0.91100752  0.48546659  1
  O  O299  1  0.59162328  0.90171939  0.97031809  1
  O  O300  1  0.92811111  0.22991221  0.47730668  1
  O  O301  1  0.92684119  0.22953122  0.99299410  1
  O  O302  1  0.93511810  0.56284575  0.49210367  1
  O  O303  1  0.93418932  0.56690323  0.97298541  1
  O  O304  1  0.92342115  0.91151495  0.48476011  1
  O  O305  1  0.93002911  0.90937353  0.97539921  1
  O  O306  1  0.23283039  0.07775208  0.47865258  1
  O  O307  1  0.23036890  0.06725781  0.97793375  1
  O  O308  1  0.24729293  0.40718817  0.47066268  1
  O  O309  1  0.24528749  0.40809327  0.98919512  1
  O  O310  1  0.23349384  0.73229695  0.49541041  1
  O  O311  1  0.23694735  0.73748251  0.99047860  1
  O  O312  1  0.57222419  0.07205269  0.46561810  1
  O  O313  1  0.55991384  0.06841472  0.98083780  1
  O  O314  1  0.56685373  0.39853569  0.47490273  1
  O  O315  1  0.56857800  0.39697448  0.97737406  1
  O  O316  1  0.56166498  0.73255231  0.47250708  1
  O  O317  1  0.56685379  0.73669193  0.97290422  1
  O  O318  1  0.89710650  0.07834504  0.49267510  1
  O  O319  1  0.89650639  0.07290451  0.97549871  1
  O  O320  1  0.90215100  0.38897485  0.47560250  1
  O  O321  1  0.91593332  0.40796657  0.98552758  1
  O  O322  1  0.90448494  0.73996622  0.48684413  1
  O  O323  1  0.91024548  0.74931132  0.97732669  1
  O  O324  1  0.10135323  0.25348756  0.22392522  1
  O  O325  1  0.08858723  0.25145803  0.72247649  1
  O  O326  1  0.10869333  0.59229196  0.22377005  1
  O  O327  1  0.10201552  0.59562377  0.71875164  1
  O  O328  1  0.09611214  0.93566123  0.22457345  1
  O  O329  1  0.09473221  0.91951462  0.73438285  1
  O  O330  1  0.42752449  0.25143704  0.22432898  1
  O  O331  1  0.43556290  0.26284180  0.72519963  1
  O  O332  1  0.43598461  0.58945859  0.23761926  1
  O  O333  1  0.43152971  0.59631018  0.73318372  1
  O  O334  1  0.42675743  0.94103425  0.22611787  1
  O  O335  1  0.43001546  0.93197098  0.73099414  1
  O  O336  1  0.76374322  0.25620175  0.24293417  1
  O  O337  1  0.75768901  0.26523565  0.73538370  1
  O  O338  1  0.76241669  0.59259867  0.23151414  1
  O  O339  1  0.75419462  0.58863976  0.73120003  1
  O  O340  1  0.75380564  0.93142731  0.23616611  1
  O  O341  1  0.76007161  0.93956731  0.71614882  1
  O  O342  1  0.07034652  0.09795583  0.22612571  1
  O  O343  1  0.07005095  0.09860435  0.72343986  1
  O  O344  1  0.08394676  0.42322280  0.23384359  1
  O  O345  1  0.06229616  0.42245921  0.72447584  1
  O  O346  1  0.08753725  0.76247316  0.22260593  1
  O  O347  1  0.08045413  0.76657586  0.72031617  1
  O  O348  1  0.40031610  0.09687493  0.22132679  1
  O  O349  1  0.39426428  0.09224155  0.72500495  1
  O  O350  1  0.41340357  0.42947206  0.23524804  1
  O  O351  1  0.40835888  0.43288437  0.71844906  1
  O  O352  1  0.41093415  0.75926398  0.23208124  1
  O  O353  1  0.40100609  0.77052408  0.73006021  1
  O  O354  1  0.73470108  0.09715114  0.24066608  1
  O  O355  1  0.73518067  0.10712088  0.73656958  1
  O  O356  1  0.73743954  0.43123397  0.24347048  1
  O  O357  1  0.72387804  0.42424361  0.72412382  1
  O  O358  1  0.73909637  0.75981374  0.23267846  1
  O  O359  1  0.72420427  0.77270533  0.72999472  1
