# generated using pymatgen
data_BaLaInIrO6
_symmetry_space_group_name_H-M   'P 1'
_cell_length_a   17.52338702
_cell_length_b   17.55321138
_cell_length_c   16.50103251
_cell_angle_alpha   89.91432490
_cell_angle_beta   90.00854083
_cell_angle_gamma   90.01936302
_symmetry_Int_Tables_number   1
_chemical_formula_structural   BaLaInIrO6
_chemical_formula_sum   'Ba36 La36 In36 Ir36 O216'
_cell_volume   5075.57489153
_cell_formula_units_Z   36
loop_
 _symmetry_equiv_pos_site_id
 _symmetry_equiv_pos_as_xyz
  1  'x, y, z'
loop_
 _atom_site_type_symbol
 _atom_site_label
 _atom_site_symmetry_multiplicity
 _atom_site_fract_x
 _atom_site_fract_y
 _atom_site_fract_z
 _atom_site_occupancy
  Ba  Ba0  1  0.50384155  0.33972944  0.12593455  1
  Ba  Ba1  1  1.00056272  0.84148239  0.62969946  1
  Ba  Ba2  1  0.66871673  0.51241944  0.13042518  1
  Ba  Ba3  1  0.33010143  0.49515387  0.87943483  1
  Ba  Ba4  1  0.16703262  0.67332817  0.12162128  1
  Ba  Ba5  1  0.33647202  0.16148446  0.88039584  1
  Ba  Ba6  1  0.82499513  0.67974654  0.12557558  1
  Ba  Ba7  1  -0.00387367  0.82544775  0.37212970  1
  Ba  Ba8  1  0.66981170  0.17569309  0.61789849  1
  Ba  Ba9  1  0.83748456  0.99044753  0.37416581  1
  Ba  Ba10  1  0.99570278  0.51052890  0.62864500  1
  Ba  Ba11  1  0.16784897  0.31577833  0.37109505  1
  Ba  Ba12  1  0.66376303  0.84143061  0.11909561  1
  Ba  Ba13  1  0.49805874  0.34146555  0.62475863  1
  Ba  Ba14  1  0.16902732  0.99422095  0.37587340  1
  Ba  Ba15  1  0.49892624  0.99386669  0.37621038  1
  Ba  Ba16  1  0.50441870  0.65748435  0.87866719  1
  Ba  Ba17  1  0.50555717  0.32799967  0.37155713  1
  Ba  Ba18  1  0.33337819  0.48765262  0.37325987  1
  Ba  Ba19  1  0.16761104  0.65905359  0.87472352  1
  Ba  Ba20  1  0.50400062  0.00470194  0.12270368  1
  Ba  Ba21  1  1.00067254  0.50791040  0.12701199  1
  Ba  Ba22  1  0.33365532  0.17534029  0.62800443  1
  Ba  Ba23  1  0.33680782  0.51141090  0.12650120  1
  Ba  Ba24  1  0.83538436  0.32656056  0.87063549  1
  Ba  Ba25  1  0.84035002  0.32647235  0.37037515  1
  Ba  Ba26  1  0.66194373  0.82501492  0.87894131  1
  Ba  Ba27  1  0.66821779  0.49383957  0.37746318  1
  Ba  Ba28  1  0.66968292  0.15877919  0.37281829  1
  Ba  Ba29  1  0.49892107  0.67455957  0.12569289  1
  Ba  Ba30  1  0.82947345  0.67294323  0.62822167  1
  Ba  Ba31  1  0.33494701  0.82524768  0.87229024  1
  Ba  Ba32  1  0.66773077  0.50776867  0.62568416  1
  Ba  Ba33  1  0.49714385  0.00988540  0.62610050  1
  Ba  Ba34  1  -0.00247671  0.48817969  0.87768385  1
  Ba  Ba35  1  0.67071589  0.17349338  0.12519627  1
  La  La36  1  0.50245472  0.65280473  0.37208735  1
  La  La37  1  0.16959889  0.65282939  0.37905426  1
  La  La38  1  0.82593747  0.00952140  0.12243335  1
  La  La39  1  -0.00461895  0.81464409  0.87828046  1
  La  La40  1  0.17031481  0.98787025  0.87385794  1
  La  La41  1  0.15871597  0.67990669  0.62918750  1
  La  La42  1  0.82561219  0.35246195  0.11734211  1
  La  La43  1  -0.00473679  0.14605529  0.37055057  1
  La  La44  1  -0.00589344  0.48559058  0.37486228  1
  La  La45  1  0.32527801  0.81881223  0.37606805  1
  La  La46  1  0.83077097  0.65094382  0.87931665  1
  La  La47  1  1.00366252  0.18191138  0.11822415  1
  La  La48  1  0.50435699  0.98388626  0.87485149  1
  La  La49  1  0.83483863  0.65366367  0.37453085  1
  La  La50  1  0.34286219  0.83978418  0.12502733  1
  La  La51  1  1.00768696  0.18133557  0.62028637  1
  La  La52  1  0.33435716  0.84944858  0.62461432  1
  La  La53  1  0.50307104  0.32213309  0.87490388  1
  La  La54  1  0.34134727  0.16765113  0.38108068  1
  La  La55  1  0.16649730  0.01198014  0.11778026  1
  La  La56  1  0.82810397  0.01033841  0.62542141  1
  La  La57  1  0.66805433  0.84123583  0.62585965  1
  La  La58  1  0.66570055  0.82987774  0.37181036  1
  La  La59  1  0.33952257  0.17411157  0.12974853  1
  La  La60  1  0.83032127  0.34978931  0.61723345  1
  La  La61  1  0.83546107  0.98377168  0.87617276  1
  La  La62  1  0.49958000  0.68229823  0.62454354  1
  La  La63  1  0.16346405  0.34863891  0.62563558  1
  La  La64  1  -0.00450540  0.14770607  0.87352836  1
  La  La65  1  0.65837660  0.15134257  0.87859366  1
  La  La66  1  0.16744307  0.01786184  0.62511917  1
  La  La67  1  0.99938973  0.84904750  0.12315613  1
  La  La68  1  0.66165713  0.48536157  0.87505817  1
  La  La69  1  0.16953645  0.32237260  0.87878807  1
  La  La70  1  0.33890003  0.51714960  0.62667201  1
  La  La71  1  0.16644087  0.34924387  0.12484842  1
  In  In72  1  0.33252539  0.32990107  0.24883290  1
  In  In73  1  0.66981244  -0.00382149  0.25052536  1
  In  In74  1  0.16229559  0.16757970  0.75524643  1
  In  In75  1  0.33272838  0.00157691  0.75404486  1
  In  In76  1  0.16540624  0.50093406  0.74926583  1
  In  In77  1  0.16446824  0.49918572  0.25383685  1
  In  In78  1  0.83260164  0.83130542  0.50051452  1
  In  In79  1  0.33196883  0.66784820  0.25416748  1
  In  In80  1  0.50258517  0.16381215  0.24927711  1
  In  In81  1  0.33402649  0.33244132  0.00141270  1
  In  In82  1  0.33353316  0.66880709  -0.00241389  1
  In  In83  1  0.66690172  -0.00306851  0.50081502  1
  In  In84  1  0.49917196  0.50206921  0.50445231  1
  In  In85  1  0.33240335  0.33549530  0.75335257  1
  In  In86  1  0.66974057  0.32992132  0.74795402  1
  In  In87  1  0.16609695  0.83361762  0.24932036  1
  In  In88  1  0.16640863  0.83605466  0.50092514  1
  In  In89  1  0.66444805  0.67013572  0.49890614  1
  In  In90  1  0.00082772  -0.00212839  0.50469916  1
  In  In91  1  0.67210065  0.33255461  0.25012645  1
  In  In92  1  0.32952270  0.33493185  0.50265950  1
  In  In93  1  0.00009409  0.66618203  0.49914321  1
  In  In94  1  0.84024692  0.16812147  0.49890718  1
  In  In95  1  0.50167999  0.16660512  0.75067500  1
  In  In96  1  0.33052403  -0.00111712  0.25003263  1
  In  In97  1  0.16532950  0.83530975  0.75103236  1
  In  In98  1  0.83631885  0.50409336  0.24799949  1
  In  In99  1  0.83538678  0.16780766  0.74756532  1
  In  In100  1  0.83361028  0.16793640  -0.00487579  1
  In  In101  1  0.66500971  0.66782372  0.75293451  1
  In  In102  1  0.83236091  0.50051954  0.75191064  1
  In  In103  1  0.66775660  -0.00182518  0.74982327  1
  In  In104  1  0.16561452  0.83482033  0.00169436  1
  In  In105  1  0.00132786  0.32895202  0.24687980  1
  In  In106  1  0.50121002  0.50079334  0.24889260  1
  In  In107  1  0.16311666  0.50037839  -0.00130805  1
  Ir  Ir108  1  0.16334280  0.15846474  0.24329506  1
  Ir  Ir109  1  0.66931330  0.33357170  0.50007663  1
  Ir  Ir110  1  0.50167844  0.16452121  0.00094890  1
  Ir  Ir111  1  0.16632468  0.50128761  0.50307692  1
  Ir  Ir112  1  0.49814673  0.50155501  0.75418367  1
  Ir  Ir113  1  0.50063346  0.16853490  0.50064854  1
  Ir  Ir114  1  0.16168240  0.16461506  0.00153563  1
  Ir  Ir115  1  0.16509266  0.16397670  0.49900319  1
  Ir  Ir116  1  0.66930859  0.67678178  0.25248736  1
  Ir  Ir117  1  0.83615300  0.83399303  0.75450835  1
  Ir  Ir118  1  0.83524745  0.83309973  0.24492845  1
  Ir  Ir119  1  0.50402722  0.49956478  -0.00334541  1
  Ir  Ir120  1  0.33062164  0.66870409  0.50480699  1
  Ir  Ir121  1  -0.00858887  0.66868519  0.00302090  1
  Ir  Ir122  1  0.66932834  0.66831051  0.00174025  1
  Ir  Ir123  1  0.49946490  0.83704638  0.00242232  1
  Ir  Ir124  1  -0.00090865  0.67073612  0.24779789  1
  Ir  Ir125  1  0.83662374  0.49757454  0.49788430  1
  Ir  Ir126  1  -0.00191868  -0.00024085  0.75376333  1
  Ir  Ir127  1  0.66875821  0.33490267  -0.00101736  1
  Ir  Ir128  1  0.33366479  0.00144374  0.49998067  1
  Ir  Ir129  1  -0.00067394  0.32858073  -0.00235462  1
  Ir  Ir130  1  0.49140352  0.83108335  0.49796633  1
  Ir  Ir131  1  0.00581275  0.33392544  0.50374187  1
  Ir  Ir132  1  -0.00353050  0.66888604  0.75496476  1
  Ir  Ir133  1  0.83079775  0.50131259  -0.00130827  1
  Ir  Ir134  1  0.00175702  0.33035231  0.74802224  1
  Ir  Ir135  1  0.49786434  0.83086408  0.74667981  1
  Ir  Ir136  1  -0.00224864  0.00055784  0.23685469  1
  Ir  Ir137  1  0.83511995  0.83395767  -0.00306388  1
  Ir  Ir138  1  0.66978007  0.00008674  -0.00155618  1
  Ir  Ir139  1  0.33436822  0.66694945  0.74396578  1
  Ir  Ir140  1  0.49636363  0.83346347  0.25418271  1
  Ir  Ir141  1  0.84362920  0.16290555  0.24363859  1
  Ir  Ir142  1  0.33222796  0.00097945  -0.00129623  1
  Ir  Ir143  1  -0.00096597  -0.00075552  -0.00313869  1
  O  O144  1  0.29889210  0.31141665  0.12268727  1
  O  O145  1  0.29828942  0.32724347  0.62643514  1
  O  O146  1  0.32087868  0.67899505  0.12675175  1
  O  O147  1  0.29709152  0.65904362  0.62329067  1
  O  O148  1  0.30244484  0.98811877  0.11678276  1
  O  O149  1  0.30655781  0.98870332  0.62184862  1
  O  O150  1  0.65602080  0.33208580  0.11695575  1
  O  O151  1  0.64968808  0.33537406  0.61872110  1
  O  O152  1  0.64939111  0.66837834  0.12779177  1
  O  O153  1  0.63938088  0.66926210  0.62651553  1
  O  O154  1  0.65642679  0.99838191  0.11911724  1
  O  O155  1  0.64315846  0.97845835  0.62605653  1
  O  O156  1  0.96469629  0.31867130  0.11649645  1
  O  O157  1  0.97063527  0.31885144  0.62618098  1
  O  O158  1  0.97015409  0.66308698  0.12583678  1
  O  O159  1  0.97864526  0.66825512  0.63441709  1
  O  O160  1  0.96225548  0.99039936  0.11541260  1
  O  O161  1  0.96406728  0.99752856  0.63661327  1
  O  O162  1  0.19691309  0.15199159  0.12193349  1
  O  O163  1  0.18055729  0.15898621  0.62163659  1
  O  O164  1  0.18122251  0.48993359  0.12482455  1
  O  O165  1  0.20017882  0.49051902  0.62165546  1
  O  O166  1  0.20309678  0.83525435  0.12531748  1
  O  O167  1  0.19838225  0.82067185  0.62617038  1
  O  O168  1  0.52152462  0.15986335  0.11725138  1
  O  O169  1  0.51979812  0.16840363  0.62043930  1
  O  O170  1  0.52116804  0.50591110  0.11488139  1
  O  O171  1  0.51870044  0.50605618  0.63612581  1
  O  O172  1  0.51682335  0.82979051  0.13007758  1
  O  O173  1  0.52603988  0.82197604  0.62203337  1
  O  O174  1  0.86792670  0.15010503  0.12166850  1
  O  O175  1  0.87491321  0.15153961  0.62471483  1
  O  O176  1  0.84998205  0.49920620  0.11834418  1
  O  O177  1  0.84427997  0.49525102  0.62056166  1
  O  O178  1  0.86484218  0.83113061  0.11918298  1
  O  O179  1  0.85419429  0.82492329  0.63697064  1
  O  O180  1  0.13237928  0.15992277  0.36890353  1
  O  O181  1  0.12698578  0.17576564  0.88344320  1
  O  O182  1  0.12929685  0.51239519  0.38482694  1
  O  O183  1  0.14391444  0.50458587  0.87351259  1
  O  O184  1  0.14374995  0.84293123  0.37576248  1
  O  O185  1  0.13038085  0.84954232  0.87630750  1
  O  O186  1  0.47641884  0.16870467  0.37995865  1
  O  O187  1  0.48756827  0.17747000  0.88311912  1
  O  O188  1  0.48222831  0.51282740  0.37851264  1
  O  O189  1  0.48080483  0.49411627  0.87461261  1
  O  O190  1  0.46215648  0.83710833  0.37612025  1
  O  O191  1  0.48048421  0.84765908  0.87608581  1
  O  O192  1  0.82565126  0.17016045  0.36427125  1
  O  O193  1  0.79638606  0.17154757  0.87239058  1
  O  O194  1  0.82515465  0.50043273  0.37835102  1
  O  O195  1  0.80336636  0.50369943  0.88070761  1
  O  O196  1  0.80647326  0.83652192  0.36488081  1
  O  O197  1  0.81133327  0.84585905  0.87543558  1
  O  O198  1  0.01958420  0.00691067  0.35805971  1
  O  O199  1  0.03519711  0.00891948  0.87543377  1
  O  O200  1  0.02037991  0.34832471  0.38267108  1
  O  O201  1  0.03294645  0.33514452  0.87118504  1
  O  O202  1  0.03130807  0.67405489  0.36720772  1
  O  O203  1  0.01766083  0.67776918  0.88026818  1
  O  O204  1  0.34472642  0.02376688  0.38072681  1
  O  O205  1  0.36788545  0.00448304  0.88262365  1
  O  O206  1  0.34849291  0.32067598  0.37742301  1
  O  O207  1  0.36832404  0.33620725  0.87987383  1
  O  O208  1  0.36619564  0.67894194  0.38805757  1
  O  O209  1  0.35618977  0.66907796  0.86335496  1
  O  O210  1  0.68673317  -0.02240614  0.37614984  1
  O  O211  1  0.69749678  0.00546397  0.87830250  1
  O  O212  1  0.69036531  0.33123155  0.38213141  1
  O  O213  1  0.68445439  0.34263981  0.88015146  1
  O  O214  1  0.69654057  0.68833149  0.37095742  1
  O  O215  1  0.69225649  0.67237498  0.88199622  1
  O  O216  1  0.06659896  0.09340680  0.02615841  1
  O  O217  1  0.07180997  0.09974250  0.52226384  1
  O  O218  1  0.06830889  0.41564796  0.02096742  1
  O  O219  1  0.07543546  0.42984470  0.52849277  1
  O  O220  1  0.05693425  0.76473386  0.01978393  1
  O  O221  1  0.07880901  0.75364006  0.52632864  1
  O  O222  1  0.40569466  0.09460806  0.02705533  1
  O  O223  1  0.40283676  0.09970353  0.51485852  1
  O  O224  1  0.41549021  0.42864702  0.01843058  1
  O  O225  1  0.39972250  0.43417645  0.52590944  1
  O  O226  1  0.40945869  0.76751063  0.01900504  1
  O  O227  1  0.39367194  0.76618428  0.52946100  1
  O  O228  1  0.74429464  0.08620425  0.01731880  1
  O  O229  1  0.75111978  0.08642700  0.51673330  1
  O  O230  1  0.73878280  0.42800436  0.02162271  1
  O  O231  1  0.74382886  0.42313739  0.52248675  1
  O  O232  1  0.74001783  0.76470030  0.01648187  1
  O  O233  1  0.72404948  0.77277390  0.51579092  1
  O  O234  1  0.09457189  0.26144722  0.02823180  1
  O  O235  1  0.10164368  0.26544362  0.52510581  1
  O  O236  1  0.07903957  0.59688665  0.01587341  1
  O  O237  1  0.10405949  0.59563376  0.52649927  1
  O  O238  1  0.08953318  0.93196746  0.02663155  1
  O  O239  1  0.10166648  0.93670531  0.53043744  1
  O  O240  1  0.42593663  0.24864550  0.02250199  1
  O  O241  1  0.42746687  0.25515781  0.51408792  1
  O  O242  1  0.43207949  0.58882203  0.00868168  1
  O  O243  1  0.42201044  0.60347215  0.53413764  1
  O  O244  1  0.41953640  0.92497570  0.02536390  1
  O  O245  1  0.42509971  0.92865431  0.52023059  1
  O  O246  1  0.76428185  0.26851326  0.02095607  1
  O  O247  1  0.76739612  0.26643688  0.51961432  1
  O  O248  1  0.76607283  0.60071547  0.00971946  1
  O  O249  1  0.76811104  0.59357670  0.50015848  1
  O  O250  1  0.77049747  0.93297565  0.01674388  1
  O  O251  1  0.76171918  0.92360519  0.53671035  1
  O  O252  1  0.22104583  0.06098732  0.24748845  1
  O  O253  1  0.22690413  0.06657167  0.76800223  1
  O  O254  1  0.23533716  0.39935508  0.25859511  1
  O  O255  1  0.23100741  0.40070066  0.77563509  1
  O  O256  1  0.23597427  0.73729120  0.28705440  1
  O  O257  1  0.24272878  0.73453605  0.76053657  1
  O  O258  1  0.57861852  0.07143551  0.26510090  1
  O  O259  1  0.57402189  0.06968353  0.78269633  1
  O  O260  1  0.58566650  0.41689049  0.26082391  1
  O  O261  1  0.56354940  0.40539203  0.77381793  1
  O  O262  1  0.57060579  0.74313265  0.28164564  1
  O  O263  1  0.56606222  0.74056056  0.76090144  1
  O  O264  1  0.90903136  0.06969980  0.26304699  1
  O  O265  1  0.90669952  0.06426070  0.78401846  1
  O  O266  1  0.91788932  0.41480672  0.26316271  1
  O  O267  1  0.91170501  0.40280417  0.75727361  1
  O  O268  1  0.90091223  0.73603572  0.27167129  1
  O  O269  1  0.90187460  0.73873773  0.78382166  1
  O  O270  1  0.25949438  0.21511743  0.26893991  1
  O  O271  1  0.25122688  0.24325863  0.78103173  1
  O  O272  1  0.25146642  0.57852205  0.27900576  1
  O  O273  1  0.26858503  0.57440327  0.75668630  1
  O  O274  1  0.26996706  0.89851762  0.27445956  1
  O  O275  1  0.25544951  0.91097982  0.77237225  1
  O  O276  1  0.59571675  0.24159784  0.26043504  1
  O  O277  1  0.60473367  0.23231886  0.77531573  1
  O  O278  1  0.59800843  0.59049291  0.27171216  1
  O  O279  1  0.59576667  0.56363842  0.77753647  1
  O  O280  1  0.59207166  0.89658217  0.26793620  1
  O  O281  1  0.58586911  0.90392415  0.76776495  1
  O  O282  1  0.94157299  0.22460190  0.26233296  1
  O  O283  1  0.94065835  0.23411842  0.77370247  1
  O  O284  1  0.93094741  0.58028574  0.27988545  1
  O  O285  1  0.92436313  0.58110238  0.77413583  1
  O  O286  1  0.93341879  0.89982984  0.25250917  1
  O  O287  1  0.93394495  0.90154507  0.78196847  1
  O  O288  1  0.25907333  0.22682829  0.47832760  1
  O  O289  1  0.24695423  0.23554693  0.97834789  1
  O  O290  1  0.26022528  0.57396335  0.47837785  1
  O  O291  1  0.25634079  0.57739297  0.99026239  1
  O  O292  1  0.27432854  0.90292457  0.48315714  1
  O  O293  1  0.25550865  0.92017232  0.97079153  1
  O  O294  1  0.59535272  0.23979248  0.47941221  1
  O  O295  1  0.59771935  0.23895136  0.97402129  1
  O  O296  1  0.58779712  0.58201402  0.47981857  1
  O  O297  1  0.60384231  0.56894402  0.97698432  1
  O  O298  1  0.58825475  0.89097485  0.47876631  1
  O  O299  1  0.58583740  0.91776617  0.97754069  1
  O  O300  1  0.94629987  0.23792472  0.48002787  1
  O  O301  1  0.93876798  0.23110477  0.97500053  1
  O  O302  1  0.93200204  0.56430486  0.47574860  1
  O  O303  1  0.91790817  0.57826565  0.97294333  1
  O  O304  1  0.92716189  0.90499422  0.48648447  1
  O  O305  1  0.93182892  0.90277604  0.97083880  1
  O  O306  1  0.23037573  0.06445774  0.49823967  1
  O  O307  1  0.23092730  0.06863116  0.97634196  1
  O  O308  1  0.22824396  0.40850922  0.48219647  1
  O  O309  1  0.23094705  0.39622397  0.98295159  1
  O  O310  1  0.23996331  0.73354017  0.47530178  1
  O  O311  1  0.24102033  0.74647772  0.97794974  1
  O  O312  1  0.57358061  0.07930825  0.48612459  1
  O  O313  1  0.57606655  0.07206757  0.97088793  1
  O  O314  1  0.58006290  0.40633451  0.48658168  1
  O  O315  1  0.57452124  0.40481658  0.97217076  1
  O  O316  1  0.55110525  0.73550585  0.48058511  1
  O  O317  1  0.57431214  0.74336619  0.98610429  1
  O  O318  1  0.91913205  0.07911952  0.47203853  1
  O  O319  1  0.90823902  0.06686704  0.96779504  1
  O  O320  1  0.90725793  0.40048333  0.49084961  1
  O  O321  1  0.89924030  0.40166236  0.98651475  1
  O  O322  1  0.89722255  0.72964041  0.47646873  1
  O  O323  1  0.89967171  0.73911805  0.97187158  1
  O  O324  1  0.10151402  0.25447291  0.21832503  1
  O  O325  1  0.09206929  0.26413123  0.72155496  1
  O  O326  1  0.08740174  0.60126003  0.23445592  1
  O  O327  1  0.09116851  0.60098115  0.72808314  1
  O  O328  1  0.08870058  0.93316652  0.21168419  1
  O  O329  1  0.09374859  0.93951551  0.72617625  1
  O  O330  1  0.41926966  0.24873138  0.22454871  1
  O  O331  1  0.43339769  0.26677485  0.74477129  1
  O  O332  1  0.43065650  0.59972890  0.24644619  1
  O  O333  1  0.43176340  0.60071322  0.72433569  1
  O  O334  1  0.42892908  0.92294409  0.23082914  1
  O  O335  1  0.42327748  0.91702937  0.73124423  1
  O  O336  1  0.78073791  0.25640480  0.22116225  1
  O  O337  1  0.77346398  0.26867204  0.71690366  1
  O  O338  1  0.76017266  0.60328769  0.24814706  1
  O  O339  1  0.76321973  0.60016468  0.74681887  1
  O  O340  1  0.77143673  0.92673728  0.22163946  1
  O  O341  1  0.77486460  0.92988665  0.73518550  1
  O  O342  1  0.06321146  0.09678065  0.21461245  1
  O  O343  1  0.05885286  0.09708531  0.73012359  1
  O  O344  1  0.07677146  0.41888269  0.23344324  1
  O  O345  1  0.07209451  0.41822656  0.72262578  1
  O  O346  1  0.06265318  0.76458595  0.21927002  1
  O  O347  1  0.07101840  0.75653868  0.74055108  1
  O  O348  1  0.39897134  0.09456261  0.23175982  1
  O  O349  1  0.40716243  0.09219382  0.73813403  1
  O  O350  1  0.41006548  0.42225325  0.23272468  1
  O  O351  1  0.40078894  0.44154264  0.72847912  1
  O  O352  1  0.40008013  0.77327496  0.24012688  1
  O  O353  1  0.40391174  0.75970790  0.71563122  1
  O  O354  1  0.75395974  0.09110719  0.23022734  1
  O  O355  1  0.74717859  0.08647175  0.72044328  1
  O  O356  1  0.75461509  0.41796273  0.22938398  1
  O  O357  1  0.73511636  0.43017386  0.74442329  1
  O  O358  1  0.73671794  0.77073795  0.23442836  1
  O  O359  1  0.73774486  0.77342747  0.73284701  1
