# generated using pymatgen
data_BaLaInIrO6
_symmetry_space_group_name_H-M   'P 1'
_cell_length_a   17.50784288
_cell_length_b   17.53523997
_cell_length_c   16.48319411
_cell_angle_alpha   89.99969983
_cell_angle_beta   89.97484308
_cell_angle_gamma   90.00145160
_symmetry_Int_Tables_number   1
_chemical_formula_structural   BaLaInIrO6
_chemical_formula_sum   'Ba36 La36 In36 Ir36 O216'
_cell_volume   5060.40976495
_cell_formula_units_Z   36
loop_
 _symmetry_equiv_pos_site_id
 _symmetry_equiv_pos_as_xyz
  1  'x, y, z'
loop_
 _atom_site_type_symbol
 _atom_site_label
 _atom_site_symmetry_multiplicity
 _atom_site_fract_x
 _atom_site_fract_y
 _atom_site_fract_z
 _atom_site_occupancy
  Ba  Ba0  1  0.32966289  0.16290968  0.87668502  1
  Ba  Ba1  1  0.83299110  0.32991217  0.37146607  1
  Ba  Ba2  1  0.00086398  0.82637320  0.37388496  1
  Ba  Ba3  1  0.49548259  0.01565729  0.62532929  1
  Ba  Ba4  1  0.33258529  0.84306250  0.12416137  1
  Ba  Ba5  1  0.33441321  0.82860872  0.37848644  1
  Ba  Ba6  1  0.99968492  0.84271152  0.62676207  1
  Ba  Ba7  1  0.16766093  0.66112698  0.87617409  1
  Ba  Ba8  1  0.33564946  0.82695687  0.87520331  1
  Ba  Ba9  1  0.83220141  0.99237282  0.37716967  1
  Ba  Ba10  1  0.16885196  0.66064727  0.37290945  1
  Ba  Ba11  1  0.83516267  0.64910680  0.87257123  1
  Ba  Ba12  1  0.66364232  0.48774213  0.87070177  1
  Ba  Ba13  1  0.16690550  0.01488020  0.62580902  1
  Ba  Ba14  1  0.83063679  0.67268345  0.62507207  1
  Ba  Ba15  1  0.49412820  0.01287915  0.12385040  1
  Ba  Ba16  1  0.33172176  0.49382271  0.87124110  1
  Ba  Ba17  1  0.32977743  0.49129505  0.37499234  1
  Ba  Ba18  1  0.50602311  0.65246571  0.87608130  1
  Ba  Ba19  1  1.00441742  0.84181986  0.12297555  1
  Ba  Ba20  1  0.33194722  0.15659370  0.37319892  1
  Ba  Ba21  1  0.66917183  0.50486433  0.12668225  1
  Ba  Ba22  1  0.50135844  0.99128345  0.37356451  1
  Ba  Ba23  1  0.66390017  0.48279349  0.37908664  1
  Ba  Ba24  1  0.16713463  0.67368980  0.12594888  1
  Ba  Ba25  1  0.16980166  0.33883053  0.12199338  1
  Ba  Ba26  1  0.00162935  0.16132730  0.37421061  1
  Ba  Ba27  1  0.66727313  0.18053920  0.62195115  1
  Ba  Ba28  1  0.82885676  0.32798600  0.87513856  1
  Ba  Ba29  1  0.50092844  0.65194846  0.37465293  1
  Ba  Ba30  1  0.16602049  0.67335947  0.62508868  1
  Ba  Ba31  1  0.99848376  0.17586039  0.62235920  1
  Ba  Ba32  1  0.00194266  0.49603636  0.37570855  1
  Ba  Ba33  1  0.83516134  0.00929650  0.12546170  1
  Ba  Ba34  1  0.16285944  0.32915959  0.87372753  1
  Ba  Ba35  1  0.99854369  0.50485753  0.12790716  1
  La  La36  1  0.49864498  0.67957088  0.62372894  1
  La  La37  1  -0.00217221  0.81379391  0.87498848  1
  La  La38  1  0.50597669  0.32535356  0.87058225  1
  La  La39  1  0.83641401  0.65156263  0.37843139  1
  La  La40  1  0.83673432  0.34319243  0.12723328  1
  La  La41  1  0.33614821  0.85056111  0.62743427  1
  La  La42  1  0.82933101  0.68021271  0.12845388  1
  La  La43  1  0.67790001  0.84685722  0.62189034  1
  La  La44  1  0.49135823  0.34813391  0.12794850  1
  La  La45  1  0.33684504  0.51753346  0.62263148  1
  La  La46  1  0.67185410  0.84397189  0.12554952  1
  La  La47  1  0.65885204  0.81132825  0.37383927  1
  La  La48  1  0.16981782  0.98930459  0.87367520  1
  La  La49  1  0.16067001  0.01238796  0.12878533  1
  La  La50  1  0.66758756  0.18203131  0.12853690  1
  La  La51  1  0.33824458  0.51593005  0.12685369  1
  La  La52  1  0.49657169  0.67756286  0.12532693  1
  La  La53  1  0.33812172  0.18872684  0.62455807  1
  La  La54  1  0.50258700  0.31957935  0.37603502  1
  La  La55  1  1.00162268  0.17824559  0.12871516  1
  La  La56  1  0.65944107  0.81304691  0.87362924  1
  La  La57  1  1.00012649  0.51006456  0.62476927  1
  La  La58  1  0.00257571  0.49385588  0.87366500  1
  La  La59  1  0.83815380  0.98653000  0.87499782  1
  La  La60  1  0.16515419  0.34271316  0.62563330  1
  La  La61  1  0.17242282  0.98460636  0.37880772  1
  La  La62  1  0.50210013  0.98269274  0.87562468  1
  La  La63  1  0.49589164  0.34907719  0.62312876  1
  La  La64  1  0.82755356  0.01767277  0.62022643  1
  La  La65  1  0.82858914  0.34742222  0.62279637  1
  La  La66  1  0.66733975  0.51135629  0.62371789  1
  La  La67  1  0.33435935  0.18083369  0.12611373  1
  La  La68  1  0.16957779  0.32645415  0.37288209  1
  La  La69  1  0.66003585  0.15757556  0.37578656  1
  La  La70  1  0.00083972  0.15814776  0.87323858  1
  La  La71  1  0.65954855  0.15570573  0.87355402  1
  In  In72  1  0.66479926  -0.00004303  0.49946086  1
  In  In73  1  -0.00066472  -0.00047456  0.25363765  1
  In  In74  1  0.00043672  0.00074498  0.49991424  1
  In  In75  1  -0.00167363  0.66285488  0.00391888  1
  In  In76  1  -0.00002168  0.00154046  0.75323462  1
  In  In77  1  0.16718522  0.83721288  0.00091319  1
  In  In78  1  0.16622717  0.16773840  -0.00114797  1
  In  In79  1  0.66520824  0.32981253  0.00086548  1
  In  In80  1  0.50453068  0.83411004  0.74600174  1
  In  In81  1  0.00242169  0.33345405  0.25314221  1
  In  In82  1  0.50108441  0.83487918  0.24916154  1
  In  In83  1  0.16876736  0.49947458  0.24776742  1
  In  In84  1  0.83043260  0.16776609  0.24985215  1
  In  In85  1  0.50332396  0.83363800  -0.00042838  1
  In  In86  1  0.16806260  0.49762487  0.50129890  1
  In  In87  1  0.66585957  -0.00026181  0.24797799  1
  In  In88  1  0.66869174  0.00074059  0.75238968  1
  In  In89  1  -0.00091138  0.66253644  0.74988931  1
  In  In90  1  0.66793134  0.00261878  -0.00022074  1
  In  In91  1  0.50293868  0.83322393  0.50097459  1
  In  In92  1  0.82980362  0.50048057  0.25026524  1
  In  In93  1  0.83288238  0.83162621  0.49677949  1
  In  In94  1  -0.00022779  0.66729451  0.49941295  1
  In  In95  1  0.33538766  0.66943985  0.75092531  1
  In  In96  1  0.33612901  0.66890124  0.25288369  1
  In  In97  1  0.00052550  0.00333144  0.00029364  1
  In  In98  1  0.49681128  0.16803238  0.75164182  1
  In  In99  1  0.16835533  0.49880077  -0.00006620  1
  In  In100  1  0.16626859  0.83597948  0.74889025  1
  In  In101  1  0.50010524  0.49634909  -0.00142772  1
  In  In102  1  0.33393026  0.00690392  0.50134256  1
  In  In103  1  0.33618058  0.33493327  -0.00387500  1
  In  In104  1  0.67009747  0.66051328  0.00188546  1
  In  In105  1  0.83156115  0.17241173  0.49819799  1
  In  In106  1  0.83282957  0.83307090  0.75322022  1
  In  In107  1  0.83139986  0.17055792  0.75476974  1
  Ir  Ir108  1  0.83125368  0.83166550  0.00160807  1
  Ir  Ir109  1  0.50060772  0.49634416  0.74230553  1
  Ir  Ir110  1  -0.00652081  0.33116620  -0.00536701  1
  Ir  Ir111  1  0.50012347  0.16732766  0.00208618  1
  Ir  Ir112  1  0.33296752  0.00600730  -0.00164258  1
  Ir  Ir113  1  0.49827078  0.49757170  0.50035378  1
  Ir  Ir114  1  0.33368037  0.33764601  0.74393265  1
  Ir  Ir115  1  0.66188031  0.33553903  0.50045761  1
  Ir  Ir116  1  0.83256695  0.49264870  0.74820287  1
  Ir  Ir117  1  0.17045578  0.17388312  0.49984128  1
  Ir  Ir118  1  -0.00046945  0.33472957  0.74803550  1
  Ir  Ir119  1  0.33514531  0.66781410  0.50447282  1
  Ir  Ir120  1  0.17141625  0.16687387  0.25127492  1
  Ir  Ir121  1  -0.00419413  0.66924707  0.25130920  1
  Ir  Ir122  1  0.66319163  0.33465376  0.74483078  1
  Ir  Ir123  1  0.49814361  0.17485874  0.49935990  1
  Ir  Ir124  1  0.82873799  0.82765449  0.24791872  1
  Ir  Ir125  1  0.83088786  0.49664241  0.50374027  1
  Ir  Ir126  1  0.16850055  0.49409783  0.74516831  1
  Ir  Ir127  1  0.00099072  0.33568593  0.50616519  1
  Ir  Ir128  1  0.66580397  0.66225883  0.25078225  1
  Ir  Ir129  1  0.50213573  0.49563007  0.25319593  1
  Ir  Ir130  1  0.83094380  0.16992274  0.00022941  1
  Ir  Ir131  1  0.17244076  0.83321309  0.50087552  1
  Ir  Ir132  1  0.83409520  0.49344324  -0.00207292  1
  Ir  Ir133  1  0.33248727  0.00790506  0.75391698  1
  Ir  Ir134  1  0.33722234  0.66650004  0.00114425  1
  Ir  Ir135  1  0.49845928  0.16895036  0.24834848  1
  Ir  Ir136  1  0.66438916  0.65944519  0.50036068  1
  Ir  Ir137  1  0.66442984  0.65998219  0.74508040  1
  Ir  Ir138  1  0.33787987  0.33122304  0.25392628  1
  Ir  Ir139  1  0.32847496  0.00386504  0.24654367  1
  Ir  Ir140  1  0.33349890  0.33397265  0.49995627  1
  Ir  Ir141  1  0.16836593  0.83649976  0.25152710  1
  Ir  Ir142  1  0.66086841  0.32992619  0.25087753  1
  Ir  Ir143  1  0.16851756  0.17355564  0.74681889  1
  O  O144  1  0.32264648  0.32153540  0.13402308  1
  O  O145  1  0.30274873  0.32875694  0.62179606  1
  O  O146  1  0.31990533  0.65791653  0.12061708  1
  O  O147  1  0.31715634  0.65602659  0.62263565  1
  O  O148  1  0.29981356  1.00487933  0.12170347  1
  O  O149  1  0.31594597  0.99482155  0.63305366  1
  O  O150  1  0.62994483  0.32630546  0.13164877  1
  O  O151  1  0.63284820  0.33999022  0.62187805  1
  O  O152  1  0.63503346  0.66117018  0.13243167  1
  O  O153  1  0.63481342  0.64979744  0.62217925  1
  O  O154  1  0.64267665  0.98221883  0.12237522  1
  O  O155  1  0.64104319  0.98253529  0.62663493  1
  O  O156  1  0.97319238  0.31630524  0.11528274  1
  O  O157  1  0.96794152  0.32989184  0.62717267  1
  O  O158  1  0.96551927  0.66800617  0.13144117  1
  O  O159  1  0.97977339  0.65239886  0.62534499  1
  O  O160  1  0.98587764  1.00036026  0.12664445  1
  O  O161  1  0.96588844  1.00253312  0.62821064  1
  O  O162  1  0.19898577  0.15462240  0.13196865  1
  O  O163  1  0.20081625  0.17358511  0.62334354  1
  O  O164  1  0.20382346  0.49241325  0.12436425  1
  O  O165  1  0.20085547  0.48213909  0.62654574  1
  O  O166  1  0.18324096  0.83525266  0.13146626  1
  O  O167  1  0.20168091  0.83039827  0.61946531  1
  O  O168  1  0.52928945  0.16336433  0.12543702  1
  O  O169  1  0.51459018  0.17551671  0.62010246  1
  O  O170  1  0.52125941  0.48465535  0.13403183  1
  O  O171  1  0.52784021  0.48829310  0.62050417  1
  O  O172  1  0.53437986  0.82418640  0.12393780  1
  O  O173  1  0.54119618  0.82262746  0.62361390  1
  O  O174  1  0.86610930  0.16792484  0.11585377  1
  O  O175  1  0.85002074  0.16178321  0.62732214  1
  O  O176  1  0.84632946  0.48642342  0.11879392  1
  O  O177  1  0.86115050  0.48828386  0.62646704  1
  O  O178  1  0.85717888  0.81706208  0.12518763  1
  O  O179  1  0.84668241  0.82356582  0.62609961  1
  O  O180  1  0.15073178  0.18888285  0.37635693  1
  O  O181  1  0.14093757  0.17518668  0.86779911  1
  O  O182  1  0.15517022  0.49355559  0.37552167  1
  O  O183  1  0.13955823  0.50140927  0.86524466  1
  O  O184  1  0.15017918  0.84511722  0.37621273  1
  O  O185  1  0.13661551  0.85178970  0.87608493  1
  O  O186  1  0.47804654  0.18236242  0.37360325  1
  O  O187  1  0.48010403  0.18814294  0.88226658  1
  O  O188  1  0.47804605  0.49789773  0.37827315  1
  O  O189  1  0.48382859  0.49178558  0.86415149  1
  O  O190  1  0.48449983  0.82782989  0.37552698  1
  O  O191  1  0.48409352  0.83742714  0.87213427  1
  O  O192  1  0.79405751  0.17820242  0.37395012  1
  O  O193  1  0.79391767  0.17740966  0.88434571  1
  O  O194  1  0.81289820  0.50680095  0.38133256  1
  O  O195  1  0.81184420  0.49228331  0.87255925  1
  O  O196  1  0.79496155  0.83109748  0.36588299  1
  O  O197  1  0.79443142  0.84130095  0.88413609  1
  O  O198  1  0.03818225  0.00333254  0.37520696  1
  O  O199  1  0.03656911  0.02305286  0.87863989  1
  O  O200  1  0.03215823  0.34041493  0.38582452  1
  O  O201  1  0.01408082  0.35371195  0.87069013  1
  O  O202  1  0.01726746  0.66624077  0.36967605  1
  O  O203  1  0.01342804  0.65476845  0.87610598  1
  O  O204  1  0.34969204  0.00166496  0.36815004  1
  O  O205  1  0.36560605  0.01187624  0.87664476  1
  O  O206  1  0.36589358  0.33561152  0.37816456  1
  O  O207  1  0.36881264  0.33740728  0.86501351  1
  O  O208  1  0.35155506  0.66854258  0.38441266  1
  O  O209  1  0.35688715  0.66486581  0.87996496  1
  O  O210  1  0.68217392  0.02197555  0.37286326  1
  O  O211  1  0.70398911  0.02185788  0.87934390  1
  O  O212  1  0.68383238  0.32543447  0.37662542  1
  O  O213  1  0.67494781  0.33026452  0.86735133  1
  O  O214  1  0.69780192  0.66928824  0.37580333  1
  O  O215  1  0.68473511  0.66849257  0.86660731  1
  O  O216  1  0.06799668  0.10588967  0.02819669  1
  O  O217  1  0.08293244  0.10423912  0.51330202  1
  O  O218  1  0.06082017  0.42323173  0.00759463  1
  O  O219  1  0.07018086  0.42232067  0.53626027  1
  O  O220  1  0.06902571  0.76324086  0.00194910  1
  O  O221  1  0.08304033  0.76128827  0.51396630  1
  O  O222  1  0.39943689  0.10556045  0.02323089  1
  O  O223  1  0.40294540  0.10884178  0.52246853  1
  O  O224  1  0.40377268  0.42948058  0.03173946  1
  O  O225  1  0.39978995  0.43106488  0.52512208  1
  O  O226  1  0.41337016  0.75065799  0.02220038  1
  O  O227  1  0.40322366  0.75908338  0.53208944  1
  O  O228  1  0.73557938  0.10798210  0.02745500  1
  O  O229  1  0.74166097  0.09147309  0.52123953  1
  O  O230  1  0.74186711  0.42486549  0.01327648  1
  O  O231  1  0.73467696  0.42645450  0.52961494  1
  O  O232  1  0.74280091  0.75968428  0.03005506  1
  O  O233  1  0.72448841  0.75781680  0.51605576  1
  O  O234  1  0.08306743  0.26305877  0.01035077  1
  O  O235  1  0.10217344  0.27197593  0.52184143  1
  O  O236  1  0.09167600  0.58777419  0.01985913  1
  O  O237  1  0.08523413  0.58272199  0.51920918  1
  O  O238  1  0.10608946  0.94225943  0.01992241  1
  O  O239  1  0.10233189  0.92320932  0.51585786  1
  O  O240  1  0.43756356  0.26173350  0.02592588  1
  O  O241  1  0.43116161  0.27129611  0.52298905  1
  O  O242  1  0.42795935  0.59461989  0.02479948  1
  O  O243  1  0.43196091  0.59587954  0.52846768  1
  O  O244  1  0.42528372  0.93611840  0.00775715  1
  O  O245  1  0.42082536  0.92334535  0.52378052  1
  O  O246  1  0.76497024  0.26231901  0.03186834  1
  O  O247  1  0.75771780  0.27431288  0.52302121  1
  O  O248  1  0.77417779  0.59312729  0.01950714  1
  O  O249  1  0.75723562  0.58703289  0.52145986  1
  O  O250  1  0.76276084  0.91930192  0.02265104  1
  O  O251  1  0.76352474  0.92832588  0.52801065  1
  O  O252  1  0.23251968  0.06883462  0.27253532  1
  O  O253  1  0.23411235  0.07566196  0.77397201  1
  O  O254  1  0.24460163  0.39370141  0.27334037  1
  O  O255  1  0.23961291  0.40376529  0.76449311  1
  O  O256  1  0.24159649  0.74917743  0.26436964  1
  O  O257  1  0.24431252  0.74505823  0.76621418  1
  O  O258  1  0.56694817  0.08039117  0.26630066  1
  O  O259  1  0.56567681  0.07110425  0.78138862  1
  O  O260  1  0.56400976  0.39520004  0.27487641  1
  O  O261  1  0.56125403  0.39503105  0.76021610  1
  O  O262  1  0.58116890  0.73357649  0.27052069  1
  O  O263  1  0.57303175  0.72588854  0.75984852  1
  O  O264  1  0.90712490  0.07569374  0.26834214  1
  O  O265  1  0.90682187  0.07761698  0.78881890  1
  O  O266  1  0.90665086  0.40925167  0.25359568  1
  O  O267  1  0.90062234  0.39799938  0.76017103  1
  O  O268  1  0.89396100  0.73266191  0.27205333  1
  O  O269  1  0.90875885  0.74252859  0.77674420  1
  O  O270  1  0.26668376  0.23843263  0.26740810  1
  O  O271  1  0.26592972  0.24109639  0.75926166  1
  O  O272  1  0.26527380  0.57364399  0.25691610  1
  O  O273  1  0.25892559  0.56646166  0.75483344  1
  O  O274  1  0.25674787  0.91212451  0.27342062  1
  O  O275  1  0.26416329  0.91879506  0.77112412  1
  O  O276  1  0.59566758  0.23380632  0.27234089  1
  O  O277  1  0.59565245  0.24129113  0.77032729  1
  O  O278  1  0.59776806  0.56648315  0.27214852  1
  O  O279  1  0.59963373  0.55964677  0.75401653  1
  O  O280  1  0.60251824  0.89797610  0.27258780  1
  O  O281  1  0.60358898  0.89998650  0.77876391  1
  O  O282  1  0.92608696  0.24249846  0.25922951  1
  O  O283  1  0.93715920  0.24019684  0.77542810  1
  O  O284  1  0.92119193  0.58365758  0.27049531  1
  O  O285  1  0.92964618  0.55442264  0.76499420  1
  O  O286  1  0.91770943  0.89881352  0.26416346  1
  O  O287  1  0.92989239  0.90546387  0.79221886  1
  O  O288  1  0.26882177  0.23806801  0.48758265  1
  O  O289  1  0.26332421  0.23842655  0.99897352  1
  O  O290  1  0.26777632  0.57313842  0.49427432  1
  O  O291  1  0.26621694  0.57937651  0.98653325  1
  O  O292  1  0.25706086  0.90985004  0.48691832  1
  O  O293  1  0.26559711  0.91596112  0.97798979  1
  O  O294  1  0.59298608  0.24218089  0.47298611  1
  O  O295  1  0.60158120  0.22312423  0.98636021  1
  O  O296  1  0.59825151  0.55981919  0.49056846  1
  O  O297  1  0.59587069  0.56650664  0.98806646  1
  O  O298  1  0.60532827  0.89560307  0.47418700  1
  O  O299  1  0.59674401  0.90875502  0.96470632  1
  O  O300  1  0.92957256  0.25121411  0.48199626  1
  O  O301  1  0.92888900  0.23192503  0.97270159  1
  O  O302  1  0.91794362  0.56872915  0.48608176  1
  O  O303  1  0.92793214  0.55627974  0.97880825  1
  O  O304  1  0.92744496  0.90560163  0.48077030  1
  O  O305  1  0.92313478  0.90290761  0.97315727  1
  O  O306  1  0.23392152  0.07747795  0.47717201  1
  O  O307  1  0.23693316  0.06711910  0.97809105  1
  O  O308  1  0.23543423  0.39210301  0.48066843  1
  O  O309  1  0.24246364  0.40728985  0.97793472  1
  O  O310  1  0.24304817  0.73736111  0.48292815  1
  O  O311  1  0.24998546  0.74217291  0.98800081  1
  O  O312  1  0.56767840  0.08495856  0.48131263  1
  O  O313  1  0.56157771  0.07339242  0.97155963  1
  O  O314  1  0.55979972  0.39696659  0.48149341  1
  O  O315  1  0.56041222  0.38932381  0.98549400  1
  O  O316  1  0.57287975  0.72495987  0.48716232  1
  O  O317  1  0.58383813  0.74235085  0.97910833  1
  O  O318  1  0.90975788  0.08008997  0.48250844  1
  O  O319  1  0.89595449  0.07579122  0.97246773  1
  O  O320  1  0.90278518  0.40269251  0.48972568  1
  O  O321  1  0.89620977  0.39397166  0.99455524  1
  O  O322  1  0.89829224  0.73072970  0.47389863  1
  O  O323  1  0.90118810  0.74375054  0.98092077  1
  O  O324  1  0.09870832  0.25389792  0.23132288  1
  O  O325  1  0.09969700  0.27020090  0.72565028  1
  O  O326  1  0.08386672  0.59636244  0.23457517  1
  O  O327  1  0.09338482  0.57709716  0.72392483  1
  O  O328  1  0.10352554  0.93084298  0.23526103  1
  O  O329  1  0.09790596  0.93452638  0.73445933  1
  O  O330  1  0.43461205  0.26591101  0.23076714  1
  O  O331  1  0.42624176  0.27052176  0.72248738  1
  O  O332  1  0.43615733  0.58756510  0.22420106  1
  O  O333  1  0.43516445  0.59175696  0.72149695  1
  O  O334  1  0.41816335  0.93160927  0.23127490  1
  O  O335  1  0.42456300  0.93659859  0.74007821  1
  O  O336  1  0.75260653  0.26446520  0.21715640  1
  O  O337  1  0.75991231  0.27405563  0.72561963  1
  O  O338  1  0.76120152  0.59961952  0.22809821  1
  O  O339  1  0.75833611  0.58455446  0.72752774  1
  O  O340  1  0.75981685  0.91503811  0.22319617  1
  O  O341  1  0.77467193  0.93872228  0.73054498  1
  O  O342  1  0.08079257  0.10007216  0.22520724  1
  O  O343  1  0.07779688  0.10803854  0.73496753  1
  O  O344  1  0.07967324  0.42015572  0.23014783  1
  O  O345  1  0.06966406  0.42731352  0.72223539  1
  O  O346  1  0.07591799  0.76185634  0.23315811  1
  O  O347  1  0.07165278  0.75943285  0.74455165  1
  O  O348  1  0.39801562  0.10147362  0.22441877  1
  O  O349  1  0.39428616  0.10347928  0.72872889  1
  O  O350  1  0.40422497  0.42752676  0.22804099  1
  O  O351  1  0.40230045  0.43168026  0.71671210  1
  O  O352  1  0.41832746  0.75024230  0.22196346  1
  O  O353  1  0.40871939  0.76413028  0.71538699  1
  O  O354  1  0.73213407  0.09981173  0.22127799  1
  O  O355  1  0.73549098  0.09981705  0.73250568  1
  O  O356  1  0.73567776  0.41678224  0.23623024  1
  O  O357  1  0.73393572  0.42778151  0.71992410  1
  O  O358  1  0.73351948  0.75709739  0.22243454  1
  O  O359  1  0.72400659  0.76041121  0.73289435  1
