# generated using pymatgen
data_BaLaInIrO6
_symmetry_space_group_name_H-M   'P 1'
_cell_length_a   17.51216362
_cell_length_b   17.54493527
_cell_length_c   16.48671567
_cell_angle_alpha   89.96863630
_cell_angle_beta   90.00244920
_cell_angle_gamma   89.99092839
_symmetry_Int_Tables_number   1
_chemical_formula_structural   BaLaInIrO6
_chemical_formula_sum   'Ba36 La36 In36 Ir36 O216'
_cell_volume   5065.53888921
_cell_formula_units_Z   36
loop_
 _symmetry_equiv_pos_site_id
 _symmetry_equiv_pos_as_xyz
  1  'x, y, z'
loop_
 _atom_site_type_symbol
 _atom_site_label
 _atom_site_symmetry_multiplicity
 _atom_site_fract_x
 _atom_site_fract_y
 _atom_site_fract_z
 _atom_site_occupancy
  Ba  Ba0  1  0.00067427  0.15993164  0.87167361  1
  Ba  Ba1  1  0.33036420  0.15751433  0.87422032  1
  Ba  Ba2  1  0.16836277  0.99317366  0.87308891  1
  Ba  Ba3  1  0.82800306  0.65765303  0.37724899  1
  Ba  Ba4  1  0.17244392  0.66195977  0.87243715  1
  Ba  Ba5  1  0.33456426  0.17987235  0.12122132  1
  Ba  Ba6  1  0.16836740  0.00693337  0.62173486  1
  Ba  Ba7  1  0.33492301  0.17821670  0.62408886  1
  Ba  Ba8  1  0.83504222  0.32517287  0.37340472  1
  Ba  Ba9  1  0.50414825  0.32415430  0.87394338  1
  Ba  Ba10  1  0.82894619  0.34261176  0.12550151  1
  Ba  Ba11  1  0.33616788  0.82526422  0.37602996  1
  Ba  Ba12  1  0.17087286  0.33807079  0.62770469  1
  Ba  Ba13  1  1.00254834  0.50324178  0.62600711  1
  Ba  Ba14  1  0.33467905  0.84247684  0.12703315  1
  Ba  Ba15  1  0.33720192  0.50773738  0.62429197  1
  Ba  Ba16  1  0.99907214  0.84473651  0.12991127  1
  Ba  Ba17  1  0.16762898  0.32661450  0.37884229  1
  Ba  Ba18  1  -0.00122988  0.48985784  0.37692569  1
  Ba  Ba19  1  0.16443893  0.67418926  0.62333111  1
  Ba  Ba20  1  0.82966705  0.67231253  0.12921392  1
  Ba  Ba21  1  0.67316413  0.84290729  0.62034640  1
  Ba  Ba22  1  0.66633983  0.50594364  0.12459904  1
  Ba  Ba23  1  0.66493684  0.15951134  0.37044603  1
  Ba  Ba24  1  0.49734284  0.00876246  0.62154212  1
  Ba  Ba25  1  0.49725427  0.65248920  0.88025953  1
  Ba  Ba26  1  0.66606405  0.18038132  0.12549295  1
  Ba  Ba27  1  0.83380419  0.99336763  0.87736143  1
  Ba  Ba28  1  0.83282277  0.67219925  0.62377047  1
  Ba  Ba29  1  0.33256155  0.15855306  0.37484188  1
  Ba  Ba30  1  1.00105972  0.83731057  0.62533299  1
  Ba  Ba31  1  0.33352965  0.84020622  0.62330040  1
  Ba  Ba32  1  0.83159017  0.32828406  0.87549050  1
  Ba  Ba33  1  0.66770160  0.50560079  0.63358327  1
  Ba  Ba34  1  0.99940674  0.17398059  0.62657121  1
  Ba  Ba35  1  0.83104138  0.01043647  0.12338916  1
  La  La36  1  0.32926823  0.48350885  0.37623669  1
  La  La37  1  1.00028339  0.18086799  0.11952339  1
  La  La38  1  0.83044434  0.34645575  0.62191425  1
  La  La39  1  0.49634803  0.68147389  0.12870494  1
  La  La40  1  0.17058162  0.65125509  0.37708682  1
  La  La41  1  0.33186690  0.48001331  0.87558925  1
  La  La42  1  0.67393478  0.84402110  0.12697669  1
  La  La43  1  0.16764114  0.99078056  0.37652700  1
  La  La44  1  0.17396207  0.31949889  0.86941765  1
  La  La45  1  0.49517899  0.34758025  0.12557613  1
  La  La46  1  0.66146475  0.81263796  0.37310750  1
  La  La47  1  0.65995644  0.81403165  0.87495749  1
  La  La48  1  0.50394396  0.32002656  0.37705315  1
  La  La49  1  0.82938400  0.01364950  0.62570174  1
  La  La50  1  -0.00003105  0.82038934  0.87489496  1
  La  La51  1  0.66079705  0.15470696  0.88014687  1
  La  La52  1  0.50455764  0.98559357  0.87246343  1
  La  La53  1  0.83205511  0.65994104  0.87375418  1
  La  La54  1  0.66157623  0.48337407  0.88107071  1
  La  La55  1  0.16193073  0.68650258  0.12443019  1
  La  La56  1  0.49223265  0.68367114  0.62700305  1
  La  La57  1  -0.00156989  0.81806687  0.37633789  1
  La  La58  1  0.33219802  0.82711111  0.86462047  1
  La  La59  1  0.50711843  0.64613676  0.37908947  1
  La  La60  1  0.99990896  0.51630882  0.12636667  1
  La  La61  1  0.50470985  0.98003724  0.37272206  1
  La  La62  1  0.34211204  0.51382640  0.12524553  1
  La  La63  1  0.00134845  0.48854031  0.87551790  1
  La  La64  1  0.16381933  0.34594339  0.12227460  1
  La  La65  1  0.66516507  0.48283300  0.37479448  1
  La  La66  1  0.49164071  0.01690164  0.12565247  1
  La  La67  1  0.16291581  0.01523966  0.12562743  1
  La  La68  1  0.67221384  0.18066857  0.62267837  1
  La  La69  1  -0.00588079  0.15952782  0.37531908  1
  La  La70  1  0.49181156  0.34850208  0.62331238  1
  La  La71  1  0.83440039  0.98869466  0.37441489  1
  In  In72  1  -0.00007618  -0.00065855  -0.00012872  1
  In  In73  1  0.33277034  -0.00362739  -0.00040434  1
  In  In74  1  0.66333314  -0.00099755  -0.00002292  1
  In  In75  1  0.66319108  0.66058004  0.50601785  1
  In  In76  1  0.00120120  0.33321656  0.75242337  1
  In  In77  1  0.50070552  0.83387014  0.00292479  1
  In  In78  1  0.16764181  0.16967212  0.25155632  1
  In  In79  1  0.66418011  0.33001768  0.74810943  1
  In  In80  1  0.83259660  0.50105366  0.25217602  1
  In  In81  1  0.00147308  0.33413894  0.24779090  1
  In  In82  1  0.66318869  -0.00072062  0.24832497  1
  In  In83  1  0.16719435  0.16720284  0.00120641  1
  In  In84  1  0.33694823  0.66621412  0.49562914  1
  In  In85  1  -0.00163268  -0.00006682  0.49773642  1
  In  In86  1  0.50271247  0.16491952  0.50182046  1
  In  In87  1  0.17081512  0.50161600  0.00047626  1
  In  In88  1  -0.00012821  0.66451522  0.75381198  1
  In  In89  1  0.83285984  0.16657156  0.24763702  1
  In  In90  1  0.16765999  0.49727491  0.50104135  1
  In  In91  1  0.83216912  0.83071286  -0.00058462  1
  In  In92  1  0.16529565  0.83600768  0.74814072  1
  In  In93  1  0.83369711  0.50204675  0.00022740  1
  In  In94  1  0.83388132  0.83376029  0.25090184  1
  In  In95  1  0.33340003  0.66654880  0.00274446  1
  In  In96  1  -0.00101928  0.66331958  0.49818701  1
  In  In97  1  0.16785410  0.16335196  0.74619852  1
  In  In98  1  0.83044688  0.16844481  0.75006573  1
  In  In99  1  0.66531526  0.00141504  0.74702498  1
  In  In100  1  0.83194716  0.50194658  0.75532549  1
  In  In101  1  0.49604484  0.16720028  0.24945915  1
  In  In102  1  0.33423701  0.66375398  0.75077437  1
  In  In103  1  0.83071010  0.83490284  0.75134109  1
  In  In104  1  0.16891900  0.83584745  0.25161582  1
  In  In105  1  0.83227385  0.83401223  0.49696511  1
  In  In106  1  0.17083863  0.50185463  0.24492904  1
  In  In107  1  0.33412073  0.00134238  0.49747643  1
  Ir  Ir108  1  0.33913188  0.33470705  0.49868266  1
  Ir  Ir109  1  0.00397843  0.66758394  0.00279145  1
  Ir  Ir110  1  0.66325391  0.33151978  0.00221439  1
  Ir  Ir111  1  -0.00356377  0.32889730  0.50108094  1
  Ir  Ir112  1  0.33372420  -0.00198680  0.25065013  1
  Ir  Ir113  1  0.83015260  0.49421223  0.50207232  1
  Ir  Ir114  1  0.50143883  0.83271384  0.74943268  1
  Ir  Ir115  1  -0.00234641  -0.00279791  0.74934649  1
  Ir  Ir116  1  0.16119121  0.16966771  0.49661138  1
  Ir  Ir117  1  0.33556749  0.33747304  0.24822285  1
  Ir  Ir118  1  0.65707483  0.66225027  0.24882241  1
  Ir  Ir119  1  0.50186468  0.82811608  0.25191633  1
  Ir  Ir120  1  0.66481146  0.33285503  0.49954217  1
  Ir  Ir121  1  0.66085238  0.33694971  0.25171743  1
  Ir  Ir122  1  0.50150522  0.16527138  0.75288093  1
  Ir  Ir123  1  0.82948022  0.16575987  0.49801235  1
  Ir  Ir124  1  0.33791298  0.66455929  0.25190249  1
  Ir  Ir125  1  0.83111890  0.17216641  -0.00150574  1
  Ir  Ir126  1  0.49842871  0.16894257  -0.00284539  1
  Ir  Ir127  1  0.50239809  0.50039347  0.75239862  1
  Ir  Ir128  1  0.50163012  0.49709855  0.49825444  1
  Ir  Ir129  1  0.50477608  0.83242576  0.49806657  1
  Ir  Ir130  1  0.34012055  0.33527062  0.75099041  1
  Ir  Ir131  1  0.16411745  0.83552184  0.49433001  1
  Ir  Ir132  1  0.66009884  0.66621164  0.75546876  1
  Ir  Ir133  1  0.16958880  0.49790782  0.75414094  1
  Ir  Ir134  1  0.00468096  0.66802607  0.24697093  1
  Ir  Ir135  1  0.34149630  -0.00018293  0.74988939  1
  Ir  Ir136  1  0.00169565  0.33652682  0.00164082  1
  Ir  Ir137  1  0.66270710  0.66404789  0.00183798  1
  Ir  Ir138  1  0.49731893  0.49978221  0.25157469  1
  Ir  Ir139  1  0.33430537  0.33575931  0.00123797  1
  Ir  Ir140  1  0.16614053  0.83248110  0.00212978  1
  Ir  Ir141  1  0.50114614  0.49791437  0.00360004  1
  Ir  Ir142  1  0.66897837  0.00173781  0.49592381  1
  Ir  Ir143  1  0.00218547  0.00466377  0.25203548  1
  O  O144  1  0.30285770  0.33655098  0.12511798  1
  O  O145  1  0.32051210  0.33668573  0.62477600  1
  O  O146  1  0.30204544  0.65378570  0.13332610  1
  O  O147  1  0.32089526  0.66514024  0.62253169  1
  O  O148  1  0.30141388  0.99598749  0.13176889  1
  O  O149  1  0.32255063  0.99734310  0.62944951  1
  O  O150  1  0.63194923  0.33521091  0.12824669  1
  O  O151  1  0.63005807  0.32481862  0.61881851  1
  O  O152  1  0.62990874  0.65766840  0.12355791  1
  O  O153  1  0.62835373  0.66047786  0.63486477  1
  O  O154  1  0.62390056  0.98430548  0.12275159  1
  O  O155  1  0.64676093  1.00102974  0.61434951  1
  O  O156  1  0.97607849  0.32203272  0.11751220  1
  O  O157  1  0.96922362  0.33317720  0.62126416  1
  O  O158  1  0.97898366  0.65802712  0.12384307  1
  O  O159  1  0.98386216  0.66357327  0.62584360  1
  O  O160  1  0.97999844  0.99773561  0.13369367  1
  O  O161  1  0.96773482  0.99256636  0.62647545  1
  O  O162  1  0.18753323  0.15222815  0.12760762  1
  O  O163  1  0.18377877  0.16635334  0.61614385  1
  O  O164  1  0.20767677  0.48566827  0.12303243  1
  O  O165  1  0.18794624  0.49865136  0.63230380  1
  O  O166  1  0.18557196  0.82694847  0.12399520  1
  O  O167  1  0.18182906  0.83107800  0.61493153  1
  O  O168  1  0.51620559  0.15864651  0.11870905  1
  O  O169  1  0.53236205  0.16396958  0.63271447  1
  O  O170  1  0.52076458  0.48423619  0.12838374  1
  O  O171  1  0.52305592  0.48364219  0.62408085  1
  O  O172  1  0.53493532  0.82054918  0.13294507  1
  O  O173  1  0.52724057  0.82019175  0.62367095  1
  O  O174  1  0.86209706  0.17240383  0.11805240  1
  O  O175  1  0.84810991  0.15310067  0.61642699  1
  O  O176  1  0.86036689  0.50293297  0.12446508  1
  O  O177  1  0.85024384  0.48990625  0.62394019  1
  O  O178  1  0.84916097  0.82336898  0.12630503  1
  O  O179  1  0.84790205  0.82719467  0.62372521  1
  O  O180  1  0.13305132  0.17269496  0.37639207  1
  O  O181  1  0.15555149  0.17722419  0.87464526  1
  O  O182  1  0.15060833  0.50874558  0.37018612  1
  O  O183  1  0.14065588  0.49978137  0.87487243  1
  O  O184  1  0.13664614  0.84719246  0.37465466  1
  O  O185  1  0.13910459  0.83565375  0.88340146  1
  O  O186  1  0.48125826  0.18442329  0.37485886  1
  O  O187  1  0.47654297  0.17228903  0.87407256  1
  O  O188  1  0.46719388  0.50976573  0.37462474  1
  O  O189  1  0.47013818  0.50096068  0.87716094  1
  O  O190  1  0.48269436  0.84177257  0.37508092  1
  O  O191  1  0.46892639  0.84043342  0.86914361  1
  O  O192  1  0.81486075  0.17053546  0.37888081  1
  O  O193  1  0.79817390  0.17226876  0.87879885  1
  O  O194  1  0.80278519  0.49792590  0.38124262  1
  O  O195  1  0.79616957  0.51577021  0.88002723  1
  O  O196  1  0.79525290  0.84636959  0.37199371  1
  O  O197  1  0.79415612  0.83293011  0.87648429  1
  O  O198  1  0.03228682  0.01897529  0.36909895  1
  O  O199  1  0.01846280  0.00400880  0.86898662  1
  O  O200  1  0.01487058  0.32477689  0.38073761  1
  O  O201  1  0.03717263  0.34596360  0.88513484  1
  O  O202  1  0.03485782  0.67149725  0.36523800  1
  O  O203  1  0.02606604  0.67769379  0.88642056  1
  O  O204  1  0.36716915  -0.00044522  0.36831111  1
  O  O205  1  0.36636525  -0.00618866  0.87012798  1
  O  O206  1  0.36829618  0.34296164  0.37217548  1
  O  O207  1  0.35966448  0.34354795  0.87654632  1
  O  O208  1  0.37343702  0.66999153  0.36884183  1
  O  O209  1  0.34913261  0.68799731  0.87717067  1
  O  O210  1  0.69720065  0.00295300  0.37840808  1
  O  O211  1  0.68350563  0.01884313  0.87430453  1
  O  O212  1  0.68669456  0.34548494  0.37563446  1
  O  O213  1  0.67912635  0.33671211  0.88046243  1
  O  O214  1  0.67399156  0.67009330  0.36928964  1
  O  O215  1  0.69311842  0.67445703  0.87942625  1
  O  O216  1  0.06830634  0.09606326  0.02542563  1
  O  O217  1  0.06931911  0.10138782  0.50921253  1
  O  O218  1  0.06973279  0.42903504  0.03025426  1
  O  O219  1  0.07022649  0.41786458  0.51330478  1
  O  O220  1  0.07057629  0.76371195  0.02458967  1
  O  O221  1  0.07437318  0.76678567  0.50204318  1
  O  O222  1  0.41092216  0.09656469  0.01500557  1
  O  O223  1  0.40614220  0.09539997  0.51363200  1
  O  O224  1  0.40400678  0.43033982  0.02739670  1
  O  O225  1  0.40892446  0.42771482  0.51573548  1
  O  O226  1  0.41473913  0.75294177  0.02873094  1
  O  O227  1  0.41621235  0.76026857  0.51810137  1
  O  O228  1  0.74131753  0.10094214  0.01569945  1
  O  O229  1  0.73113435  0.10064726  0.52077807  1
  O  O230  1  0.73543193  0.42238877  0.01138535  1
  O  O231  1  0.73974638  0.41983078  0.52489648  1
  O  O232  1  0.72526618  0.75825077  0.02341237  1
  O  O233  1  0.73539205  0.75576349  0.50276778  1
  O  O234  1  0.09336085  0.26677670  0.02647416  1
  O  O235  1  0.09017320  0.26187840  0.52007528  1
  O  O236  1  0.09791264  0.59990079  0.03122343  1
  O  O237  1  0.09821341  0.59560168  0.50359474  1
  O  O238  1  0.10676497  0.93091473  0.02211906  1
  O  O239  1  0.09683199  0.92816077  0.50825954  1
  O  O240  1  0.43349574  0.26959368  0.02334347  1
  O  O241  1  0.43540121  0.27143580  0.51769536  1
  O  O242  1  0.43445579  0.58943541  0.03267859  1
  O  O243  1  0.44365844  0.59631086  0.51850686  1
  O  O244  1  0.43381202  0.93363027  0.02663192  1
  O  O245  1  0.43457295  0.92290390  0.50620788  1
  O  O246  1  0.75714608  0.26225813  0.01821276  1
  O  O247  1  0.76022866  0.26235296  0.52751352  1
  O  O248  1  0.75428676  0.59878520  0.01656333  1
  O  O249  1  0.75821598  0.58263782  0.51741420  1
  O  O250  1  0.75125997  0.92020136  0.02550634  1
  O  O251  1  0.76820077  0.94329556  0.51678633  1
  O  O252  1  0.23831168  0.06384946  0.27395966  1
  O  O253  1  0.25094554  0.07087042  0.76221688  1
  O  O254  1  0.24968221  0.40841528  0.27359977  1
  O  O255  1  0.24338689  0.40511528  0.77961360  1
  O  O256  1  0.24166137  0.72985631  0.27309362  1
  O  O257  1  0.24911511  0.75106833  0.76528162  1
  O  O258  1  0.56196343  0.06467729  0.26875520  1
  O  O259  1  0.56246268  0.07047365  0.77660328  1
  O  O260  1  0.56456670  0.40627494  0.27865415  1
  O  O261  1  0.57535462  0.41286455  0.76772877  1
  O  O262  1  0.55975367  0.72703525  0.27203852  1
  O  O263  1  0.56862220  0.73917524  0.77632907  1
  O  O264  1  0.90707318  0.06637710  0.27819815  1
  O  O265  1  0.90407260  0.06596685  0.75755697  1
  O  O266  1  0.90932063  0.40953622  0.26453097  1
  O  O267  1  0.91915451  0.41834597  0.77823485  1
  O  O268  1  0.91742601  0.74252257  0.27517331  1
  O  O269  1  0.90256014  0.73962877  0.78313137  1
  O  O270  1  0.26680920  0.24735093  0.26615401  1
  O  O271  1  0.26346059  0.25088267  0.76586145  1
  O  O272  1  0.27341817  0.57262016  0.27717930  1
  O  O273  1  0.26534463  0.56188224  0.77664954  1
  O  O274  1  0.26322374  0.91081150  0.27337625  1
  O  O275  1  0.27021444  0.90914573  0.76813817  1
  O  O276  1  0.58831488  0.25013118  0.26650054  1
  O  O277  1  0.59841541  0.22659846  0.77193569  1
  O  O278  1  0.59133023  0.56535337  0.27927224  1
  O  O279  1  0.59777273  0.56707174  0.78059307  1
  O  O280  1  0.59382397  0.89442910  0.27794212  1
  O  O281  1  0.59275587  0.90175249  0.77476214  1
  O  O282  1  0.93720089  0.22837891  0.26118752  1
  O  O283  1  0.92082922  0.24403831  0.76631127  1
  O  O284  1  0.93307478  0.57941258  0.26166455  1
  O  O285  1  0.92342307  0.57699480  0.79060150  1
  O  O286  1  0.93544671  0.91035844  0.27969301  1
  O  O287  1  0.93567673  0.90217166  0.77539904  1
  O  O288  1  0.26328425  0.24417123  0.48174255  1
  O  O289  1  0.26099932  0.24983218  0.98177403  1
  O  O290  1  0.26631469  0.57168573  0.46949257  1
  O  O291  1  0.27645567  0.56117328  0.97926363  1
  O  O292  1  0.25249925  0.91065161  0.47826127  1
  O  O293  1  0.26494703  0.89071117  0.97509123  1
  O  O294  1  0.59637491  0.24406320  0.47951083  1
  O  O295  1  0.59567541  0.23409360  0.97997329  1
  O  O296  1  0.59435548  0.56241557  0.47252286  1
  O  O297  1  0.59805334  0.56420285  0.97664067  1
  O  O298  1  0.60344026  0.90347025  0.47046576  1
  O  O299  1  0.59105865  0.90370691  0.96159517  1
  O  O300  1  0.92765628  0.23028844  0.47931208  1
  O  O301  1  0.92911364  0.24381835  0.97880408  1
  O  O302  1  0.91710414  0.56739973  0.48392728  1
  O  O303  1  0.94206986  0.57103502  0.98250780  1
  O  O304  1  0.92628761  0.90918440  0.45999547  1
  O  O305  1  0.93283299  0.90066606  0.97780380  1
  O  O306  1  0.22975608  0.07567594  0.47344510  1
  O  O307  1  0.23972885  0.06901275  0.98901725  1
  O  O308  1  0.25145935  0.40896654  0.47996486  1
  O  O309  1  0.24023237  0.39954284  0.97321104  1
  O  O310  1  0.23260043  0.73984793  0.47221972  1
  O  O311  1  0.22907474  0.73559910  0.99789846  1
  O  O312  1  0.57203673  0.06289949  0.47106531  1
  O  O313  1  0.56359463  0.07512717  0.97510252  1
  O  O314  1  0.56951286  0.40140319  0.47233571  1
  O  O315  1  0.57315728  0.40674275  0.98233003  1
  O  O316  1  0.56753281  0.73655536  0.47789077  1
  O  O317  1  0.57618674  0.73594559  0.98231592  1
  O  O318  1  0.89536279  0.07161676  0.47460707  1
  O  O319  1  0.90296982  0.08479711  0.98408878  1
  O  O320  1  0.90010837  0.39835003  0.48929637  1
  O  O321  1  0.91751051  0.41215089  0.97428971  1
  O  O322  1  0.91442692  0.74552772  0.46967439  1
  O  O323  1  0.90677114  0.73024628  0.97564104  1
  O  O324  1  0.10140052  0.26829571  0.21961453  1
  O  O325  1  0.09663219  0.26139932  0.74382967  1
  O  O326  1  0.09709980  0.59977671  0.21978496  1
  O  O327  1  0.09841922  0.58629730  0.73927436  1
  O  O328  1  0.10078548  0.94234695  0.23385192  1
  O  O329  1  0.08948388  0.93072256  0.73295232  1
  O  O330  1  0.42898913  0.27192422  0.22582765  1
  O  O331  1  0.43689346  0.26598874  0.72616287  1
  O  O332  1  0.43221223  0.59555225  0.22296733  1
  O  O333  1  0.43745629  0.59373441  0.72981590  1
  O  O334  1  0.43653469  0.93059542  0.22937655  1
  O  O335  1  0.43527748  0.92790105  0.73370548  1
  O  O336  1  0.75103794  0.26487325  0.23674115  1
  O  O337  1  0.75796722  0.26168826  0.71020804  1
  O  O338  1  0.75002707  0.59463689  0.23809555  1
  O  O339  1  0.75406823  0.60164597  0.73881390  1
  O  O340  1  0.75223688  0.92073165  0.22379380  1
  O  O341  1  0.76641316  0.93696849  0.72557554  1
  O  O342  1  0.06282835  0.09984557  0.22507720  1
  O  O343  1  0.07007468  0.08589628  0.73211733  1
  O  O344  1  0.07469387  0.43091815  0.21522755  1
  O  O345  1  0.08158472  0.42857682  0.73922174  1
  O  O346  1  0.07643914  0.75656346  0.23138928  1
  O  O347  1  0.07111305  0.76158340  0.74752294  1
  O  O348  1  0.40228858  0.08739721  0.22693748  1
  O  O349  1  0.40849945  0.09721922  0.73416822  1
  O  O350  1  0.40259182  0.43324304  0.22505971  1
  O  O351  1  0.41203694  0.42679137  0.73179348  1
  O  O352  1  0.40937408  0.75515601  0.22519521  1
  O  O353  1  0.41572364  0.75954092  0.72925257  1
  O  O354  1  0.74042737  0.09178720  0.23084786  1
  O  O355  1  0.72999882  0.10295578  0.72503082  1
  O  O356  1  0.73121259  0.42704879  0.24168602  1
  O  O357  1  0.74586220  0.41896369  0.73930639  1
  O  O358  1  0.72114327  0.75831033  0.23371178  1
  O  O359  1  0.72531678  0.75823084  0.74017339  1
