# generated using pymatgen
data_BaLaInIrO6
_symmetry_space_group_name_H-M   'P 1'
_cell_length_a   17.51960387
_cell_length_b   17.54072957
_cell_length_c   16.48156227
_cell_angle_alpha   90.00313942
_cell_angle_beta   89.98713625
_cell_angle_gamma   89.99243839
_symmetry_Int_Tables_number   1
_chemical_formula_structural   BaLaInIrO6
_chemical_formula_sum   'Ba36 La36 In36 Ir36 O216'
_cell_volume   5064.89323875
_cell_formula_units_Z   36
loop_
 _symmetry_equiv_pos_site_id
 _symmetry_equiv_pos_as_xyz
  1  'x, y, z'
loop_
 _atom_site_type_symbol
 _atom_site_label
 _atom_site_symmetry_multiplicity
 _atom_site_fract_x
 _atom_site_fract_y
 _atom_site_fract_z
 _atom_site_occupancy
  Ba  Ba0  1  0.16904398  0.67245030  0.12387264  1
  Ba  Ba1  1  0.49852649  0.67302089  0.12410504  1
  Ba  Ba2  1  0.99862346  0.50743726  0.62140253  1
  Ba  Ba3  1  0.50758717  0.32552685  0.37565300  1
  Ba  Ba4  1  1.00269957  0.83822193  0.62863407  1
  Ba  Ba5  1  0.66464787  0.49032587  0.37560660  1
  Ba  Ba6  1  0.16395137  0.00846002  0.12639757  1
  Ba  Ba7  1  0.82626871  0.34331620  0.12694275  1
  Ba  Ba8  1  0.50629769  0.99210434  0.36936008  1
  Ba  Ba9  1  0.66540928  0.15892804  0.37032327  1
  Ba  Ba10  1  0.50180433  0.99437160  0.87796079  1
  Ba  Ba11  1  0.16941705  0.99080976  0.37477766  1
  Ba  Ba12  1  0.33417855  0.83912702  0.12525870  1
  Ba  Ba13  1  0.66492914  0.17808715  0.12332067  1
  Ba  Ba14  1  0.33243201  0.49644545  0.37548036  1
  Ba  Ba15  1  0.66800077  0.16012638  0.87802636  1
  Ba  Ba16  1  0.49339684  0.33903926  0.12590289  1
  Ba  Ba17  1  0.17184273  0.98542372  0.87319445  1
  Ba  Ba18  1  0.32883553  0.49532861  0.87601838  1
  Ba  Ba19  1  0.16872322  0.00621213  0.62222789  1
  Ba  Ba20  1  0.16739334  0.34060704  0.62400760  1
  Ba  Ba21  1  0.33475583  0.16243670  0.37048583  1
  Ba  Ba22  1  0.33805776  0.83055240  0.37531807  1
  Ba  Ba23  1  0.16573056  0.34217992  0.12808381  1
  Ba  Ba24  1  0.83568350  0.01224228  0.12468389  1
  Ba  Ba25  1  0.83496828  0.98949197  0.36721276  1
  Ba  Ba26  1  0.00135308  0.49245308  0.37331520  1
  Ba  Ba27  1  0.67151394  0.83955716  0.62786287  1
  Ba  Ba28  1  0.83553209  0.65670605  0.87232156  1
  Ba  Ba29  1  0.50267137  0.67779278  0.62843378  1
  Ba  Ba30  1  0.66665966  0.50778554  0.62056706  1
  Ba  Ba31  1  0.50153587  0.65573762  0.87616576  1
  Ba  Ba32  1  0.33210741  0.16969087  0.12527648  1
  Ba  Ba33  1  -0.00221464  0.15795582  0.87143679  1
  Ba  Ba34  1  0.33905072  0.84390174  0.62595237  1
  Ba  Ba35  1  0.83063666  0.32510447  0.37897225  1
  La  La36  1  0.33822683  0.52309404  0.62594154  1
  La  La37  1  0.82229535  0.67877426  0.61921313  1
  La  La38  1  0.16784560  0.65906891  0.87293475  1
  La  La39  1  0.33481591  0.51825962  0.12386238  1
  La  La40  1  1.00304439  0.17986697  0.62300127  1
  La  La41  1  0.50347021  0.65461238  0.37771547  1
  La  La42  1  0.82901166  0.34633002  0.62849375  1
  La  La43  1  0.66275819  0.50237908  0.12516493  1
  La  La44  1  -0.01023902  0.15546178  0.37246128  1
  La  La45  1  0.66803136  0.18095402  0.62795310  1
  La  La46  1  0.99974085  0.51685945  0.12507595  1
  La  La47  1  -0.00337859  0.81733732  0.37146284  1
  La  La48  1  0.83744947  0.65212860  0.37310401  1
  La  La49  1  0.49916139  0.32038741  0.87509331  1
  La  La50  1  0.33106829  0.81562502  0.87355390  1
  La  La51  1  0.17057188  0.31626617  0.87669086  1
  La  La52  1  0.65690694  0.48096542  0.87371828  1
  La  La53  1  0.66239402  0.81541905  0.37347645  1
  La  La54  1  0.82619560  0.68037378  0.12653024  1
  La  La55  1  0.67286769  0.84699620  0.12233089  1
  La  La56  1  1.00775873  0.84606246  0.12526191  1
  La  La57  1  0.17213786  0.32272483  0.37708974  1
  La  La58  1  -0.00034040  0.81819546  0.87939342  1
  La  La59  1  0.16706791  0.66724558  0.38108063  1
  La  La60  1  0.83258920  0.31812083  0.88015733  1
  La  La61  1  0.33484107  0.17477010  0.62292773  1
  La  La62  1  1.00495307  0.18536138  0.12237603  1
  La  La63  1  0.66538094  0.81449620  0.87727806  1
  La  La64  1  0.49164312  0.35346713  0.62684019  1
  La  La65  1  0.84291253  0.98342006  0.87653129  1
  La  La66  1  0.16612763  0.67742400  0.62767439  1
  La  La67  1  -0.00333374  0.48235813  0.87700228  1
  La  La68  1  0.50300698  0.01318674  0.13006945  1
  La  La69  1  0.82726391  0.01623230  0.62141149  1
  La  La70  1  0.49732704  0.01275424  0.62271141  1
  La  La71  1  0.32738000  0.15122283  0.87694905  1
  In  In72  1  0.67369006  -0.00075384  -0.00339277  1
  In  In73  1  0.49920649  0.50171714  0.24801654  1
  In  In74  1  0.15967792  0.16734902  0.25223227  1
  In  In75  1  0.83305931  0.50020315  -0.00104575  1
  In  In76  1  0.66869571  0.66008036  0.75123560  1
  In  In77  1  0.33492448  -0.00450659  -0.00014692  1
  In  In78  1  0.16492875  0.16354234  0.74927399  1
  In  In79  1  0.49868130  0.16687510  -0.00388924  1
  In  In80  1  0.00179288  0.00256176  -0.00163172  1
  In  In81  1  0.67058948  -0.00005359  0.75058464  1
  In  In82  1  -0.00247649  0.66132714  0.74884529  1
  In  In83  1  0.83204323  0.16806098  0.24778962  1
  In  In84  1  0.50043556  0.16847126  0.25045287  1
  In  In85  1  0.16712448  0.50306534  0.50095468  1
  In  In86  1  0.33248194  -0.00180038  0.24894204  1
  In  In87  1  -0.00096871  0.33336676  0.49789188  1
  In  In88  1  0.50288363  0.83394512  0.00104941  1
  In  In89  1  0.83317700  0.83504822  0.49385841  1
  In  In90  1  -0.00340901  -0.00264455  0.50229149  1
  In  In91  1  0.16442396  0.50402040  0.25013005  1
  In  In92  1  0.50607684  0.83644002  0.50113460  1
  In  In93  1  0.83309687  0.49951943  0.49974834  1
  In  In94  1  0.83317626  0.16531125  0.74944452  1
  In  In95  1  0.33080587  0.33826527  0.25113425  1
  In  In96  1  0.16363423  0.49852856  0.75021695  1
  In  In97  1  0.66372727  0.33234970  0.50337795  1
  In  In98  1  0.33110156  0.33349584  0.75214233  1
  In  In99  1  0.16663843  0.83334546  0.50120887  1
  In  In100  1  0.16517935  0.82900939  0.24968740  1
  In  In101  1  0.33428439  0.33591181  0.49871088  1
  In  In102  1  0.50317071  0.83635435  0.75430276  1
  In  In103  1  0.16274636  0.49848805  -0.00009430  1
  In  In104  1  0.16274578  0.16617228  0.49927679  1
  In  In105  1  0.83739580  0.83337949  0.74911515  1
  In  In106  1  0.33648618  0.00184989  0.49775925  1
  In  In107  1  0.66758295  0.66091527  0.00282633  1
  Ir  Ir108  1  -0.00170955  0.66749337  0.00232090  1
  Ir  Ir109  1  -0.00129480  -0.00386104  0.75137354  1
  Ir  Ir110  1  0.33696492  0.00271892  0.74929773  1
  Ir  Ir111  1  0.33193317  0.66613130  -0.00104596  1
  Ir  Ir112  1  -0.00223259  0.66720674  0.49800339  1
  Ir  Ir113  1  0.83533818  0.17025754  -0.00099768  1
  Ir  Ir114  1  0.50969611  0.82718880  0.24932396  1
  Ir  Ir115  1  0.66557759  0.33770019  -0.00292139  1
  Ir  Ir116  1  0.83290885  0.16384165  0.50293776  1
  Ir  Ir117  1  -0.00696316  0.66734658  0.24718927  1
  Ir  Ir118  1  0.66696364  0.33789822  0.24632240  1
  Ir  Ir119  1  0.67062521  0.66414974  0.25057970  1
  Ir  Ir120  1  0.66845372  0.66585818  0.49560226  1
  Ir  Ir121  1  0.33275043  0.33548937  -0.00414395  1
  Ir  Ir122  1  0.83543390  0.50217068  0.24767620  1
  Ir  Ir123  1  -0.00306435  0.33388487  -0.00131641  1
  Ir  Ir124  1  0.49804218  0.50539721  0.50625713  1
  Ir  Ir125  1  0.16476462  0.82819704  -0.00352698  1
  Ir  Ir126  1  0.49612279  0.49862733  0.75232520  1
  Ir  Ir127  1  0.83787990  0.83070337  0.00359281  1
  Ir  Ir128  1  0.50050082  0.16971752  0.74742212  1
  Ir  Ir129  1  0.66975470  -0.00715631  0.25090777  1
  Ir  Ir130  1  0.66196148  0.33354155  0.75142520  1
  Ir  Ir131  1  0.16398872  0.17144106  -0.00104931  1
  Ir  Ir132  1  0.83006049  0.49391250  0.75330450  1
  Ir  Ir133  1  -0.00466624  0.33646012  0.24564225  1
  Ir  Ir134  1  0.33105452  0.66785235  0.75204798  1
  Ir  Ir135  1  0.66692085  0.00169042  0.50003371  1
  Ir  Ir136  1  -0.00256954  -0.00066513  0.24863381  1
  Ir  Ir137  1  0.83275273  0.83000324  0.24674881  1
  Ir  Ir138  1  0.33838240  0.66907466  0.25397524  1
  Ir  Ir139  1  0.33568902  0.66854594  0.50016231  1
  Ir  Ir140  1  -0.00649844  0.33420177  0.75502998  1
  Ir  Ir141  1  0.50711384  0.16576104  0.50706040  1
  Ir  Ir142  1  0.49688362  0.49555688  -0.00462976  1
  Ir  Ir143  1  0.16816999  0.83280946  0.75372567  1
  O  O144  1  0.31437891  0.33077394  0.11355060  1
  O  O145  1  0.31880096  0.31440097  0.62529168  1
  O  O146  1  0.31727765  0.65748773  0.12612492  1
  O  O147  1  0.30366783  0.66216579  0.62631784  1
  O  O148  1  0.31199598  0.99668957  0.12214771  1
  O  O149  1  0.32165858  1.00773324  0.63116120  1
  O  O150  1  0.64509640  0.34752419  0.12001749  1
  O  O151  1  0.62935023  0.32431477  0.63333057  1
  O  O152  1  0.64807993  0.64676895  0.13217001  1
  O  O153  1  0.65408977  0.66511311  0.61735938  1
  O  O154  1  0.64326155  0.98349394  0.13043364  1
  O  O155  1  0.63738164  0.99382883  0.61864824  1
  O  O156  1  0.97072437  0.32241744  0.12114610  1
  O  O157  1  0.96326548  0.32499460  0.63583258  1
  O  O158  1  0.96084497  0.65789512  0.12487741  1
  O  O159  1  0.96158744  0.66563298  0.61743117  1
  O  O160  1  0.98311084  0.98286509  0.12626571  1
  O  O161  1  0.96296756  0.98930840  0.63439244  1
  O  O162  1  0.17702802  0.17333033  0.11776723  1
  O  O163  1  0.19909333  0.16784881  0.62760712  1
  O  O164  1  0.19700516  0.49942720  0.12344943  1
  O  O165  1  0.20260571  0.49873360  0.62762251  1
  O  O166  1  0.17954389  0.82845722  0.11734267  1
  O  O167  1  0.18777722  0.81765441  0.63400765  1
  O  O168  1  0.51535341  0.15784026  0.12201196  1
  O  O169  1  0.53387898  0.15461125  0.62822800  1
  O  O170  1  0.52549287  0.50066570  0.11507031  1
  O  O171  1  0.51914861  0.49926721  0.63178267  1
  O  O172  1  0.53797780  0.82246239  0.13157855  1
  O  O173  1  0.52119256  0.83274980  0.62741474  1
  O  O174  1  0.86468116  0.17069456  0.11908615  1
  O  O175  1  0.86500972  0.15812883  0.62238216  1
  O  O176  1  0.86469411  0.49642880  0.12824314  1
  O  O177  1  0.85115382  0.48502283  0.63391746  1
  O  O178  1  0.87153087  0.81974289  0.12577762  1
  O  O179  1  0.85244344  0.81418025  0.61939942  1
  O  O180  1  0.12112673  0.18116831  0.37474828  1
  O  O181  1  0.14575306  0.17545403  0.87896962  1
  O  O182  1  0.14814117  0.53333922  0.37406165  1
  O  O183  1  0.13100441  0.51965475  0.87637913  1
  O  O184  1  0.13461948  0.81709403  0.37443873  1
  O  O185  1  0.13751693  0.82697401  0.87564439  1
  O  O186  1  0.49091663  0.16793438  0.38629577  1
  O  O187  1  0.46795424  0.18019098  0.86514754  1
  O  O188  1  0.48550256  0.51034919  0.38335576  1
  O  O189  1  0.47592405  0.49137087  0.87351051  1
  O  O190  1  0.49211026  0.83159722  0.36900119  1
  O  O191  1  0.46409116  0.84098442  0.87665921  1
  O  O192  1  0.81675961  0.16683760  0.38183262  1
  O  O193  1  0.81544329  0.17816402  0.87763923  1
  O  O194  1  0.81415896  0.51004752  0.36842451  1
  O  O195  1  0.79691772  0.49978996  0.87058016  1
  O  O196  1  0.79797078  0.83284508  0.36515895  1
  O  O197  1  0.80427352  0.84043925  0.88383639  1
  O  O198  1  0.01517157  0.01716595  0.36827106  1
  O  O199  1  0.02240550  0.00318354  0.86983998  1
  O  O200  1  0.02782430  0.33775640  0.36393277  1
  O  O201  1  0.02990417  0.34399597  0.87760493  1
  O  O202  1  0.02836644  0.67498815  0.37182774  1
  O  O203  1  0.03131328  0.67492973  0.88330481  1
  O  O204  1  0.35811851  -0.00181934  0.37312995  1
  O  O205  1  0.35069432  0.00593683  0.86928909  1
  O  O206  1  0.36362723  0.34327914  0.37668804  1
  O  O207  1  0.36384357  0.34136214  0.87803150  1
  O  O208  1  0.36697650  0.67182815  0.37727559  1
  O  O209  1  0.35425232  0.67546214  0.87574197  1
  O  O210  1  0.68838105  0.00557409  0.37581169  1
  O  O211  1  0.71142910  0.00962152  0.87418462  1
  O  O212  1  0.67811186  0.33364808  0.36994851  1
  O  O213  1  0.69530200  0.34224291  0.87387732  1
  O  O214  1  0.70036686  0.67381137  0.37164561  1
  O  O215  1  0.68908051  0.67143458  0.87827438  1
  O  O216  1  0.06954896  0.10442454  0.02108324  1
  O  O217  1  0.06070930  0.09769477  0.52544089  1
  O  O218  1  0.05695459  0.43164101  0.01923952  1
  O  O219  1  0.07381818  0.42703612  0.51455305  1
  O  O220  1  0.06357642  0.76484429  0.02067803  1
  O  O221  1  0.07092932  0.75142079  0.51841376  1
  O  O222  1  0.39896387  0.09932749  -0.00249552  1
  O  O223  1  0.41326085  0.10272294  0.52944395  1
  O  O224  1  0.39641101  0.43289678  0.02056315  1
  O  O225  1  0.40736346  0.43681608  0.53475021  1
  O  O226  1  0.40387539  0.75450650  0.01246733  1
  O  O227  1  0.40835243  0.75588609  0.51344186  1
  O  O228  1  0.74821175  0.09934310  0.02051433  1
  O  O229  1  0.73343484  0.09943030  0.52955049  1
  O  O230  1  0.72771403  0.43533295  0.01524034  1
  O  O231  1  0.74277393  0.41956895  0.51816548  1
  O  O232  1  0.74688377  0.76143696  0.03007054  1
  O  O233  1  0.74028769  0.75381429  0.51108977  1
  O  O234  1  0.09123353  0.26602593  0.01607447  1
  O  O235  1  0.08240411  0.25541551  0.53275530  1
  O  O236  1  0.08203876  0.59398105  0.02710944  1
  O  O237  1  0.09389698  0.60424647  0.52628658  1
  O  O238  1  0.09262086  0.91771420  0.01413524  1
  O  O239  1  0.09028729  0.92401878  0.51558319  1
  O  O240  1  0.42638222  0.26991119  0.00582399  1
  O  O241  1  0.44228812  0.25961242  0.52943852  1
  O  O242  1  0.42086835  0.58674377  0.02147471  1
  O  O243  1  0.42890962  0.59861070  0.52103209  1
  O  O244  1  0.43998314  0.93386413  0.02923578  1
  O  O245  1  0.43843454  0.93534541  0.52114242  1
  O  O246  1  0.76531322  0.27050512  0.00816377  1
  O  O247  1  0.76681170  0.25745164  0.53206625  1
  O  O248  1  0.76667491  0.59548563  0.03094596  1
  O  O249  1  0.76365855  0.59910608  0.51444005  1
  O  O250  1  0.76956095  0.91887642  0.02489824  1
  O  O251  1  0.76308081  0.93894307  0.52048274  1
  O  O252  1  0.23858052  0.07871871  0.26279074  1
  O  O253  1  0.24657273  0.07228563  0.77033103  1
  O  O254  1  0.22900701  0.40707705  0.27804340  1
  O  O255  1  0.22974108  0.40019367  0.77922376  1
  O  O256  1  0.24003141  0.72999761  0.27251132  1
  O  O257  1  0.23786229  0.73939448  0.77952972  1
  O  O258  1  0.58323061  0.06744016  0.25649614  1
  O  O259  1  0.56946956  0.07918078  0.76529874  1
  O  O260  1  0.58029441  0.41195119  0.25827496  1
  O  O261  1  0.56588379  0.40242213  0.77645425  1
  O  O262  1  0.57736504  0.73135120  0.27966114  1
  O  O263  1  0.58070013  0.74218328  0.77271285  1
  O  O264  1  0.91118677  0.07430893  0.26199940  1
  O  O265  1  0.90283083  0.06119934  0.77185273  1
  O  O266  1  0.90303638  0.40789527  0.26934870  1
  O  O267  1  0.89730583  0.40043193  0.78189352  1
  O  O268  1  0.90023203  0.73744507  0.27667893  1
  O  O269  1  0.92068171  0.74697831  0.77851830  1
  O  O270  1  0.24370105  0.25255739  0.27257275  1
  O  O271  1  0.26062128  0.23762218  0.78160982  1
  O  O272  1  0.26973023  0.57874219  0.25765282  1
  O  O273  1  0.25548311  0.58340856  0.76983057  1
  O  O274  1  0.25603596  0.90330893  0.26394612  1
  O  O275  1  0.27104272  0.90279231  0.77156168  1
  O  O276  1  0.59498862  0.24863023  0.25682895  1
  O  O277  1  0.59105170  0.24155864  0.77494403  1
  O  O278  1  0.59684931  0.57804922  0.27077165  1
  O  O279  1  0.59452855  0.56119903  0.77305798  1
  O  O280  1  0.60898550  0.89016581  0.26660812  1
  O  O281  1  0.60622940  0.90212668  0.78239453  1
  O  O282  1  0.92946416  0.24240486  0.27031956  1
  O  O283  1  0.92122829  0.24748781  0.77191331  1
  O  O284  1  0.92364599  0.57607825  0.27211791  1
  O  O285  1  0.92651205  0.55840169  0.77726522  1
  O  O286  1  0.93101384  0.89629759  0.26993197  1
  O  O287  1  0.93526794  0.90445518  0.78384223  1
  O  O288  1  0.25158112  0.24763247  0.47319032  1
  O  O289  1  0.26268604  0.24093156  0.96885971  1
  O  O290  1  0.26678204  0.57954573  0.49020049  1
  O  O291  1  0.25385912  0.58228238  0.98177247  1
  O  O292  1  0.26165566  0.90487383  0.49213698  1
  O  O293  1  0.26124853  0.89235021  0.97417895  1
  O  O294  1  0.60268141  0.22855588  0.49568100  1
  O  O295  1  0.59155658  0.25015431  0.97775341  1
  O  O296  1  0.59059371  0.57987250  0.47763797  1
  O  O297  1  0.59545366  0.55727414  0.97686433  1
  O  O298  1  0.61033943  0.90369443  0.47503513  1
  O  O299  1  0.61125661  0.89494623  0.97981068  1
  O  O300  1  0.92851394  0.22675503  0.48183083  1
  O  O301  1  0.92684202  0.24299643  0.97609066  1
  O  O302  1  0.92565180  0.58051763  0.47778300  1
  O  O303  1  0.93543460  0.57053939  0.97693904  1
  O  O304  1  0.93166181  0.89847623  0.46665828  1
  O  O305  1  0.92809309  0.90091532  0.97608492  1
  O  O306  1  0.24301796  0.07785618  0.48212870  1
  O  O307  1  0.23507391  0.08290697  0.98068433  1
  O  O308  1  0.23603325  0.40695392  0.47331668  1
  O  O309  1  0.23401719  0.39826650  0.97324338  1
  O  O310  1  0.23914874  0.73098919  0.48461112  1
  O  O311  1  0.23674690  0.73545804  0.97142043  1
  O  O312  1  0.56974230  0.06602561  0.49025391  1
  O  O313  1  0.57772908  0.07286390  0.98964185  1
  O  O314  1  0.56561746  0.41114468  0.49903605  1
  O  O315  1  0.56793183  0.40286679  0.96969547  1
  O  O316  1  0.57849496  0.73644950  0.47181760  1
  O  O317  1  0.57931223  0.74027450  0.98237548  1
  O  O318  1  0.89466891  0.06933063  0.48775876  1
  O  O319  1  0.89981627  0.07339597  0.97811084  1
  O  O320  1  0.90284546  0.40264680  0.49369867  1
  O  O321  1  0.90413012  0.40174579  0.97091142  1
  O  O322  1  0.90730242  0.73447904  0.46518197  1
  O  O323  1  0.90956604  0.74110542  0.97835571  1
  O  O324  1  0.07690916  0.26105035  0.22293350  1
  O  O325  1  0.08223382  0.26141067  0.73569434  1
  O  O326  1  0.07922444  0.59351061  0.22226789  1
  O  O327  1  0.09599172  0.59931541  0.72334200  1
  O  O328  1  0.08269574  0.92399521  0.23718943  1
  O  O329  1  0.09611327  0.92721445  0.73306109  1
  O  O330  1  0.41884838  0.25584116  0.23854517  1
  O  O331  1  0.43661867  0.26308919  0.72578627  1
  O  O332  1  0.43143346  0.60281960  0.24361114  1
  O  O333  1  0.42090060  0.59108046  0.72725484  1
  O  O334  1  0.44664712  0.91912791  0.22429288  1
  O  O335  1  0.43270583  0.94009790  0.72855434  1
  O  O336  1  0.75338996  0.26222638  0.23644098  1
  O  O337  1  0.75489341  0.26457984  0.72591340  1
  O  O338  1  0.77035170  0.60043981  0.22916893  1
  O  O339  1  0.77027525  0.58890412  0.72414918  1
  O  O340  1  0.76019262  0.91730609  0.22110571  1
  O  O341  1  0.77574322  0.93588448  0.72650107  1
  O  O342  1  0.05861633  0.09512503  0.22418465  1
  O  O343  1  0.06300855  0.09169750  0.72359422  1
  O  O344  1  0.06007191  0.43029260  0.22097947  1
  O  O345  1  0.05967201  0.42650895  0.74127804  1
  O  O346  1  0.05893132  0.76036074  0.22573332  1
  O  O347  1  0.08319029  0.75799611  0.73845975  1
  O  O348  1  0.42071985  0.07974343  0.22865585  1
  O  O349  1  0.40300668  0.10363870  0.72601334  1
  O  O350  1  0.39857769  0.43984565  0.22176469  1
  O  O351  1  0.40208489  0.43267792  0.72359680  1
  O  O352  1  0.41170613  0.76273055  0.23542903  1
  O  O353  1  0.40246174  0.75604767  0.74055545  1
  O  O354  1  0.74012726  0.08431733  0.23320198  1
  O  O355  1  0.73820782  0.09755625  0.71564366  1
  O  O356  1  0.73760755  0.43784489  0.22640459  1
  O  O357  1  0.73651043  0.42302810  0.72763111  1
  O  O358  1  0.73844789  0.75930337  0.22003586  1
  O  O359  1  0.75087794  0.74976622  0.73481714  1
