# generated using pymatgen
data_BaLaInIrO6
_symmetry_space_group_name_H-M   'P 1'
_cell_length_a   17.53034217
_cell_length_b   17.56107054
_cell_length_c   16.48048939
_cell_angle_alpha   89.96111287
_cell_angle_beta   89.99257643
_cell_angle_gamma   89.96695317
_symmetry_Int_Tables_number   1
_chemical_formula_structural   BaLaInIrO6
_chemical_formula_sum   'Ba36 La36 In36 Ir36 O216'
_cell_volume   5073.54256907
_cell_formula_units_Z   36
loop_
 _symmetry_equiv_pos_site_id
 _symmetry_equiv_pos_as_xyz
  1  'x, y, z'
loop_
 _atom_site_type_symbol
 _atom_site_label
 _atom_site_symmetry_multiplicity
 _atom_site_fract_x
 _atom_site_fract_y
 _atom_site_fract_z
 _atom_site_occupancy
  Ba  Ba0  1  0.16548887  0.34582555  0.62789922  1
  Ba  Ba1  1  0.83539152  0.34056361  0.12484757  1
  Ba  Ba2  1  0.83080411  0.99456908  0.37691285  1
  Ba  Ba3  1  0.50109822  0.67161584  0.62667554  1
  Ba  Ba4  1  0.83501043  0.67212339  0.12728105  1
  Ba  Ba5  1  0.50114191  0.34022756  0.62609891  1
  Ba  Ba6  1  0.83544343  0.65995106  0.37779459  1
  Ba  Ba7  1  0.82900661  0.99501867  0.87611599  1
  Ba  Ba8  1  0.66896302  0.82962014  0.87844806  1
  Ba  Ba9  1  0.67217445  0.49409832  0.37386251  1
  Ba  Ba10  1  0.33157979  0.84773987  0.12910872  1
  Ba  Ba11  1  0.83388705  0.00293567  0.62244662  1
  Ba  Ba12  1  0.83358280  0.66403399  0.87608733  1
  Ba  Ba13  1  0.49612251  0.00868243  0.12559956  1
  Ba  Ba14  1  0.49871632  0.00689930  0.62093477  1
  Ba  Ba15  1  0.66712848  0.17308887  0.62202457  1
  Ba  Ba16  1  1.00129779  0.17402781  0.12340690  1
  Ba  Ba17  1  0.83074071  0.00152476  0.12866338  1
  Ba  Ba18  1  0.66868031  0.84052352  0.62318161  1
  Ba  Ba19  1  0.17146036  0.99213411  0.87525785  1
  Ba  Ba20  1  0.33652568  0.17811353  0.12241016  1
  Ba  Ba21  1  0.66246702  0.83784783  0.12817143  1
  Ba  Ba22  1  0.00053233  0.15173804  0.87333596  1
  Ba  Ba23  1  0.16860897  0.31690194  0.37762411  1
  Ba  Ba24  1  0.67183514  0.17119105  0.12416750  1
  Ba  Ba25  1  0.66100051  0.50389853  0.12517775  1
  Ba  Ba26  1  0.67002213  0.82853412  0.37775219  1
  Ba  Ba27  1  0.16647391  0.65549041  0.87806820  1
  Ba  Ba28  1  0.83096942  0.67524144  0.62657864  1
  Ba  Ba29  1  0.66854771  0.49877699  0.87569906  1
  Ba  Ba30  1  -0.00469995  0.82290247  0.37642588  1
  Ba  Ba31  1  0.66961698  0.15847385  0.37487618  1
  Ba  Ba32  1  0.83648900  0.32472816  0.37181558  1
  Ba  Ba33  1  0.50385093  0.32166679  0.87260499  1
  Ba  Ba34  1  0.33201389  0.15787656  0.87011587  1
  Ba  Ba35  1  0.33482024  0.17460639  0.62383705  1
  La  La36  1  0.32832153  0.82038207  0.87688576  1
  La  La37  1  0.33759147  0.84249371  0.62601110  1
  La  La38  1  -0.00712222  0.48534460  0.37574047  1
  La  La39  1  0.33127333  0.48363216  0.38047877  1
  La  La40  1  0.32798255  0.14753679  0.37362856  1
  La  La41  1  0.16589169  0.01618337  0.12495287  1
  La  La42  1  0.50709084  0.31624901  0.37430473  1
  La  La43  1  0.33357095  0.51174554  0.62707190  1
  La  La44  1  0.17287915  0.32015374  0.87498983  1
  La  La45  1  0.99711408  0.84538473  0.62732050  1
  La  La46  1  0.82754157  0.34765951  0.62228364  1
  La  La47  1  1.00819885  0.18481385  0.61889779  1
  La  La48  1  0.50797991  0.65921096  0.37407284  1
  La  La49  1  0.50579245  0.33706241  0.12851069  1
  La  La50  1  1.00628217  0.52151166  0.62349300  1
  La  La51  1  0.15937382  0.01659158  0.62511113  1
  La  La52  1  0.50653134  0.65635797  0.88074514  1
  La  La53  1  -0.00616823  0.15135027  0.37446141  1
  La  La54  1  0.83722036  0.31673116  0.87747169  1
  La  La55  1  0.67576378  0.51429779  0.62119818  1
  La  La56  1  0.33334358  0.82027900  0.37509988  1
  La  La57  1  0.15972478  0.68587332  0.62493303  1
  La  La58  1  1.00538375  0.51511718  0.12476855  1
  La  La59  1  0.50297004  0.99062117  0.87570085  1
  La  La60  1  0.16766882  0.65166458  0.37718501  1
  La  La61  1  0.50195454  0.98377806  0.37615124  1
  La  La62  1  0.15957561  0.35219474  0.12593018  1
  La  La63  1  -0.00688320  0.48655588  0.87174806  1
  La  La64  1  0.33770625  0.51536869  0.12401187  1
  La  La65  1  0.15915010  0.68481132  0.12766155  1
  La  La66  1  0.32842113  0.48709175  0.87266977  1
  La  La67  1  1.00529196  0.85141152  0.12685527  1
  La  La68  1  -0.00834023  0.82170551  0.87548394  1
  La  La69  1  0.66564395  0.14800420  0.87282465  1
  La  La70  1  0.17187220  0.97983160  0.37371705  1
  La  La71  1  0.49606333  0.68605780  0.12339008  1
  In  In72  1  0.16765980  0.50089324  0.25284371  1
  In  In73  1  0.49434416  0.49750232  -0.00154146  1
  In  In74  1  0.50040820  0.16680642  -0.00331992  1
  In  In75  1  0.16579414  0.83417102  -0.00248647  1
  In  In76  1  0.49678744  0.16440908  0.25101959  1
  In  In77  1  0.83755524  0.50219414  0.74845623  1
  In  In78  1  0.67003340  0.33522080  0.74809634  1
  In  In79  1  0.83796801  0.16546283  0.74434990  1
  In  In80  1  0.83593997  0.83091112  0.25146388  1
  In  In81  1  0.32900010  0.66635081  0.75123857  1
  In  In82  1  0.17018123  0.16937497  0.00275274  1
  In  In83  1  0.66224871  -0.00306156  0.00337894  1
  In  In84  1  0.33346253  0.33296960  0.74708336  1
  In  In85  1  0.32819445  -0.00344172  0.50014405  1
  In  In86  1  0.66423504  0.67050912  0.75141902  1
  In  In87  1  0.00520308  -0.00314002  0.49773438  1
  In  In88  1  0.66762895  0.66580651  0.00541290  1
  In  In89  1  0.83629025  0.16433173  0.24918333  1
  In  In90  1  0.83650100  0.50236471  0.24680934  1
  In  In91  1  0.83819916  0.16627932  0.50187515  1
  In  In92  1  0.83346074  0.83476820  0.74990199  1
  In  In93  1  0.32929620  0.33431194  0.24837586  1
  In  In94  1  0.00496068  0.33529209  -0.00212452  1
  In  In95  1  0.83537615  0.16416025  -0.00176816  1
  In  In96  1  0.83615805  0.83244095  0.00517892  1
  In  In97  1  0.33167171  0.66537560  0.50103280  1
  In  In98  1  0.66706518  0.33260496  0.25021660  1
  In  In99  1  0.33021364  -0.00302624  0.74998755  1
  In  In100  1  0.49890987  0.50110882  0.74824998  1
  In  In101  1  0.66946525  0.33212542  -0.00601581  1
  In  In102  1  0.16397938  0.16758309  0.74825807  1
  In  In103  1  0.49220017  0.50126826  0.25191938  1
  In  In104  1  0.66671745  0.33489337  0.49923644  1
  In  In105  1  0.49873143  0.49931831  0.50040099  1
  In  In106  1  0.33266731  0.66635565  0.25212062  1
  In  In107  1  0.16508253  0.49888997  0.50172559  1
  Ir  Ir108  1  0.00583078  0.66511916  0.00195415  1
  Ir  Ir109  1  0.00459805  0.67105940  0.50254069  1
  Ir  Ir110  1  0.66679897  0.66820210  0.49533417  1
  Ir  Ir111  1  0.16575051  0.83286978  0.74880895  1
  Ir  Ir112  1  0.66109595  -0.00079817  0.74518645  1
  Ir  Ir113  1  0.84248228  0.50279714  0.50082851  1
  Ir  Ir114  1  0.49393741  0.83599885  0.25216483  1
  Ir  Ir115  1  0.49309379  0.83621428  0.74931992  1
  Ir  Ir116  1  0.00141616  0.33539471  0.50169088  1
  Ir  Ir117  1  0.83622538  0.82997639  0.50131372  1
  Ir  Ir118  1  0.00697185  0.66863060  0.75023134  1
  Ir  Ir119  1  0.16750082  0.83164712  0.49985439  1
  Ir  Ir120  1  0.49291560  0.16542522  0.49896351  1
  Ir  Ir121  1  0.16170521  0.50167175  0.75402874  1
  Ir  Ir122  1  0.00048733  0.33738967  0.74715354  1
  Ir  Ir123  1  0.16807567  0.50309059  -0.00157285  1
  Ir  Ir124  1  0.33094367  0.66665302  0.00131498  1
  Ir  Ir125  1  0.16614037  0.16253122  0.25372152  1
  Ir  Ir126  1  0.00541334  -0.00510013  0.75064750  1
  Ir  Ir127  1  0.66152318  0.66805699  0.25316428  1
  Ir  Ir128  1  0.48763343  0.83405704  -0.00203039  1
  Ir  Ir129  1  0.00610916  -0.00352071  0.00074101  1
  Ir  Ir130  1  0.32956905  -0.00204496  0.25235711  1
  Ir  Ir131  1  0.01050065  0.00024512  0.24794842  1
  Ir  Ir132  1  0.16477563  0.16676413  0.49478239  1
  Ir  Ir133  1  0.00815888  0.33388356  0.25133895  1
  Ir  Ir134  1  0.33395622  0.33043325  0.49797118  1
  Ir  Ir135  1  0.33394756  -0.00193486  0.00024969  1
  Ir  Ir136  1  0.16601848  0.83261206  0.25415517  1
  Ir  Ir137  1  0.00718255  0.66774580  0.25057870  1
  Ir  Ir138  1  0.66096327  -0.00475511  0.25666242  1
  Ir  Ir139  1  0.32683507  0.34012956  -0.00005566  1
  Ir  Ir140  1  0.50040479  0.16179762  0.74664864  1
  Ir  Ir141  1  0.66172892  -0.00208585  0.49941499  1
  Ir  Ir142  1  0.49623741  0.83278098  0.50390753  1
  Ir  Ir143  1  0.84091372  0.50174282  -0.00171683  1
  O  O144  1  0.29499363  0.33589699  0.11816346  1
  O  O145  1  0.31216278  0.32786693  0.61624086  1
  O  O146  1  0.29436699  0.65607262  0.12126731  1
  O  O147  1  0.29165123  0.65954562  0.62548052  1
  O  O148  1  0.30134535  0.99817110  0.12684988  1
  O  O149  1  0.29419379  0.98117479  0.62230980  1
  O  O150  1  0.63816812  0.32741867  0.12240738  1
  O  O151  1  0.64809829  0.33039676  0.62236921  1
  O  O152  1  0.63295909  0.66691170  0.13414263  1
  O  O153  1  0.65125783  0.65958146  0.61569639  1
  O  O154  1  0.64585956  0.99977951  0.13693021  1
  O  O155  1  0.64591734  0.99831779  0.62121331  1
  O  O156  1  0.99110544  0.33051042  0.13147028  1
  O  O157  1  0.96795448  0.32336228  0.62413638  1
  O  O158  1  0.98595100  0.65033815  0.12588979  1
  O  O159  1  0.98189069  0.65785822  0.62595171  1
  O  O160  1  0.98344767  0.99122006  0.12355848  1
  O  O161  1  0.99091476  0.98613842  0.63018213  1
  O  O162  1  0.18810118  0.15440506  0.13266314  1
  O  O163  1  0.18379711  0.15846188  0.61560783  1
  O  O164  1  0.19908950  0.49580445  0.11847687  1
  O  O165  1  0.19325148  0.50110387  0.63293094  1
  O  O166  1  0.18439437  0.82247004  0.13260134  1
  O  O167  1  0.19994691  0.82272879  0.62364782  1
  O  O168  1  0.51539768  0.16918023  0.12385197  1
  O  O169  1  0.51875570  0.16307302  0.62251452  1
  O  O170  1  0.50375598  0.47522925  0.12513424  1
  O  O171  1  0.54000737  0.49866093  0.62262883  1
  O  O172  1  0.51305850  0.82424346  0.12531799  1
  O  O173  1  0.52128054  0.82799142  0.62787382  1
  O  O174  1  0.85210889  0.15419764  0.12469916  1
  O  O175  1  0.87535096  0.15547511  0.62413828  1
  O  O176  1  0.87096014  0.50110425  0.11830923  1
  O  O177  1  0.87268825  0.49642093  0.61949904  1
  O  O178  1  0.86959402  0.83376037  0.12932172  1
  O  O179  1  0.85975125  0.83287717  0.62224347  1
  O  O180  1  0.13249625  0.16503797  0.37414792  1
  O  O181  1  0.14991402  0.17705296  0.87609235  1
  O  O182  1  0.12706109  0.51315537  0.37720318  1
  O  O183  1  0.12949759  0.50428210  0.87687821  1
  O  O184  1  0.14135010  0.84427033  0.37728779  1
  O  O185  1  0.13170975  0.83670568  0.86821353  1
  O  O186  1  0.46210438  0.17446321  0.38043393  1
  O  O187  1  0.48042214  0.15803341  0.86511180  1
  O  O188  1  0.46090933  0.52494965  0.37665852  1
  O  O189  1  0.46016807  0.51921259  0.87589173  1
  O  O190  1  0.46671485  0.84314270  0.37831429  1
  O  O191  1  0.46051670  0.84795132  0.87296808  1
  O  O192  1  0.82694250  0.16576280  0.37504568  1
  O  O193  1  0.80790590  0.17331969  0.86778010  1
  O  O194  1  0.82726510  0.50429159  0.37991341  1
  O  O195  1  0.82447665  0.50737250  0.87914855  1
  O  O196  1  0.82500278  0.83196636  0.37980201  1
  O  O197  1  0.83483531  0.83503327  0.87674396  1
  O  O198  1  0.03866872  0.00596786  0.36844604  1
  O  O199  1  0.02533650  -0.00980653  0.87526839  1
  O  O200  1  0.02567833  0.35127222  0.37763666  1
  O  O201  1  0.03684638  0.34918452  0.86526998  1
  O  O202  1  0.03504758  0.67450741  0.37551045  1
  O  O203  1  0.02314221  0.68696401  0.87568340  1
  O  O204  1  0.35738513  0.00297941  0.37265440  1
  O  O205  1  0.36074797  -0.00212095  0.87965709  1
  O  O206  1  0.36276675  0.34158304  0.38032676  1
  O  O207  1  0.34965951  0.34736740  0.87934120  1
  O  O208  1  0.36880522  0.68456874  0.37765230  1
  O  O209  1  0.36413584  0.67948516  0.88119416  1
  O  O210  1  0.67921939  -0.00792437  0.37870601  1
  O  O211  1  0.67321574  0.00210539  0.86468483  1
  O  O212  1  0.68750721  0.33481638  0.37677465  1
  O  O213  1  0.70764363  0.34476081  0.86968622  1
  O  O214  1  0.68466830  0.67150697  0.37458551  1
  O  O215  1  0.67873232  0.67181423  0.87913039  1
  O  O216  1  0.07788082  0.08651891  0.01690433  1
  O  O217  1  0.07404815  0.09942905  0.52191167  1
  O  O218  1  0.07453247  0.43884176  0.02482366  1
  O  O219  1  0.06331303  0.43315101  0.52529025  1
  O  O220  1  0.07125521  0.75900545  0.02889258  1
  O  O221  1  0.07041119  0.76783504  0.53050063  1
  O  O222  1  0.40147591  0.08995284  0.01353076  1
  O  O223  1  0.40266167  0.09392052  0.51033711  1
  O  O224  1  0.38133375  0.43933469  0.01341960  1
  O  O225  1  0.39349395  0.42718955  0.52057899  1
  O  O226  1  0.39794261  0.75902098  0.02524062  1
  O  O227  1  0.40211014  0.76658371  0.52570966  1
  O  O228  1  0.73467228  0.09372617  -0.00319367  1
  O  O229  1  0.73984789  0.08248549  0.51187577  1
  O  O230  1  0.75315213  0.43411111  0.01721130  1
  O  O231  1  0.74931320  0.43576771  0.52396284  1
  O  O232  1  0.74378657  0.75591703  0.02151663  1
  O  O233  1  0.74333758  0.75801315  0.51494638  1
  O  O234  1  0.10750927  0.27362762  0.01736093  1
  O  O235  1  0.09377301  0.26103614  0.52353886  1
  O  O236  1  0.10287798  0.59760105  0.02863323  1
  O  O237  1  0.09918087  0.60681695  0.52353609  1
  O  O238  1  0.09908924  0.93079973  0.03001227  1
  O  O239  1  0.10787815  0.93019983  0.52077412  1
  O  O240  1  0.42378395  0.27811215  0.02090617  1
  O  O241  1  0.42787211  0.26135961  0.51673597  1
  O  O242  1  0.42071170  0.60128951  0.03015734  1
  O  O243  1  0.41510076  0.58417486  0.53263714  1
  O  O244  1  0.42291291  0.92904197  0.01594578  1
  O  O245  1  0.42144970  0.91853847  0.52043081  1
  O  O246  1  0.77090521  0.26741218  0.00565618  1
  O  O247  1  0.76971344  0.26402842  0.52342172  1
  O  O248  1  0.76738848  0.58737119  0.01750359  1
  O  O249  1  0.76028884  0.58965607  0.52050420  1
  O  O250  1  0.75384397  0.92168274  0.01334630  1
  O  O251  1  0.76178835  0.92166407  0.51502050  1
  O  O252  1  0.22987834  0.06238658  0.27493418  1
  O  O253  1  0.23563230  0.07038688  0.75413651  1
  O  O254  1  0.22818050  0.39861269  0.26350251  1
  O  O255  1  0.22770348  0.41055321  0.77862925  1
  O  O256  1  0.23153512  0.73853022  0.27900415  1
  O  O257  1  0.23417360  0.74321684  0.77151900  1
  O  O258  1  0.56743927  0.06338096  0.27774668  1
  O  O259  1  0.56765652  0.06782049  0.76938616  1
  O  O260  1  0.55868885  0.40042905  0.26810800  1
  O  O261  1  0.57513241  0.40978620  0.77200005  1
  O  O262  1  0.55985107  0.73645900  0.26786308  1
  O  O263  1  0.55970844  0.74835742  0.77646617  1
  O  O264  1  0.92388526  0.07317604  0.27126999  1
  O  O265  1  0.91410901  0.06215479  0.76657792  1
  O  O266  1  0.91987870  0.40634992  0.26651822  1
  O  O267  1  0.91036908  0.40400735  0.77487088  1
  O  O268  1  0.91479804  0.73328335  0.26507926  1
  O  O269  1  0.91904954  0.73993177  0.76330783  1
  O  O270  1  0.26132202  0.22487938  0.27557239  1
  O  O271  1  0.25033377  0.25056525  0.76644631  1
  O  O272  1  0.26249074  0.57173727  0.28613066  1
  O  O273  1  0.25622582  0.56462533  0.77799022  1
  O  O274  1  0.26259241  0.90006421  0.27980306  1
  O  O275  1  0.26110337  0.89433322  0.77574456  1
  O  O276  1  0.58469869  0.24148320  0.27740265  1
  O  O277  1  0.59578320  0.22702373  0.76804884  1
  O  O278  1  0.58796555  0.58211313  0.27290453  1
  O  O279  1  0.57738104  0.58984423  0.77484439  1
  O  O280  1  0.58410342  0.90647173  0.27415527  1
  O  O281  1  0.58165334  0.91036998  0.77302136  1
  O  O282  1  0.94591129  0.24018519  0.27304506  1
  O  O283  1  0.93442385  0.24854363  0.77136957  1
  O  O284  1  0.94464382  0.56942576  0.26586558  1
  O  O285  1  0.94291364  0.57163208  0.76688194  1
  O  O286  1  0.93923243  0.91135185  0.25977875  1
  O  O287  1  0.94391829  0.89750459  0.76148309  1
  O  O288  1  0.26665072  0.23077624  0.47283477  1
  O  O289  1  0.26524921  0.24660801  0.97833646  1
  O  O290  1  0.25749439  0.57134108  0.46761461  1
  O  O291  1  0.26712422  0.56832291  0.97424505  1
  O  O292  1  0.26119566  0.89526658  0.47124962  1
  O  O293  1  0.26644324  0.90348785  0.97734834  1
  O  O294  1  0.58089324  0.23569536  0.48046181  1
  O  O295  1  0.60087133  0.23052266  0.96728610  1
  O  O296  1  0.59160148  0.58394043  0.47598709  1
  O  O297  1  0.58139873  0.58243017  0.98747266  1
  O  O298  1  0.58164053  0.90893823  0.47795071  1
  O  O299  1  0.57628103  0.90520274  0.97939068  1
  O  O300  1  0.94504414  0.23768367  0.48048109  1
  O  O301  1  0.93031322  0.24394090  0.97590143  1
  O  O302  1  0.94341582  0.56955132  0.48162950  1
  O  O303  1  0.94318757  0.56708501  0.97984875  1
  O  O304  1  0.92957614  0.89967417  0.49513020  1
  O  O305  1  0.94604295  0.89839974  0.99017130  1
  O  O306  1  0.23064730  0.07128844  0.47031478  1
  O  O307  1  0.24387667  0.06773230  0.99083266  1
  O  O308  1  0.24477402  0.40391739  0.47914368  1
  O  O309  1  0.22827924  0.40475995  0.97250136  1
  O  O310  1  0.22890798  0.73622735  0.47490362  1
  O  O311  1  0.24325840  0.73990731  0.98086087  1
  O  O312  1  0.56284089  0.06759378  0.47535909  1
  O  O313  1  0.56721674  0.06631725  0.97533234  1
  O  O314  1  0.56549839  0.40365410  0.46831323  1
  O  O315  1  0.57296069  0.40664074  0.98335590  1
  O  O316  1  0.57044902  0.73857870  0.47525587  1
  O  O317  1  0.55444531  0.74152433  0.98594924  1
  O  O318  1  0.91893452  0.07496641  0.47667307  1
  O  O319  1  0.91563014  0.06445118  0.98367624  1
  O  O320  1  0.91017654  0.40841753  0.47935467  1
  O  O321  1  0.91070934  0.41074324  0.97100722  1
  O  O322  1  0.90843399  0.73683827  0.48871033  1
  O  O323  1  0.91827346  0.73584659  0.98638472  1
  O  O324  1  0.10591448  0.26340957  0.22845292  1
  O  O325  1  0.08377902  0.26100600  0.72530594  1
  O  O326  1  0.10331010  0.60566882  0.22984625  1
  O  O327  1  0.09920056  0.59832818  0.72425638  1
  O  O328  1  0.10469621  0.93050813  0.22507018  1
  O  O329  1  0.10231580  0.92810900  0.72147989  1
  O  O330  1  0.42920655  0.27138573  0.22851616  1
  O  O331  1  0.42850719  0.25168577  0.73670772  1
  O  O332  1  0.42833994  0.60302121  0.21421414  1
  O  O333  1  0.41211460  0.58705916  0.72021187  1
  O  O334  1  0.42780352  0.93420118  0.23991873  1
  O  O335  1  0.42027202  0.91993017  0.72213197  1
  O  O336  1  0.75958057  0.25433981  0.23233303  1
  O  O337  1  0.77403765  0.26747680  0.72325326  1
  O  O338  1  0.75115692  0.59664235  0.23833276  1
  O  O339  1  0.75194995  0.58559324  0.73055650  1
  O  O340  1  0.74969773  0.92071684  0.24209568  1
  O  O341  1  0.75191053  0.92915629  0.73573117  1
  O  O342  1  0.07821611  0.09124391  0.22782474  1
  O  O343  1  0.06885885  0.09013631  0.72327304  1
  O  O344  1  0.06997634  0.43060402  0.22349628  1
  O  O345  1  0.06358743  0.43794140  0.72546048  1
  O  O346  1  0.07059651  0.76609726  0.22508374  1
  O  O347  1  0.07255481  0.76576592  0.72037170  1
  O  O348  1  0.39274441  0.09406616  0.24159340  1
  O  O349  1  0.41012218  0.09010534  0.73069008  1
  O  O350  1  0.38053709  0.44625386  0.24196494  1
  O  O351  1  0.39595080  0.43193521  0.72732140  1
  O  O352  1  0.40330200  0.76792620  0.23739241  1
  O  O353  1  0.39930292  0.76850067  0.73077013  1
  O  O354  1  0.73784640  0.07845023  0.24544424  1
  O  O355  1  0.73269748  0.08873737  0.73697148  1
  O  O356  1  0.74507432  0.42833577  0.23331011  1
  O  O357  1  0.74777671  0.42931225  0.70961367  1
  O  O358  1  0.73714993  0.75309582  0.23740480  1
  O  O359  1  0.74226585  0.75968837  0.73649627  1
