# generated using pymatgen
data_BaLaInIrO6
_symmetry_space_group_name_H-M   'P 1'
_cell_length_a   17.51667644
_cell_length_b   17.54131122
_cell_length_c   16.48648866
_cell_angle_alpha   89.96797372
_cell_angle_beta   90.00822309
_cell_angle_gamma   90.04781120
_symmetry_Int_Tables_number   1
_chemical_formula_structural   BaLaInIrO6
_chemical_formula_sum   'Ba36 La36 In36 Ir36 O216'
_cell_volume   5065.72613057
_cell_formula_units_Z   36
loop_
 _symmetry_equiv_pos_site_id
 _symmetry_equiv_pos_as_xyz
  1  'x, y, z'
loop_
 _atom_site_type_symbol
 _atom_site_label
 _atom_site_symmetry_multiplicity
 _atom_site_fract_x
 _atom_site_fract_y
 _atom_site_fract_z
 _atom_site_occupancy
  Ba  Ba0  1  0.83248421  0.99148630  0.87529077  1
  Ba  Ba1  1  0.17063141  0.01199347  0.63065056  1
  Ba  Ba2  1  0.50181629  0.66172612  0.86762142  1
  Ba  Ba3  1  0.49512668  0.00602139  0.63079007  1
  Ba  Ba4  1  0.83159847  0.99677520  0.37400966  1
  Ba  Ba5  1  0.50298976  0.98683399  0.38186921  1
  Ba  Ba6  1  0.50464812  0.32840389  0.87625417  1
  Ba  Ba7  1  0.50023210  0.65889139  0.37617176  1
  Ba  Ba8  1  0.66623486  0.49283107  0.37516978  1
  Ba  Ba9  1  0.83346937  0.33975889  0.62204818  1
  Ba  Ba10  1  0.83114436  0.67709123  0.12708213  1
  Ba  Ba11  1  0.83152948  0.00871605  0.12307924  1
  Ba  Ba12  1  0.66346833  0.17206761  0.62561420  1
  Ba  Ba13  1  0.16648813  0.34390208  0.62198515  1
  Ba  Ba14  1  0.66700056  0.15696780  0.38083401  1
  Ba  Ba15  1  0.66110036  0.49493322  0.86884105  1
  Ba  Ba16  1  0.33355155  0.48698397  0.37092143  1
  Ba  Ba17  1  0.83059859  0.67175605  0.62244136  1
  Ba  Ba18  1  0.82805688  0.65700338  0.37519216  1
  Ba  Ba19  1  1.00048821  0.50531928  0.62524683  1
  Ba  Ba20  1  0.66630172  0.17273404  0.12601859  1
  Ba  Ba21  1  0.66738564  0.82584754  0.87469679  1
  Ba  Ba22  1  0.33529912  0.17994304  0.12698611  1
  Ba  Ba23  1  0.33263886  0.82459422  0.87434045  1
  Ba  Ba24  1  0.67106374  0.50905937  0.62023966  1
  Ba  Ba25  1  0.16383994  0.99386794  0.87602133  1
  Ba  Ba26  1  0.16697600  0.34444839  0.12302680  1
  Ba  Ba27  1  0.66911964  0.15788250  0.87513451  1
  Ba  Ba28  1  0.83115114  0.32736967  0.37606079  1
  Ba  Ba29  1  0.33822993  0.84215204  0.62873908  1
  Ba  Ba30  1  0.50201124  0.67574182  0.62109839  1
  Ba  Ba31  1  0.83321846  0.65733553  0.87748595  1
  Ba  Ba32  1  0.99917641  0.84483333  0.12579472  1
  Ba  Ba33  1  0.16970293  0.32603672  0.87235445  1
  Ba  Ba34  1  0.16390299  0.01956494  0.12437055  1
  Ba  Ba35  1  0.33504162  0.49114116  0.86981840  1
  La  La36  1  0.82454527  0.00834288  0.62986105  1
  La  La37  1  0.82968046  0.32928253  0.87567611  1
  La  La38  1  0.33022882  0.81107902  0.38025129  1
  La  La39  1  0.83633863  0.34569380  0.12432502  1
  La  La40  1  0.50899702  0.31826358  0.37253474  1
  La  La41  1  0.66286668  0.82344589  0.37889519  1
  La  La42  1  0.17418258  0.98161430  0.37606857  1
  La  La43  1  0.16111784  0.68016858  0.62330843  1
  La  La44  1  -0.00601547  0.48312467  0.37524511  1
  La  La45  1  0.49644968  0.34732871  0.61992260  1
  La  La46  1  0.49409262  0.68154534  0.12297744  1
  La  La47  1  1.00473675  0.84423788  0.62404369  1
  La  La48  1  0.66711065  0.83706500  0.62339586  1
  La  La49  1  0.16264713  0.68064938  0.12643281  1
  La  La50  1  0.49131537  0.35102717  0.12724174  1
  La  La51  1  0.49435985  0.01716835  0.12349445  1
  La  La52  1  -0.00399485  0.81980271  0.37466116  1
  La  La53  1  0.32824571  0.15050636  0.37606526  1
  La  La54  1  0.17043491  0.31732258  0.37322775  1
  La  La55  1  0.17613706  0.65215155  0.87445765  1
  La  La56  1  1.00185338  0.18366425  0.62683372  1
  La  La57  1  0.17204541  0.64650723  0.37103751  1
  La  La58  1  -0.00154059  0.47922894  0.87774588  1
  La  La59  1  1.00201774  0.17596501  0.12638528  1
  La  La60  1  0.34144964  0.18156810  0.62858941  1
  La  La61  1  0.33916049  0.84881438  0.12009438  1
  La  La62  1  0.32824179  0.15990181  0.87586058  1
  La  La63  1  1.00698026  0.51189506  0.12616976  1
  La  La64  1  0.33748736  0.51625540  0.61951518  1
  La  La65  1  -0.00996516  0.82095443  0.87478584  1
  La  La66  1  0.50385857  0.98628289  0.87875489  1
  La  La67  1  0.33592804  0.51353020  0.12452330  1
  La  La68  1  -0.00277563  0.15636496  0.37579935  1
  La  La69  1  -0.00601179  0.15381365  0.87240121  1
  La  La70  1  0.67276382  0.84826034  0.12806183  1
  La  La71  1  0.66324984  0.50872249  0.12288498  1
  In  In72  1  0.66522995  0.33397859  0.00311690  1
  In  In73  1  0.33357974  0.66666757  0.74919415  1
  In  In74  1  0.83368754  0.49908158  0.00090169  1
  In  In75  1  0.83446731  0.49627176  0.75157210  1
  In  In76  1  0.00220465  0.00168467  0.50154718  1
  In  In77  1  0.00191979  0.66448817  0.49797591  1
  In  In78  1  0.83582392  0.16639305  0.50053716  1
  In  In79  1  0.33155996  0.33647847  0.00012858  1
  In  In80  1  0.83490495  0.50083057  0.24705158  1
  In  In81  1  0.00644741  0.00188164  0.25480074  1
  In  In82  1  0.83442042  0.83140264  0.74795536  1
  In  In83  1  0.16857919  0.49863025  0.74600387  1
  In  In84  1  0.49794068  0.83246024  0.24997719  1
  In  In85  1  0.33319597  -0.00248555  0.25187062  1
  In  In86  1  0.66535512  0.33262996  0.50005068  1
  In  In87  1  0.66188139  -0.00013033  0.25268635  1
  In  In88  1  0.33178130  0.00336087  -0.00071718  1
  In  In89  1  0.00326602  0.66287191  0.75008802  1
  In  In90  1  0.33362258  0.33415936  0.49664456  1
  In  In91  1  0.16818347  0.16485513  0.50329121  1
  In  In92  1  0.49922482  0.17132036  -0.00109250  1
  In  In93  1  0.16535533  0.83458759  -0.00014219  1
  In  In94  1  0.16348444  0.83399471  0.75177370  1
  In  In95  1  0.83228101  0.16781984  0.75013430  1
  In  In96  1  0.17086692  0.83250658  0.24972101  1
  In  In97  1  0.00463079  0.66447826  -0.00155452  1
  In  In98  1  0.83434551  0.16861626  0.24874872  1
  In  In99  1  0.49683672  0.16354362  0.50136944  1
  In  In100  1  0.33364393  0.00331292  0.75259411  1
  In  In101  1  0.66723517  0.66715656  0.74863766  1
  In  In102  1  -0.00182630  0.00048939  0.74718999  1
  In  In103  1  0.83277187  0.83455174  0.25451335  1
  In  In104  1  0.00190493  0.66470770  0.25174827  1
  In  In105  1  0.49727328  0.50444287  -0.00240375  1
  In  In106  1  0.66571499  0.33431815  0.24548190  1
  In  In107  1  0.83182069  0.83367405  0.00078911  1
  Ir  Ir108  1  0.16781073  0.17260295  0.75243452  1
  Ir  Ir109  1  0.00383557  0.32971614  0.75253955  1
  Ir  Ir110  1  0.33201934  -0.00286047  0.49917337  1
  Ir  Ir111  1  0.66061755  0.66693807  0.00536179  1
  Ir  Ir112  1  0.16902951  0.49732523  0.24803291  1
  Ir  Ir113  1  0.83552935  0.49897488  0.49692536  1
  Ir  Ir114  1  0.16860120  0.50045220  0.49317548  1
  Ir  Ir115  1  0.33643531  0.33479275  0.25287791  1
  Ir  Ir116  1  0.49483596  0.16782457  0.25259785  1
  Ir  Ir117  1  0.33616230  0.33160377  0.74774971  1
  Ir  Ir118  1  0.49702697  0.17073609  0.75127993  1
  Ir  Ir119  1  0.33025791  0.66534432  0.00386470  1
  Ir  Ir120  1  0.50222301  0.83565715  0.75171484  1
  Ir  Ir121  1  0.66133828  -0.00072653  0.75053508  1
  Ir  Ir122  1  0.66053696  -0.00078072  -0.00195462  1
  Ir  Ir123  1  0.49741178  0.50153088  0.25142887  1
  Ir  Ir124  1  0.50371379  0.83187999  0.00231000  1
  Ir  Ir125  1  0.66232234  0.33238455  0.74779639  1
  Ir  Ir126  1  0.00055219  0.32790436  0.00097616  1
  Ir  Ir127  1  0.00752161  0.33804468  0.49784461  1
  Ir  Ir128  1  0.16634742  0.17369042  0.25157454  1
  Ir  Ir129  1  0.16699606  0.50115652  0.00414274  1
  Ir  Ir130  1  0.49594910  0.50264496  0.49758000  1
  Ir  Ir131  1  0.49646577  0.83218217  0.50188194  1
  Ir  Ir132  1  0.49832547  0.49680699  0.74079539  1
  Ir  Ir133  1  0.83360124  0.83301356  0.49845738  1
  Ir  Ir134  1  0.33018330  0.66294664  0.24660291  1
  Ir  Ir135  1  0.66644074  -0.00824953  0.50850741  1
  Ir  Ir136  1  0.00695380  0.33314237  0.24969681  1
  Ir  Ir137  1  0.65791757  0.66431022  0.24644248  1
  Ir  Ir138  1  0.16215787  0.17179038  -0.00228789  1
  Ir  Ir139  1  0.66431840  0.66893344  0.49507027  1
  Ir  Ir140  1  0.83919778  0.16890266  0.00036854  1
  Ir  Ir141  1  0.16732799  0.83228788  0.49917956  1
  Ir  Ir142  1  0.00041701  0.00682291  0.00083250  1
  Ir  Ir143  1  0.32762612  0.66499158  0.49477920  1
  O  O144  1  0.31631594  0.33703705  0.13423922  1
  O  O145  1  0.31426042  0.32189565  0.62879388  1
  O  O146  1  0.29972565  0.65456098  0.12577658  1
  O  O147  1  0.30038964  0.65827627  0.61602951  1
  O  O148  1  0.31228104  0.98868964  0.12648998  1
  O  O149  1  0.32087331  0.99910650  0.62043331  1
  O  O150  1  0.62392688  0.32873052  0.12731116  1
  O  O151  1  0.63265290  0.33039759  0.62791981  1
  O  O152  1  0.63106358  0.64938061  0.12660333  1
  O  O153  1  0.65223959  0.66886233  0.61491863  1
  O  O154  1  0.63031179  0.98993407  0.11882360  1
  O  O155  1  0.64248173  0.98176486  0.62929731  1
  O  O156  1  0.97493996  0.31635782  0.12571029  1
  O  O157  1  0.98484609  0.32199534  0.62518737  1
  O  O158  1  0.97860459  0.64563391  0.12591499  1
  O  O159  1  0.97989616  0.65770177  0.62070144  1
  O  O160  1  0.98536506  1.00955101  0.12095744  1
  O  O161  1  0.95987693  0.98575445  0.62145467  1
  O  O162  1  0.18722854  0.17526836  0.12280610  1
  O  O163  1  0.20282844  0.17297170  0.63278647  1
  O  O164  1  0.20115761  0.49458639  0.12652771  1
  O  O165  1  0.19996461  0.49595532  0.61257682  1
  O  O166  1  0.20844400  0.82019970  0.12598292  1
  O  O167  1  0.19308998  0.81937485  0.61534892  1
  O  O168  1  0.51483800  0.15661531  0.13327874  1
  O  O169  1  0.51415129  0.16315684  0.63263889  1
  O  O170  1  0.52344310  0.49182851  0.13296151  1
  O  O171  1  0.51977014  0.48756898  0.61781906  1
  O  O172  1  0.53287832  0.82370910  0.12015385  1
  O  O173  1  0.52830047  0.83486275  0.62726828  1
  O  O174  1  0.86656075  0.16399669  0.11939200  1
  O  O175  1  0.86564926  0.15451880  0.62577473  1
  O  O176  1  0.87192909  0.48875484  0.12363617  1
  O  O177  1  0.85021630  0.50063624  0.61794638  1
  O  O178  1  0.84555368  0.83305986  0.12628946  1
  O  O179  1  0.86575068  0.82987730  0.61566695  1
  O  O180  1  0.13818334  0.17728400  0.37106789  1
  O  O181  1  0.13173019  0.17125438  0.87540118  1
  O  O182  1  0.13471776  0.50873446  0.36980104  1
  O  O183  1  0.13617683  0.51173184  0.88355007  1
  O  O184  1  0.13652018  0.84223806  0.38139268  1
  O  O185  1  0.12630861  0.83741491  0.87675013  1
  O  O186  1  0.46479677  0.17726773  0.37242660  1
  O  O187  1  0.46568328  0.17426261  0.86880876  1
  O  O188  1  0.47748236  0.50926875  0.37533589  1
  O  O189  1  0.48460565  0.50283825  0.86289457  1
  O  O190  1  0.46759437  0.83085207  0.37983661  1
  O  O191  1  0.48059206  0.84065414  0.87719594  1
  O  O192  1  0.81653295  0.17557277  0.37504137  1
  O  O193  1  0.82051828  0.18381595  0.87988200  1
  O  O194  1  0.81999352  0.49374955  0.37689969  1
  O  O195  1  0.81235481  0.47611396  0.87777543  1
  O  O196  1  0.79760929  0.83777440  0.38261652  1
  O  O197  1  0.81520605  0.83433337  0.87629556  1
  O  O198  1  0.04494454  0.01977143  0.38033372  1
  O  O199  1  0.01778900  0.01503769  0.88053793  1
  O  O200  1  0.03508353  0.34955809  0.37267433  1
  O  O201  1  0.02286383  0.34143456  0.87724343  1
  O  O202  1  0.03861202  0.67931398  0.37632599  1
  O  O203  1  0.04345889  0.68106482  0.87544749  1
  O  O204  1  0.35222601  0.00937582  0.38032606  1
  O  O205  1  0.36677303  0.01833803  0.87600520  1
  O  O206  1  0.37009639  0.33406728  0.37040536  1
  O  O207  1  0.35393486  0.33259777  0.86759222  1
  O  O208  1  0.35361270  0.67285072  0.37027760  1
  O  O209  1  0.35255124  0.66481569  0.88395825  1
  O  O210  1  0.67974488  -0.00699766  0.38879299  1
  O  O211  1  0.68344549  0.00306753  0.87273160  1
  O  O212  1  0.67665943  0.33579402  0.37152693  1
  O  O213  1  0.69207079  0.33703617  0.86989965  1
  O  O214  1  0.67835084  0.68292973  0.37022247  1
  O  O215  1  0.67925989  0.67010140  0.88427379  1
  O  O216  1  0.06458629  0.10680946  0.01746969  1
  O  O217  1  0.07092505  0.10277291  0.53603340  1
  O  O218  1  0.06531724  0.43239564  0.02095954  1
  O  O219  1  0.07234378  0.43805565  0.50847762  1
  O  O220  1  0.08230169  0.75381829  0.03602123  1
  O  O221  1  0.07342126  0.76847466  0.52278383  1
  O  O222  1  0.41096694  0.09166219  0.02378417  1
  O  O223  1  0.39194680  0.09804903  0.51534976  1
  O  O224  1  0.40141418  0.43478924  0.02496427  1
  O  O225  1  0.40337481  0.43473198  0.52338117  1
  O  O226  1  0.40511219  0.76115091  0.03070003  1
  O  O227  1  0.39636731  0.76204829  0.51239294  1
  O  O228  1  0.74118942  0.09487518  0.01671419  1
  O  O229  1  0.74443945  0.07519392  0.52743649  1
  O  O230  1  0.74268003  0.42340083  0.03892953  1
  O  O231  1  0.74686306  0.42605198  0.51286527  1
  O  O232  1  0.72605907  0.75893597  0.02799231  1
  O  O233  1  0.73394666  0.76640610  0.51740589  1
  O  O234  1  0.09188112  0.25965944  0.01963827  1
  O  O235  1  0.09821984  0.26967128  0.50691692  1
  O  O236  1  0.10213082  0.58960650  0.03312612  1
  O  O237  1  0.11031927  0.59806538  0.51394430  1
  O  O238  1  0.08938628  0.93669789  0.01854250  1
  O  O239  1  0.10088856  0.92383273  0.52138101  1
  O  O240  1  0.43089933  0.27035784  0.02473219  1
  O  O241  1  0.42525248  0.26117525  0.52919387  1
  O  O242  1  0.42271669  0.59855814  0.03134039  1
  O  O243  1  0.41912827  0.59291055  0.52260568  1
  O  O244  1  0.43665142  0.92475950  0.02224284  1
  O  O245  1  0.42681218  0.92453693  0.51928944  1
  O  O246  1  0.77725672  0.26588312  0.01820285  1
  O  O247  1  0.75505506  0.25338562  0.51974815  1
  O  O248  1  0.75030590  0.59363058  0.02314534  1
  O  O249  1  0.76003468  0.59235141  0.50980534  1
  O  O250  1  0.74667613  0.92558535  0.01923589  1
  O  O251  1  0.75966069  0.91989722  0.53477992  1
  O  O252  1  0.23251521  0.07830596  0.27661020  1
  O  O253  1  0.24087056  0.08737787  0.77633701  1
  O  O254  1  0.23580944  0.39870455  0.27477283  1
  O  O255  1  0.24692837  0.40349449  0.76245329  1
  O  O256  1  0.23947607  0.72872516  0.27721400  1
  O  O257  1  0.23456849  0.73457166  0.77066487  1
  O  O258  1  0.55940016  0.07191530  0.26385700  1
  O  O259  1  0.56320029  0.07279768  0.77675581  1
  O  O260  1  0.55753223  0.40579614  0.27116748  1
  O  O261  1  0.56849915  0.40314762  0.75902801  1
  O  O262  1  0.56253628  0.72761621  0.25286079  1
  O  O263  1  0.57632717  0.75001823  0.75964216  1
  O  O264  1  0.91778201  0.08165840  0.27208073  1
  O  O265  1  0.90837662  0.07718997  0.77076372  1
  O  O266  1  0.91350328  0.39743378  0.26111594  1
  O  O267  1  0.90908983  0.39384552  0.77231584  1
  O  O268  1  0.91063331  0.74324349  0.27457763  1
  O  O269  1  0.91259146  0.73992042  0.77418412  1
  O  O270  1  0.26782225  0.23983410  0.28027973  1
  O  O271  1  0.26949027  0.23657306  0.77327643  1
  O  O272  1  0.26227484  0.56750786  0.26685817  1
  O  O273  1  0.25978725  0.57319523  0.76787933  1
  O  O274  1  0.27008830  0.89725053  0.28353707  1
  O  O275  1  0.25567853  0.91328499  0.76567074  1
  O  O276  1  0.58436135  0.23575045  0.27227387  1
  O  O277  1  0.59157047  0.23961444  0.76834352  1
  O  O278  1  0.59545983  0.56433756  0.26086777  1
  O  O279  1  0.58310109  0.57469761  0.75279141  1
  O  O280  1  0.59766733  0.89586532  0.27461023  1
  O  O281  1  0.58502231  0.91543799  0.77671783  1
  O  O282  1  0.94662326  0.23815124  0.26974967  1
  O  O283  1  0.93810463  0.23669420  0.76597143  1
  O  O284  1  0.93733214  0.56274092  0.27322231  1
  O  O285  1  0.93667435  0.56038922  0.77900195  1
  O  O286  1  0.93433779  0.90489135  0.27903298  1
  O  O287  1  0.93133797  0.90115491  0.77299801  1
  O  O288  1  0.26335075  0.23517489  0.47139799  1
  O  O289  1  0.25865148  0.23716311  0.97788081  1
  O  O290  1  0.26009061  0.57098457  0.47178099  1
  O  O291  1  0.26084321  0.57089126  0.98076207  1
  O  O292  1  0.26431713  0.89898407  0.47248943  1
  O  O293  1  0.26375348  0.90495965  0.98512141  1
  O  O294  1  0.58196491  0.24484556  0.47836323  1
  O  O295  1  0.59773134  0.23620875  0.98299200  1
  O  O296  1  0.59133376  0.57421067  0.48090268  1
  O  O297  1  0.59463176  0.57637489  0.98980933  1
  O  O298  1  0.59687223  0.89545920  0.48570348  1
  O  O299  1  0.59009836  0.90833998  0.97405191  1
  O  O300  1  0.94342484  0.24276778  0.48500156  1
  O  O301  1  0.93782625  0.23036594  0.97868257  1
  O  O302  1  0.92883047  0.56680165  0.47256593  1
  O  O303  1  0.93567040  0.56315054  0.97381431  1
  O  O304  1  0.92822649  0.89798669  0.47278140  1
  O  O305  1  0.93381078  0.91404647  0.98183744  1
  O  O306  1  0.23797917  0.06372114  0.47533249  1
  O  O307  1  0.23722776  0.08637895  0.97838971  1
  O  O308  1  0.23151529  0.40331690  0.47111117  1
  O  O309  1  0.23623393  0.41287584  0.98149881  1
  O  O310  1  0.23296739  0.73521343  0.46847507  1
  O  O311  1  0.23758321  0.72837067  0.97820612  1
  O  O312  1  0.57855388  0.06788078  0.49362712  1
  O  O313  1  0.56668740  0.06475551  0.98245845  1
  O  O314  1  0.55886384  0.40657233  0.48073050  1
  O  O315  1  0.57448284  0.41417300  0.98899011  1
  O  O316  1  0.57438989  0.74580772  0.47702372  1
  O  O317  1  0.56409735  0.73225279  0.99057802  1
  O  O318  1  0.91631320  0.08076329  0.47018820  1
  O  O319  1  0.90800055  0.07723499  0.97766124  1
  O  O320  1  0.91247258  0.40921527  0.47999777  1
  O  O321  1  0.90537221  0.38928326  0.98270505  1
  O  O322  1  0.90706567  0.74771438  0.47100746  1
  O  O323  1  0.91629406  0.74664784  0.98022785  1
  O  O324  1  0.10517542  0.27239876  0.24160763  1
  O  O325  1  0.09571883  0.25926958  0.72776768  1
  O  O326  1  0.10649672  0.59149098  0.22613789  1
  O  O327  1  0.10580651  0.59921844  0.72366293  1
  O  O328  1  0.10713835  0.93585191  0.24240530  1
  O  O329  1  0.08678302  0.92461372  0.71920852  1
  O  O330  1  0.43502163  0.27107555  0.23172425  1
  O  O331  1  0.43148096  0.26462451  0.72169470  1
  O  O332  1  0.42658081  0.59486588  0.21911944  1
  O  O333  1  0.42184794  0.58185166  0.72030030  1
  O  O334  1  0.43159412  0.92832171  0.21838466  1
  O  O335  1  0.42916206  0.92331147  0.74675383  1
  O  O336  1  0.76877626  0.26817947  0.21990269  1
  O  O337  1  0.75387425  0.26135625  0.73548142  1
  O  O338  1  0.75130668  0.59619834  0.23411388  1
  O  O339  1  0.75836305  0.58952412  0.74335792  1
  O  O340  1  0.75168371  0.92103326  0.22953422  1
  O  O341  1  0.75310507  0.92917297  0.72577541  1
  O  O342  1  0.07209614  0.11265528  0.23023987  1
  O  O343  1  0.07311907  0.10607645  0.73001417  1
  O  O344  1  0.07018184  0.43442267  0.22793763  1
  O  O345  1  0.07061775  0.42413932  0.74343054  1
  O  O346  1  0.07998520  0.75622153  0.22761814  1
  O  O347  1  0.07263225  0.76135770  0.71125059  1
  O  O348  1  0.40289061  0.09930943  0.24038751  1
  O  O349  1  0.40077693  0.10836121  0.73193660  1
  O  O350  1  0.40177026  0.43357634  0.22479869  1
  O  O351  1  0.40506632  0.42395152  0.71461277  1
  O  O352  1  0.39609069  0.75847824  0.22199602  1
  O  O353  1  0.41688901  0.75718506  0.73651372  1
  O  O354  1  0.73978195  0.08976952  0.23789833  1
  O  O355  1  0.73938752  0.08316504  0.73017234  1
  O  O356  1  0.73789371  0.43233573  0.21996637  1
  O  O357  1  0.73535750  0.41693900  0.72987303  1
  O  O358  1  0.72123549  0.75968884  0.23170227  1
  O  O359  1  0.73643066  0.76459092  0.72328859  1
