# generated using pymatgen
data_BaLaInIrO6
_symmetry_space_group_name_H-M   'P 1'
_cell_length_a   17.49687620
_cell_length_b   17.53048357
_cell_length_c   16.48387631
_cell_angle_alpha   89.96242421
_cell_angle_beta   89.96519320
_cell_angle_gamma   89.98277605
_symmetry_Int_Tables_number   1
_chemical_formula_structural   BaLaInIrO6
_chemical_formula_sum   'Ba36 La36 In36 Ir36 O216'
_cell_volume   5056.07571434
_cell_formula_units_Z   36
loop_
 _symmetry_equiv_pos_site_id
 _symmetry_equiv_pos_as_xyz
  1  'x, y, z'
loop_
 _atom_site_type_symbol
 _atom_site_label
 _atom_site_symmetry_multiplicity
 _atom_site_fract_x
 _atom_site_fract_y
 _atom_site_fract_z
 _atom_site_occupancy
  Ba  Ba0  1  0.16741613  0.99620375  0.87153452  1
  Ba  Ba1  1  0.33510783  0.17702634  0.62174780  1
  Ba  Ba2  1  0.33483817  0.49051018  0.88226111  1
  Ba  Ba3  1  0.50066102  0.65523808  0.37476621  1
  Ba  Ba4  1  0.99838793  0.50601347  0.62524092  1
  Ba  Ba5  1  0.16032847  0.67335697  0.62385618  1
  Ba  Ba6  1  0.66734198  0.17243666  0.12834957  1
  Ba  Ba7  1  0.66428169  0.82252181  0.87614451  1
  Ba  Ba8  1  0.00179394  0.16383366  0.87560279  1
  Ba  Ba9  1  0.49728536  0.67648159  0.12262621  1
  Ba  Ba10  1  -0.00190410  0.82835814  0.37242864  1
  Ba  Ba11  1  0.00369996  0.15890894  0.37718186  1
  Ba  Ba12  1  0.49923486  0.00813023  0.62519091  1
  Ba  Ba13  1  0.66869327  0.17448092  0.61898767  1
  Ba  Ba14  1  0.83558209  0.32594090  0.87274246  1
  Ba  Ba15  1  0.50133083  0.65747885  0.87287109  1
  Ba  Ba16  1  0.00010568  0.49226143  0.37804936  1
  Ba  Ba17  1  0.16506974  0.67409338  0.11881300  1
  Ba  Ba18  1  0.66298050  0.82155363  0.37761113  1
  Ba  Ba19  1  0.33065357  0.16102668  0.86975552  1
  Ba  Ba20  1  0.16897783  0.98426263  0.37819608  1
  Ba  Ba21  1  0.50022995  0.98958982  0.37740372  1
  Ba  Ba22  1  0.33082722  0.82720471  0.87195718  1
  Ba  Ba23  1  0.32592251  0.14712067  0.37652832  1
  Ba  Ba24  1  0.83800869  0.99787350  0.87365119  1
  Ba  Ba25  1  0.17051524  0.33930281  0.13124227  1
  Ba  Ba26  1  0.50367601  0.32681674  0.87736852  1
  Ba  Ba27  1  0.16272038  0.33888364  0.62936882  1
  Ba  Ba28  1  0.16734307  0.00932580  0.12408742  1
  Ba  Ba29  1  1.00289081  0.17699281  0.62649944  1
  Ba  Ba30  1  0.49868251  0.00654959  0.12464612  1
  Ba  Ba31  1  0.83297562  0.01048938  0.12702867  1
  Ba  Ba32  1  0.17038192  0.32667509  0.87932090  1
  Ba  Ba33  1  0.66472571  0.84114536  0.62565323  1
  Ba  Ba34  1  0.00348895  0.49005836  0.87383494  1
  Ba  Ba35  1  0.83582061  0.99184042  0.37581573  1
  La  La36  1  0.66490290  0.15032700  0.87290788  1
  La  La37  1  0.67088172  0.51468781  0.62570832  1
  La  La38  1  0.49302968  0.34897540  0.12867152  1
  La  La39  1  0.66918938  0.51250234  0.12015936  1
  La  La40  1  0.82793834  0.67978553  0.12676791  1
  La  La41  1  0.83665151  0.65387896  0.38049011  1
  La  La42  1  0.83239589  0.67769772  0.62668846  1
  La  La43  1  0.50679388  0.98683001  0.87186843  1
  La  La44  1  0.33480424  0.84917543  0.62275233  1
  La  La45  1  0.83912344  0.31855190  0.37613176  1
  La  La46  1  0.83517220  0.35047766  0.62067936  1
  La  La47  1  0.83286193  0.34724928  0.12316783  1
  La  La48  1  0.82962230  0.02094115  0.61921696  1
  La  La49  1  0.16491601  0.01617417  0.62411666  1
  La  La50  1  0.17527619  0.64827951  0.86981246  1
  La  La51  1  0.50279779  0.31726564  0.37639510  1
  La  La52  1  0.66418635  0.14871313  0.37312698  1
  La  La53  1  0.66888590  0.84822597  0.12948060  1
  La  La54  1  1.00417891  0.50924539  0.12244149  1
  La  La55  1  0.16454682  0.65862955  0.37407559  1
  La  La56  1  0.32834871  0.82279446  0.37146287  1
  La  La57  1  0.49654614  0.34274081  0.62640693  1
  La  La58  1  -0.00528336  0.82149382  0.87625813  1
  La  La59  1  1.00377240  0.85261843  0.12437468  1
  La  La60  1  0.65781799  0.48513379  0.87427528  1
  La  La61  1  0.32629043  0.48556939  0.37942240  1
  La  La62  1  1.00562284  0.85075712  0.62304607  1
  La  La63  1  0.33683144  0.84967860  0.12305906  1
  La  La64  1  1.00358964  0.18163449  0.12452025  1
  La  La65  1  0.17144476  0.31246938  0.38441367  1
  La  La66  1  0.33951889  0.51610346  0.12758859  1
  La  La67  1  0.33154879  0.51113722  0.63028959  1
  La  La68  1  0.83473805  0.65528951  0.87594332  1
  La  La69  1  0.34010392  0.17848631  0.11762320  1
  La  La70  1  0.49463725  0.68212302  0.62069984  1
  La  La71  1  0.66074789  0.49068197  0.37730155  1
  In  In72  1  0.33438140  0.00175380  -0.00515835  1
  In  In73  1  0.83618970  0.83510897  0.74972932  1
  In  In74  1  0.16826186  0.49631745  0.00539975  1
  In  In75  1  0.66710516  0.00097632  0.00161281  1
  In  In76  1  0.16494827  0.83331005  0.74741295  1
  In  In77  1  0.49761209  0.83068315  0.25086648  1
  In  In78  1  0.83510465  0.83245862  0.50137502  1
  In  In79  1  0.49930451  0.16679852  0.49821526  1
  In  In80  1  0.00019998  0.00178669  0.74896550  1
  In  In81  1  0.50127136  0.50122077  0.00165445  1
  In  In82  1  0.66915566  0.33476261  0.49822419  1
  In  In83  1  -0.00021167  0.00385225  0.25070922  1
  In  In84  1  0.33288812  0.66400041  0.49880302  1
  In  In85  1  0.83260581  0.83400995  0.00051456  1
  In  In86  1  0.50183629  0.50205295  0.74497075  1
  In  In87  1  0.16873857  0.16518802  0.24729609  1
  In  In88  1  0.66656506  -0.00336232  0.49988966  1
  In  In89  1  0.16542809  0.49739893  0.50059569  1
  In  In90  1  0.66563617  0.32945342  0.00318885  1
  In  In91  1  0.49739202  0.82903602  0.75084931  1
  In  In92  1  0.33444757  0.33530940  0.25439996  1
  In  In93  1  0.16582899  0.82951602  0.24453953  1
  In  In94  1  0.33097994  0.67178828  -0.00173786  1
  In  In95  1  0.66729446  0.33416502  0.25065016  1
  In  In96  1  0.16815387  0.17002401  0.75168710  1
  In  In97  1  -0.00344242  0.66764020  0.24890902  1
  In  In98  1  0.83410615  0.16992841  0.00223456  1
  In  In99  1  0.49951236  0.16615623  0.24971717  1
  In  In100  1  0.50097176  0.16931697  0.75073534  1
  In  In101  1  -0.00073481  0.66735149  -0.00001479  1
  In  In102  1  0.67011970  -0.00105472  0.74837246  1
  In  In103  1  0.82996458  0.50012987  0.75428996  1
  In  In104  1  0.66656458  0.66462905  0.25168817  1
  In  In105  1  0.00142625  0.33801115  0.25208929  1
  In  In106  1  0.83182021  0.50016366  0.25108112  1
  In  In107  1  0.00045421  0.66694719  0.75147323  1
  Ir  Ir108  1  0.50129513  0.83161976  0.00111617  1
  Ir  Ir109  1  0.16998584  0.49699787  0.75062278  1
  Ir  Ir110  1  0.33610436  0.33016381  0.00173294  1
  Ir  Ir111  1  0.16576995  0.82834131  0.49999560  1
  Ir  Ir112  1  0.83160473  0.83149251  0.24903762  1
  Ir  Ir113  1  0.49691725  0.49942688  0.25651988  1
  Ir  Ir114  1  0.66902153  0.66504586  0.00012965  1
  Ir  Ir115  1  0.82879924  0.50325623  0.50174912  1
  Ir  Ir116  1  -0.00252046  0.33437121  0.75069814  1
  Ir  Ir117  1  0.16994825  0.50317391  0.25255116  1
  Ir  Ir118  1  0.32998414  -0.00757841  0.49943080  1
  Ir  Ir119  1  -0.00270160  0.33416522  0.00129078  1
  Ir  Ir120  1  0.33635221  0.33949285  0.50276963  1
  Ir  Ir121  1  0.16295878  0.83595862  -0.00291677  1
  Ir  Ir122  1  0.00100657  0.00068109  0.50266127  1
  Ir  Ir123  1  0.83320231  0.50108731  0.00140448  1
  Ir  Ir124  1  0.83180355  0.17456197  0.74545183  1
  Ir  Ir125  1  -0.00245727  0.66718327  0.49887943  1
  Ir  Ir126  1  0.33366637  0.33893692  0.74666691  1
  Ir  Ir127  1  0.83759386  0.17204399  0.49902537  1
  Ir  Ir128  1  0.66768658  0.33350500  0.74676572  1
  Ir  Ir129  1  0.49408484  0.82947579  0.50097946  1
  Ir  Ir130  1  0.33468061  -0.00118492  0.74577388  1
  Ir  Ir131  1  0.16846756  0.16506339  0.50116862  1
  Ir  Ir132  1  0.83461145  0.16963199  0.25289911  1
  Ir  Ir133  1  0.66753077  0.66411928  0.74753926  1
  Ir  Ir134  1  0.49988931  0.49819542  0.49926456  1
  Ir  Ir135  1  0.49957892  0.16689116  -0.00192741  1
  Ir  Ir136  1  0.66962135  -0.00126402  0.25112075  1
  Ir  Ir137  1  0.00356758  0.00124280  -0.00000257  1
  Ir  Ir138  1  0.33021742  0.66419790  0.74602657  1
  Ir  Ir139  1  0.16820219  0.16895606  0.00289912  1
  Ir  Ir140  1  0.33167070  0.66388796  0.25129889  1
  Ir  Ir141  1  0.33286702  -0.00429040  0.24960785  1
  Ir  Ir142  1  0.66528547  0.66223034  0.50466206  1
  Ir  Ir143  1  -0.00030059  0.33273798  0.50018503  1
  O  O144  1  0.32192923  0.31873641  0.12222758  1
  O  O145  1  0.31144581  0.34091453  0.62408781  1
  O  O146  1  0.31380653  0.65311573  0.13177673  1
  O  O147  1  0.31039463  0.65226961  0.62744176  1
  O  O148  1  0.31885998  0.98863992  0.12734114  1
  O  O149  1  0.30273382  0.98819908  0.62221805  1
  O  O150  1  0.62664741  0.32707311  0.12818096  1
  O  O151  1  0.63606237  0.32905377  0.62665140  1
  O  O152  1  0.64424514  0.65081554  0.11858857  1
  O  O153  1  0.63224343  0.65255430  0.62637918  1
  O  O154  1  0.65010158  1.00106549  0.13158554  1
  O  O155  1  0.65004435  1.01044226  0.62427877  1
  O  O156  1  0.96963139  0.33043622  0.12197360  1
  O  O157  1  0.96953133  0.33349440  0.62561299  1
  O  O158  1  0.96294240  0.64722562  0.12412016  1
  O  O159  1  0.96858619  0.66011160  0.61942179  1
  O  O160  1  0.98366509  0.99208648  0.11910416  1
  O  O161  1  0.96802612  0.99423296  0.62040433  1
  O  O162  1  0.20138723  0.16965743  0.12033191  1
  O  O163  1  0.18346782  0.16513160  0.62135583  1
  O  O164  1  0.20280231  0.49686189  0.13490215  1
  O  O165  1  0.19427012  0.49757967  0.62837152  1
  O  O166  1  0.20013612  0.82989760  0.11606418  1
  O  O167  1  0.19834344  0.82601346  0.61741832  1
  O  O168  1  0.51573102  0.16494088  0.11820532  1
  O  O169  1  0.51547272  0.17678512  0.62372137  1
  O  O170  1  0.52908096  0.49165532  0.13523155  1
  O  O171  1  0.53428509  0.48523453  0.61748393  1
  O  O172  1  0.52750411  0.83320845  0.12068110  1
  O  O173  1  0.51387577  0.82281076  0.62112492  1
  O  O174  1  0.86474754  0.16585169  0.13297393  1
  O  O175  1  0.85543309  0.16024727  0.62186185  1
  O  O176  1  0.86902562  0.48968314  0.11992510  1
  O  O177  1  0.84889119  0.49364872  0.62175615  1
  O  O178  1  0.86549411  0.81913819  0.12908070  1
  O  O179  1  0.87029508  0.81179523  0.62479751  1
  O  O180  1  0.15503137  0.16882457  0.37956120  1
  O  O181  1  0.15301698  0.16825503  0.88248226  1
  O  O182  1  0.14973953  0.51790533  0.37152839  1
  O  O183  1  0.15427341  0.50264961  0.87316242  1
  O  O184  1  0.14996171  0.82540226  0.37865297  1
  O  O185  1  0.13104179  0.84211561  0.87747668  1
  O  O186  1  0.47108850  0.17993791  0.37477892  1
  O  O187  1  0.47820269  0.17289825  0.88098172  1
  O  O188  1  0.46258546  0.50490270  0.37852111  1
  O  O189  1  0.48885256  0.50006560  0.87206144  1
  O  O190  1  0.46641976  0.83083465  0.37995633  1
  O  O191  1  0.48164214  0.83395053  0.88076163  1
  O  O192  1  0.80352183  0.18257994  0.37556228  1
  O  O193  1  0.80493892  0.17493717  0.86655086  1
  O  O194  1  0.79696314  0.51401099  0.38203927  1
  O  O195  1  0.79365903  0.50867588  0.88212189  1
  O  O196  1  0.81161666  0.83414560  0.37007195  1
  O  O197  1  0.81187589  0.84407170  0.87566391  1
  O  O198  1  0.01983766  0.00143993  0.38181912  1
  O  O199  1  0.01759291  0.00525112  0.88084539  1
  O  O200  1  0.03148900  0.33426240  0.38068749  1
  O  O201  1  0.02094031  0.33477928  0.87559525  1
  O  O202  1  0.02987209  0.67405443  0.37845071  1
  O  O203  1  0.04086017  0.68043852  0.87709667  1
  O  O204  1  0.35045135  -0.01356236  0.37463209  1
  O  O205  1  0.36636207  0.00035638  0.86657980  1
  O  O206  1  0.36665679  0.34847206  0.38316783  1
  O  O207  1  0.35555336  0.33672313  0.87168315  1
  O  O208  1  0.35128580  0.68048569  0.37022265  1
  O  O209  1  0.34952081  0.66737768  0.86583905  1
  O  O210  1  0.68559802  -0.00220434  0.37052456  1
  O  O211  1  0.68651168  0.00820266  0.87497809  1
  O  O212  1  0.70553078  0.35765712  0.37416217  1
  O  O213  1  0.68682184  0.34793773  0.86880805  1
  O  O214  1  0.69592801  0.66228877  0.38306360  1
  O  O215  1  0.69838662  0.66949541  0.87118459  1
  O  O216  1  0.07050519  0.10154167  0.02522176  1
  O  O217  1  0.07876152  0.08885113  0.52627687  1
  O  O218  1  0.06771776  0.42376790  0.02496968  1
  O  O219  1  0.07108592  0.42086548  0.51767640  1
  O  O220  1  0.06823187  0.77155030  0.02449862  1
  O  O221  1  0.06458314  0.76440368  0.52361894  1
  O  O222  1  0.40314511  0.10260326  0.01960995  1
  O  O223  1  0.40145029  0.08373410  0.51239780  1
  O  O224  1  0.40560196  0.42178810  0.03040881  1
  O  O225  1  0.40132307  0.43636978  0.52794825  1
  O  O226  1  0.40418898  0.76648106  0.02374399  1
  O  O227  1  0.40083159  0.76168810  0.52447300  1
  O  O228  1  0.73754585  0.09967409  0.00679404  1
  O  O229  1  0.75058764  0.09727087  0.50689360  1
  O  O230  1  0.74314973  0.43291368  0.02971691  1
  O  O231  1  0.73544219  0.43653864  0.52708993  1
  O  O232  1  0.73547210  0.75488671  0.03165908  1
  O  O233  1  0.73895130  0.74963781  0.52514403  1
  O  O234  1  0.08756249  0.25846514  0.02917910  1
  O  O235  1  0.10088899  0.26494707  0.50883600  1
  O  O236  1  0.08170306  0.58108724  0.02468217  1
  O  O237  1  0.08856044  0.59604343  0.51095760  1
  O  O238  1  0.09352695  0.92568504  0.02326772  1
  O  O239  1  0.09637980  0.92770465  0.52753728  1
  O  O240  1  0.43387722  0.26353748  0.02561847  1
  O  O241  1  0.43378850  0.27787100  0.51842971  1
  O  O242  1  0.41848218  0.58659180  0.01872221  1
  O  O243  1  0.43562756  0.59184839  0.52691030  1
  O  O244  1  0.42732057  0.92001043  0.01517991  1
  O  O245  1  0.42189025  0.92036673  0.52449421  1
  O  O246  1  0.76776174  0.27064978  0.02777626  1
  O  O247  1  0.77486243  0.26945223  0.51737754  1
  O  O248  1  0.76589343  0.59645880  0.02716727  1
  O  O249  1  0.76283269  0.59801186  0.53026201  1
  O  O250  1  0.75043353  0.91716762  0.03184202  1
  O  O251  1  0.76602017  0.92909362  0.52419948  1
  O  O252  1  0.24141265  0.06350729  0.26326175  1
  O  O253  1  0.24632936  0.07120920  0.75464835  1
  O  O254  1  0.23603006  0.41047721  0.28247755  1
  O  O255  1  0.24224114  0.40872902  0.76737305  1
  O  O256  1  0.23601775  0.72813241  0.27147501  1
  O  O257  1  0.23437710  0.72977106  0.77021103  1
  O  O258  1  0.58162123  0.07353083  0.27103339  1
  O  O259  1  0.57275810  0.07547873  0.78119836  1
  O  O260  1  0.56280934  0.40659364  0.28230297  1
  O  O261  1  0.57717218  0.40238311  0.76254608  1
  O  O262  1  0.57337511  0.73827023  0.26441073  1
  O  O263  1  0.57279825  0.72998681  0.75633787  1
  O  O264  1  0.90231363  0.07913404  0.26913590  1
  O  O265  1  0.90067702  0.08107105  0.75572307  1
  O  O266  1  0.89970497  0.40136703  0.27600764  1
  O  O267  1  0.90616892  0.40462598  0.75669112  1
  O  O268  1  0.89163337  0.73568101  0.27163633  1
  O  O269  1  0.90245525  0.73491504  0.78367166  1
  O  O270  1  0.25618683  0.24703182  0.27296466  1
  O  O271  1  0.26182825  0.24924519  0.75954864  1
  O  O272  1  0.26861545  0.56700649  0.27744284  1
  O  O273  1  0.26425723  0.56680498  0.76821157  1
  O  O274  1  0.27016487  0.89596818  0.26331701  1
  O  O275  1  0.26349458  0.90832194  0.75933789  1
  O  O276  1  0.59969394  0.23730300  0.28279785  1
  O  O277  1  0.60724967  0.23876756  0.77251935  1
  O  O278  1  0.59570550  0.56130113  0.27447714  1
  O  O279  1  0.60682221  0.56662214  0.76641912  1
  O  O280  1  0.59896045  0.90695488  0.25768517  1
  O  O281  1  0.58465023  0.91052835  0.76773816  1
  O  O282  1  0.92274896  0.23941769  0.27011385  1
  O  O283  1  0.92563412  0.24256902  0.76453010  1
  O  O284  1  0.91906255  0.57879189  0.28035117  1
  O  O285  1  0.91896905  0.57798054  0.77550424  1
  O  O286  1  0.92053892  0.90424392  0.25777980  1
  O  O287  1  0.94345621  0.89640530  0.76791055  1
  O  O288  1  0.26150596  0.24460541  0.47725300  1
  O  O289  1  0.26672271  0.23581533  0.98669852  1
  O  O290  1  0.26961791  0.56253051  0.48435904  1
  O  O291  1  0.25002816  0.58314785  0.98426928  1
  O  O292  1  0.26656879  0.89012388  0.48099024  1
  O  O293  1  0.25538171  0.90551690  0.98217090  1
  O  O294  1  0.59938371  0.24216604  0.46555142  1
  O  O295  1  0.59845540  0.22696066  0.97493879  1
  O  O296  1  0.59979697  0.56247512  0.48090021  1
  O  O297  1  0.60648595  0.56944734  0.97894582  1
  O  O298  1  0.58426903  0.90093592  0.48589781  1
  O  O299  1  0.58599269  0.90727789  0.98267376  1
  O  O300  1  0.92690973  0.24525383  0.47761327  1
  O  O301  1  0.92984604  0.24322102  0.98749698  1
  O  O302  1  0.92127488  0.57728056  0.47446633  1
  O  O303  1  0.91596781  0.57341319  0.97143497  1
  O  O304  1  0.93385861  0.90858928  0.48893177  1
  O  O305  1  0.93987898  0.90378037  0.98466123  1
  O  O306  1  0.23329915  0.06303881  0.49229347  1
  O  O307  1  0.23886116  0.07905403  0.98539696  1
  O  O308  1  0.24028528  0.40146144  0.47222537  1
  O  O309  1  0.24693703  0.40239019  0.99151188  1
  O  O310  1  0.23025292  0.73278576  0.47639688  1
  O  O311  1  0.22734491  0.74297357  0.97103583  1
  O  O312  1  0.58211558  0.08055069  0.47406358  1
  O  O313  1  0.56164453  0.07042476  0.97411562  1
  O  O314  1  0.56592697  0.40708575  0.47087677  1
  O  O315  1  0.57999607  0.41146132  0.98631240  1
  O  O316  1  0.56447557  0.73050842  0.49070096  1
  O  O317  1  0.57388108  0.73561409  0.98175820  1
  O  O318  1  0.90680768  0.07175772  0.48650873  1
  O  O319  1  0.91452383  0.07360794  0.98790858  1
  O  O320  1  0.89673212  0.40105617  0.48208912  1
  O  O321  1  0.90316786  0.40644871  0.98147563  1
  O  O322  1  0.90358966  0.73091608  0.47614035  1
  O  O323  1  0.90166723  0.73591924  0.97290970  1
  O  O324  1  0.08805224  0.25794044  0.23381778  1
  O  O325  1  0.08530707  0.26152629  0.74173967  1
  O  O326  1  0.09777639  0.59133872  0.23171326  1
  O  O327  1  0.09940853  0.58783477  0.74156089  1
  O  O328  1  0.08872981  0.92196652  0.23328338  1
  O  O329  1  0.09791558  0.93001534  0.71278503  1
  O  O330  1  0.43803331  0.27263013  0.23372363  1
  O  O331  1  0.42804881  0.27214474  0.72920065  1
  O  O332  1  0.42543866  0.59175042  0.22901780  1
  O  O333  1  0.42694638  0.59821349  0.71967217  1
  O  O334  1  0.42226279  0.92523448  0.23257926  1
  O  O335  1  0.41899229  0.92280059  0.72999445  1
  O  O336  1  0.77220910  0.26583269  0.22985542  1
  O  O337  1  0.76600491  0.27210115  0.72074158  1
  O  O338  1  0.76055011  0.59538458  0.21805192  1
  O  O339  1  0.75936393  0.59793056  0.72292092  1
  O  O340  1  0.75695401  0.92076297  0.22423352  1
  O  O341  1  0.77210651  0.93482973  0.71933666  1
  O  O342  1  0.06834734  0.10025984  0.22359713  1
  O  O343  1  0.08137964  0.08858000  0.73229264  1
  O  O344  1  0.07353616  0.43896706  0.22642006  1
  O  O345  1  0.07236952  0.42706004  0.73383294  1
  O  O346  1  0.06508208  0.76308382  0.21940551  1
  O  O347  1  0.06448330  0.76723763  0.72246990  1
  O  O348  1  0.39673448  0.09424917  0.22823143  1
  O  O349  1  0.40605412  0.08777283  0.73046953  1
  O  O350  1  0.40163756  0.43682215  0.22842454  1
  O  O351  1  0.40532916  0.42842874  0.72039897  1
  O  O352  1  0.39182878  0.76290618  0.22748539  1
  O  O353  1  0.39751389  0.75711231  0.72108151  1
  O  O354  1  0.73805671  0.09917107  0.24592063  1
  O  O355  1  0.74351105  0.10478949  0.73477987  1
  O  O356  1  0.73565008  0.43170979  0.21561965  1
  O  O357  1  0.73139033  0.42932647  0.72452736  1
  O  O358  1  0.73966226  0.76371318  0.22227496  1
  O  O359  1  0.73880368  0.75210453  0.72622219  1
