# generated using pymatgen
data_BaLaInIrO6
_symmetry_space_group_name_H-M   'P 1'
_cell_length_a   17.51714857
_cell_length_b   17.55311771
_cell_length_c   16.48753836
_cell_angle_alpha   89.99856805
_cell_angle_beta   90.02968186
_cell_angle_gamma   89.94082117
_symmetry_Int_Tables_number   1
_chemical_formula_structural   BaLaInIrO6
_chemical_formula_sum   'Ba36 La36 In36 Ir36 O216'
_cell_volume   5069.59431990
_cell_formula_units_Z   36
loop_
 _symmetry_equiv_pos_site_id
 _symmetry_equiv_pos_as_xyz
  1  'x, y, z'
loop_
 _atom_site_type_symbol
 _atom_site_label
 _atom_site_symmetry_multiplicity
 _atom_site_fract_x
 _atom_site_fract_y
 _atom_site_fract_z
 _atom_site_occupancy
  Ba  Ba0  1  0.16742377  0.00972565  0.12623350  1
  Ba  Ba1  1  0.67235764  0.51113683  0.12841635  1
  Ba  Ba2  1  1.00034687  0.50898959  0.61995755  1
  Ba  Ba3  1  0.83367203  0.32288468  0.38167565  1
  Ba  Ba4  1  0.33403027  0.17840312  0.12641645  1
  Ba  Ba5  1  0.16415645  0.66280310  0.37567125  1
  Ba  Ba6  1  0.66357823  0.82670965  0.86960023  1
  Ba  Ba7  1  -0.00862402  0.15742600  0.37771746  1
  Ba  Ba8  1  0.83593869  0.33781958  0.62720862  1
  Ba  Ba9  1  -0.00680445  0.15741460  0.87658559  1
  Ba  Ba10  1  0.33187075  0.17400081  0.62251597  1
  Ba  Ba11  1  0.33374352  0.49392312  0.87283688  1
  Ba  Ba12  1  0.17006957  0.67270692  0.12343387  1
  Ba  Ba13  1  0.66852563  0.15402173  0.37746986  1
  Ba  Ba14  1  0.33045610  0.82976816  0.87086646  1
  Ba  Ba15  1  0.16148422  0.99425850  0.37426743  1
  Ba  Ba16  1  0.66704036  0.81412820  0.37762436  1
  Ba  Ba17  1  0.17086411  0.34412444  0.12622464  1
  Ba  Ba18  1  -0.00411736  0.82396830  0.87421463  1
  Ba  Ba19  1  0.51097118  0.65123190  0.37888639  1
  Ba  Ba20  1  0.66944701  0.84695019  0.61717877  1
  Ba  Ba21  1  0.50208984  0.32523094  0.87322013  1
  Ba  Ba22  1  0.66629326  0.15802415  0.86913900  1
  Ba  Ba23  1  0.16619645  0.66387401  0.87159334  1
  Ba  Ba24  1  0.99852297  0.83994033  0.62241581  1
  Ba  Ba25  1  0.16490927  0.67502964  0.62376400  1
  Ba  Ba26  1  0.50075307  0.99542248  0.86980127  1
  Ba  Ba27  1  1.00085169  0.17407374  0.62451354  1
  Ba  Ba28  1  0.32918685  0.83878437  0.62332992  1
  Ba  Ba29  1  0.66699516  0.48530985  0.37209986  1
  Ba  Ba30  1  0.49890794  0.00625207  0.62076509  1
  Ba  Ba31  1  0.83469446  0.98856859  0.87529412  1
  Ba  Ba32  1  0.83394827  0.32504997  0.87795651  1
  Ba  Ba33  1  0.33275717  0.50768189  0.62257930  1
  Ba  Ba34  1  0.66488494  0.17474082  0.62335183  1
  Ba  Ba35  1  0.16354191  0.99355731  0.87784006  1
  La  La36  1  0.15626241  0.35211431  0.62711373  1
  La  La37  1  0.33337588  0.82001245  0.37744133  1
  La  La38  1  0.82745967  0.34474943  0.13443177  1
  La  La39  1  0.17411767  0.31977107  0.87580025  1
  La  La40  1  0.82457491  0.68240530  0.12795816  1
  La  La41  1  1.00270827  0.84738785  0.12595273  1
  La  La42  1  0.50693776  0.31954815  0.37364762  1
  La  La43  1  1.00665264  0.18619854  0.12465378  1
  La  La44  1  0.49627079  0.01462543  0.12409019  1
  La  La45  1  0.83834380  0.65530452  0.87171740  1
  La  La46  1  0.33769801  0.51420063  0.12350104  1
  La  La47  1  0.83909443  0.98188707  0.38049033  1
  La  La48  1  0.17010238  0.32272424  0.38077172  1
  La  La49  1  0.66916128  0.50943168  0.61976474  1
  La  La50  1  1.00405176  0.51475271  0.12758362  1
  La  La51  1  0.50729872  0.98317032  0.37622138  1
  La  La52  1  -0.00861353  0.81558890  0.37143109  1
  La  La53  1  0.49673264  0.34389312  0.62359319  1
  La  La54  1  0.49369708  0.35111062  0.12766219  1
  La  La55  1  0.16259925  0.00305684  0.63523546  1
  La  La56  1  0.50553053  0.66032487  0.87196762  1
  La  La57  1  0.33269231  0.84631148  0.12442191  1
  La  La58  1  0.32718945  0.15424600  0.87542852  1
  La  La59  1  -0.00096426  0.49279735  0.87431804  1
  La  La60  1  0.65864449  0.48709339  0.87141579  1
  La  La61  1  0.49544406  0.68348933  0.62110472  1
  La  La62  1  0.83161392  0.01402004  0.12677162  1
  La  La63  1  0.82834489  0.67941365  0.61865333  1
  La  La64  1  0.67290306  0.85000858  0.12668020  1
  La  La65  1  0.32810710  0.15565580  0.37355877  1
  La  La66  1  0.33612442  0.48722845  0.37703989  1
  La  La67  1  0.82487924  0.01499198  0.62453165  1
  La  La68  1  0.83452411  0.64639933  0.37146435  1
  La  La69  1  0.49961463  0.68522948  0.12944715  1
  La  La70  1  -0.00471176  0.48428718  0.37487259  1
  La  La71  1  0.66825143  0.18029890  0.12642876  1
  In  In72  1  0.50181244  0.16674001  0.25084637  1
  In  In73  1  0.33805741  0.66543730  0.25481966  1
  In  In74  1  0.50189265  0.50254290  0.74517998  1
  In  In75  1  0.16147587  0.83177468  0.74964864  1
  In  In76  1  0.33795882  0.66897377  0.00029682  1
  In  In77  1  0.16306935  0.83558857  0.49668531  1
  In  In78  1  0.66653742  0.00110552  0.00101464  1
  In  In79  1  0.16803612  0.50105556  0.00047272  1
  In  In80  1  0.33156230  0.33393820  0.74561499  1
  In  In81  1  0.33639702  0.66672824  0.74773952  1
  In  In82  1  0.16489377  0.16436556  0.49847477  1
  In  In83  1  0.33595176  0.33571817  -0.00123777  1
  In  In84  1  -0.00274692  0.00026498  0.00231464  1
  In  In85  1  0.16623898  0.83196543  0.00151900  1
  In  In86  1  0.83214661  0.49639811  0.50195863  1
  In  In87  1  0.16502420  0.16777683  0.74903833  1
  In  In88  1  0.66596205  0.33443457  0.00507507  1
  In  In89  1  0.00096419  0.33978310  0.00154648  1
  In  In90  1  0.83341167  0.50173397  0.00026300  1
  In  In91  1  0.16799514  0.49996814  0.25434394  1
  In  In92  1  0.33555884  0.00131669  0.00145158  1
  In  In93  1  -0.00006178  0.33533811  0.75229570  1
  In  In94  1  0.83086646  0.83154237  0.74905511  1
  In  In95  1  -0.00376115  0.00016414  0.25143626  1
  In  In96  1  0.83469610  0.16754281  0.00516897  1
  In  In97  1  0.33543237  0.33561604  0.25332966  1
  In  In98  1  0.49794037  0.16841555  0.74800369  1
  In  In99  1  0.66889475  0.66697968  -0.00130229  1
  In  In100  1  0.50396739  0.83446005  0.00132917  1
  In  In101  1  0.49988160  0.83627965  0.74641923  1
  In  In102  1  0.16671711  0.83307697  0.25291405  1
  In  In103  1  0.83216026  0.16446664  0.25276396  1
  In  In104  1  0.16736338  0.50432396  0.49644204  1
  In  In105  1  0.66778375  0.33408634  0.74792876  1
  In  In106  1  0.33728263  -0.00064796  0.25410693  1
  In  In107  1  0.33411989  -0.00077519  0.49633272  1
  Ir  Ir108  1  0.66177826  0.33096788  0.49756468  1
  Ir  Ir109  1  -0.00565353  -0.00116195  0.50312524  1
  Ir  Ir110  1  0.50199963  0.16741421  0.00224554  1
  Ir  Ir111  1  0.50333098  0.83185763  0.49496905  1
  Ir  Ir112  1  0.32912242  0.00305187  0.74862034  1
  Ir  Ir113  1  -0.00615330  0.00041078  0.74614516  1
  Ir  Ir114  1  0.83078092  0.82922965  0.24991412  1
  Ir  Ir115  1  0.67090835  0.66350382  0.74635577  1
  Ir  Ir116  1  -0.00857902  0.66632028  0.00107870  1
  Ir  Ir117  1  0.66653349  -0.00428913  0.25207420  1
  Ir  Ir118  1  0.50366081  0.50207311  0.24943858  1
  Ir  Ir119  1  0.50805641  0.83349464  0.25023292  1
  Ir  Ir120  1  0.50354562  0.49674783  0.49735021  1
  Ir  Ir121  1  0.34187323  0.66530825  0.49699313  1
  Ir  Ir122  1  0.66321797  0.33249509  0.25226820  1
  Ir  Ir123  1  0.83322372  0.16454880  0.74881912  1
  Ir  Ir124  1  0.83055841  0.16547128  0.50293465  1
  Ir  Ir125  1  -0.00631368  0.66149517  0.75022760  1
  Ir  Ir126  1  0.83005570  0.50486596  0.74930806  1
  Ir  Ir127  1  0.66700656  0.66529932  0.24990715  1
  Ir  Ir128  1  0.83750351  0.49815427  0.25092750  1
  Ir  Ir129  1  0.50640073  0.50481205  0.00424549  1
  Ir  Ir130  1  0.16036743  0.50214782  0.75029928  1
  Ir  Ir131  1  -0.00231792  0.33530883  0.25142495  1
  Ir  Ir132  1  0.66843214  0.00135984  0.74443822  1
  Ir  Ir133  1  0.49741447  0.16962719  0.49743727  1
  Ir  Ir134  1  -0.00931732  0.66526795  0.24720580  1
  Ir  Ir135  1  0.83390518  0.82886755  0.00598570  1
  Ir  Ir136  1  0.33704142  0.33516258  0.49700462  1
  Ir  Ir137  1  -0.00641752  0.66642313  0.49573298  1
  Ir  Ir138  1  0.66967036  0.00013653  0.49530934  1
  Ir  Ir139  1  0.16205027  0.17182309  0.24937135  1
  Ir  Ir140  1  0.66676137  0.66315834  0.50222391  1
  Ir  Ir141  1  0.00371566  0.33234757  0.49887104  1
  Ir  Ir142  1  0.16529991  0.16949140  0.00380663  1
  Ir  Ir143  1  0.83223157  0.83037220  0.49492815  1
  O  O144  1  0.32294304  0.34457251  0.12602903  1
  O  O145  1  0.29464090  0.33136223  0.61399562  1
  O  O146  1  0.32228179  0.65079784  0.12976470  1
  O  O147  1  0.31894476  0.66181672  0.61387924  1
  O  O148  1  0.31857377  0.98643527  0.12970526  1
  O  O149  1  0.30290008  1.00192700  0.62544989  1
  O  O150  1  0.63060592  0.32566239  0.13375613  1
  O  O151  1  0.63484614  0.33503388  0.61647715  1
  O  O152  1  0.63935251  0.66608063  0.13068358  1
  O  O153  1  0.63596793  0.65074996  0.62519844  1
  O  O154  1  0.63356176  0.98865255  0.13512379  1
  O  O155  1  0.64821323  1.00352823  0.61860744  1
  O  O156  1  0.96587924  0.32943834  0.13279127  1
  O  O157  1  0.98773066  0.33650527  0.61991944  1
  O  O158  1  0.95906464  0.65204222  0.12335307  1
  O  O159  1  0.96354419  0.66103600  0.62113368  1
  O  O160  1  0.96341126  0.98479704  0.12884690  1
  O  O161  1  0.96507328  1.00146326  0.62281620  1
  O  O162  1  0.18503503  0.17050863  0.12805872  1
  O  O163  1  0.18091220  0.14309606  0.62327856  1
  O  O164  1  0.19975316  0.50013044  0.13082038  1
  O  O165  1  0.18023653  0.49165543  0.62578637  1
  O  O166  1  0.19782949  0.82667138  0.12930828  1
  O  O167  1  0.17480423  0.83855272  0.62196670  1
  O  O168  1  0.53359677  0.15636862  0.12278314  1
  O  O169  1  0.51681000  0.16322232  0.61487864  1
  O  O170  1  0.52705212  0.48644481  0.12839176  1
  O  O171  1  0.53522386  0.48542108  0.61525894  1
  O  O172  1  0.53976834  0.82267337  0.13355685  1
  O  O173  1  0.52234099  0.82879071  0.61568056  1
  O  O174  1  0.87123401  0.15284396  0.13247846  1
  O  O175  1  0.85182918  0.15560951  0.62430850  1
  O  O176  1  0.86792181  0.48792476  0.13190946  1
  O  O177  1  0.85223583  0.50115199  0.63003654  1
  O  O178  1  0.86370561  0.81771378  0.12931904  1
  O  O179  1  0.84928959  0.81830936  0.61586413  1
  O  O180  1  0.14087881  0.18276463  0.36851535  1
  O  O181  1  0.14419692  0.17492948  0.88310849  1
  O  O182  1  0.12853920  0.50643018  0.37532819  1
  O  O183  1  0.13531753  0.50789498  0.87072194  1
  O  O184  1  0.12635911  0.83383180  0.37550930  1
  O  O185  1  0.14472794  0.83714493  0.87447103  1
  O  O186  1  0.46736345  0.18163619  0.37830142  1
  O  O187  1  0.46803048  0.17056913  0.88201087  1
  O  O188  1  0.47250967  0.50233660  0.37311305  1
  O  O189  1  0.48833483  0.51860646  0.88267572  1
  O  O190  1  0.47407086  0.84051180  0.37077581  1
  O  O191  1  0.48722661  0.83246119  0.87346592  1
  O  O192  1  0.81774664  0.16883237  0.38196445  1
  O  O193  1  0.81776691  0.16585145  0.87032906  1
  O  O194  1  0.81526470  0.50624412  0.37202316  1
  O  O195  1  0.79594671  0.51463709  0.86809851  1
  O  O196  1  0.81095345  0.84511624  0.37214559  1
  O  O197  1  0.81450872  0.82884363  0.88341747  1
  O  O198  1  0.00888438  -0.00376497  0.38313688  1
  O  O199  1  0.01012746  -0.00198518  0.86791277  1
  O  O200  1  0.03169957  0.34148317  0.37326820  1
  O  O201  1  0.03675394  0.34667810  0.87560018  1
  O  O202  1  0.01537165  0.67862800  0.37098372  1
  O  O203  1  0.01648913  0.66812749  0.87616944  1
  O  O204  1  0.37333906  0.01825501  0.37427865  1
  O  O205  1  0.34916148  0.01044185  0.87072655  1
  O  O206  1  0.37244817  0.34568253  0.37987262  1
  O  O207  1  0.35324705  0.33800140  0.87390211  1
  O  O208  1  0.36587711  0.67851922  0.38022871  1
  O  O209  1  0.37164825  0.66893707  0.87466470  1
  O  O210  1  0.70168694  -0.00074306  0.37390690  1
  O  O211  1  0.68354347  -0.00086682  0.86683577  1
  O  O212  1  0.68626720  0.33077822  0.37474553  1
  O  O213  1  0.68557873  0.34870511  0.87801644  1
  O  O214  1  0.69800913  0.66223250  0.37673265  1
  O  O215  1  0.70110627  0.66987460  0.86644685  1
  O  O216  1  0.07071056  0.10189771  0.02544263  1
  O  O217  1  0.06379579  0.08934159  0.51156601  1
  O  O218  1  0.06861646  0.43676445  0.03273335  1
  O  O219  1  0.07930540  0.41695877  0.51260676  1
  O  O220  1  0.05633371  0.75772766  0.02822604  1
  O  O221  1  0.06322224  0.75562539  0.50872755  1
  O  O222  1  0.41120551  0.09972015  0.01991484  1
  O  O223  1  0.40952534  0.10013584  0.51290778  1
  O  O224  1  0.41048859  0.44038396  0.02427135  1
  O  O225  1  0.41166239  0.42534496  0.52271914  1
  O  O226  1  0.40799565  0.76624268  0.03920510  1
  O  O227  1  0.41380746  0.75713008  0.52057185  1
  O  O228  1  0.73590044  0.09388885  0.03454703  1
  O  O229  1  0.74294220  0.08968215  0.52338077  1
  O  O230  1  0.75136097  0.41859032  0.03021266  1
  O  O231  1  0.73226354  0.42374645  0.52021432  1
  O  O232  1  0.73903414  0.76667103  0.02965641  1
  O  O233  1  0.74151227  0.75311204  0.52112879  1
  O  O234  1  0.09489370  0.25840674  0.02123028  1
  O  O235  1  0.10066613  0.26748699  0.51747988  1
  O  O236  1  0.08098234  0.59660862  0.02048554  1
  O  O237  1  0.08501175  0.59711892  0.51465112  1
  O  O238  1  0.08524660  0.92185909  0.02642841  1
  O  O239  1  0.09110562  0.93941949  0.52491751  1
  O  O240  1  0.43951271  0.26368978  0.02639687  1
  O  O241  1  0.43363286  0.26748072  0.52193295  1
  O  O242  1  0.44704216  0.59914729  0.02564092  1
  O  O243  1  0.43766202  0.59378348  0.52288989  1
  O  O244  1  0.43793218  0.93429861  0.02618425  1
  O  O245  1  0.43246113  0.92105236  0.50481152  1
  O  O246  1  0.75846615  0.25798910  0.04041327  1
  O  O247  1  0.75864245  0.26077453  0.52045395  1
  O  O248  1  0.76941943  0.60258739  0.02519430  1
  O  O249  1  0.75893502  0.59501043  0.52211320  1
  O  O250  1  0.77052878  0.92472524  0.03231462  1
  O  O251  1  0.76878310  0.93223311  0.51687155  1
  O  O252  1  0.23869952  0.08595442  0.27082563  1
  O  O253  1  0.24374643  0.07630635  0.77078198  1
  O  O254  1  0.23863510  0.40265021  0.28733816  1
  O  O255  1  0.22440606  0.40527600  0.76514699  1
  O  O256  1  0.24840328  0.74417429  0.27728659  1
  O  O257  1  0.24606951  0.74498940  0.75830693  1
  O  O258  1  0.57354466  0.06210487  0.27628498  1
  O  O259  1  0.57963831  0.07403035  0.75836949  1
  O  O260  1  0.56479678  0.40050864  0.27130003  1
  O  O261  1  0.57924775  0.41533415  0.76925389  1
  O  O262  1  0.57146587  0.73334571  0.26683346  1
  O  O263  1  0.57669016  0.72773805  0.76534949  1
  O  O264  1  0.89078171  0.05789640  0.27301549  1
  O  O265  1  0.90022127  0.06930347  0.75944868  1
  O  O266  1  0.90845489  0.40769177  0.27877128  1
  O  O267  1  0.90356844  0.41737133  0.77275950  1
  O  O268  1  0.89272830  0.73074239  0.27356477  1
  O  O269  1  0.89792631  0.72672936  0.76389167  1
  O  O270  1  0.25736140  0.23956538  0.27481199  1
  O  O271  1  0.26189209  0.23754350  0.77912883  1
  O  O272  1  0.27188719  0.56441817  0.28007878  1
  O  O273  1  0.25224009  0.57053165  0.76163459  1
  O  O274  1  0.26954103  0.90237657  0.28007719  1
  O  O275  1  0.25245139  0.92113871  0.75820643  1
  O  O276  1  0.59631847  0.24156054  0.27181219  1
  O  O277  1  0.59073421  0.24316222  0.76348759  1
  O  O278  1  0.60078061  0.56931780  0.26623500  1
  O  O279  1  0.60816732  0.57126858  0.76921697  1
  O  O280  1  0.60094498  0.90207710  0.27501094  1
  O  O281  1  0.59622454  0.91358241  0.75431333  1
  O  O282  1  0.92698587  0.24659919  0.26653047  1
  O  O283  1  0.92134738  0.23925414  0.76241147  1
  O  O284  1  0.92853033  0.56817458  0.27760480  1
  O  O285  1  0.92322989  0.57126001  0.78056949  1
  O  O286  1  0.92523590  0.89201638  0.27183195  1
  O  O287  1  0.92474964  0.90848206  0.75827634  1
  O  O288  1  0.26709196  0.24651247  0.46625083  1
  O  O289  1  0.25920293  0.23599256  0.97842541  1
  O  O290  1  0.27249562  0.57312105  0.47374828  1
  O  O291  1  0.26946437  0.56674433  0.99248622  1
  O  O292  1  0.26397016  0.90306631  0.46963494  1
  O  O293  1  0.26523996  0.90550251  0.99299065  1
  O  O294  1  0.58798780  0.24209956  0.47346668  1
  O  O295  1  0.59559906  0.23180492  0.98922721  1
  O  O296  1  0.60130106  0.56436679  0.48533721  1
  O  O297  1  0.60511649  0.56276845  0.97932239  1
  O  O298  1  0.59217977  0.91128870  0.46981359  1
  O  O299  1  0.60899940  0.89685310  0.99783028  1
  O  O300  1  0.92612155  0.24167500  0.48745266  1
  O  O301  1  0.92842889  0.24357922  0.99205571  1
  O  O302  1  0.92549110  0.57580569  0.47092141  1
  O  O303  1  0.92775208  0.57628440  0.96960100  1
  O  O304  1  0.92674997  0.89921815  0.47506898  1
  O  O305  1  0.92527382  0.89181736  0.99368662  1
  O  O306  1  0.24800939  0.08300842  0.46660174  1
  O  O307  1  0.24060013  0.08378963  0.98519670  1
  O  O308  1  0.24666567  0.40685458  0.46996728  1
  O  O309  1  0.23045838  0.39836756  0.97409365  1
  O  O310  1  0.25377582  0.74023450  0.47955505  1
  O  O311  1  0.24012839  0.73732796  0.98470785  1
  O  O312  1  0.56730330  0.07133230  0.47277054  1
  O  O313  1  0.56573592  0.07266080  0.98682998  1
  O  O314  1  0.56684763  0.39879802  0.47318428  1
  O  O315  1  0.56918460  0.41089009  0.98760812  1
  O  O316  1  0.57437395  0.73532040  0.49059134  1
  O  O317  1  0.56556942  0.72588218  0.98154413  1
  O  O318  1  0.89425890  0.06351151  0.48483804  1
  O  O319  1  0.89776307  0.06505801  0.99219209  1
  O  O320  1  0.91826236  0.41065784  0.48026972  1
  O  O321  1  0.91508028  0.41975504  0.96668482  1
  O  O322  1  0.89668918  0.73385220  0.46895533  1
  O  O323  1  0.89190557  0.72810355  0.98382232  1
  O  O324  1  0.08596497  0.26229714  0.22367217  1
  O  O325  1  0.10033379  0.26818202  0.72680135  1
  O  O326  1  0.08051720  0.59452663  0.22685569  1
  O  O327  1  0.08922568  0.59384311  0.73096029  1
  O  O328  1  0.08734814  0.92398854  0.22922999  1
  O  O329  1  0.08484642  0.93254750  0.72824375  1
  O  O330  1  0.43730201  0.27099298  0.23269622  1
  O  O331  1  0.42851347  0.26407362  0.71718706  1
  O  O332  1  0.44291258  0.59661197  0.22644494  1
  O  O333  1  0.43805581  0.59949390  0.72369864  1
  O  O334  1  0.44657659  0.92800120  0.22978400  1
  O  O335  1  0.41500713  0.92847920  0.73252874  1
  O  O336  1  0.75417985  0.26004189  0.22515980  1
  O  O337  1  0.76232902  0.25392007  0.73582572  1
  O  O338  1  0.76974584  0.59885590  0.23154886  1
  O  O339  1  0.76592533  0.59916149  0.71993498  1
  O  O340  1  0.76399297  0.92702226  0.22275503  1
  O  O341  1  0.76016384  0.93028608  0.72585191  1
  O  O342  1  0.06719749  0.10357739  0.22933113  1
  O  O343  1  0.07030323  0.08562514  0.73536819  1
  O  O344  1  0.06197542  0.42970235  0.23177821  1
  O  O345  1  0.07154426  0.43421244  0.73340996  1
  O  O346  1  0.05468963  0.75993870  0.22877744  1
  O  O347  1  0.06368885  0.75008090  0.73248234  1
  O  O348  1  0.41321047  0.09154905  0.22499044  1
  O  O349  1  0.40141601  0.09129232  0.73976251  1
  O  O350  1  0.40662061  0.44175705  0.23297930  1
  O  O351  1  0.41181027  0.42387358  0.72532374  1
  O  O352  1  0.41337369  0.77011219  0.22682981  1
  O  O353  1  0.41690659  0.75503546  0.72005709  1
  O  O354  1  0.73025422  0.08967303  0.22313630  1
  O  O355  1  0.74400791  0.08849710  0.72528200  1
  O  O356  1  0.74684285  0.42022657  0.22773396  1
  O  O357  1  0.73813965  0.43776215  0.72510789  1
  O  O358  1  0.73509772  0.76037112  0.22439095  1
  O  O359  1  0.73769940  0.75304541  0.72260942  1
