# generated using pymatgen
data_BaLaInIrO6
_symmetry_space_group_name_H-M   'P 1'
_cell_length_a   17.51857223
_cell_length_b   17.54596154
_cell_length_c   16.50245012
_cell_angle_alpha   89.99813138
_cell_angle_beta   90.01456932
_cell_angle_gamma   90.03616357
_symmetry_Int_Tables_number   1
_chemical_formula_structural   BaLaInIrO6
_chemical_formula_sum   'Ba36 La36 In36 Ir36 O216'
_cell_volume   5072.52515428
_cell_formula_units_Z   36
loop_
 _symmetry_equiv_pos_site_id
 _symmetry_equiv_pos_as_xyz
  1  'x, y, z'
loop_
 _atom_site_type_symbol
 _atom_site_label
 _atom_site_symmetry_multiplicity
 _atom_site_fract_x
 _atom_site_fract_y
 _atom_site_fract_z
 _atom_site_occupancy
  Ba  Ba0  1  0.50143706  0.65580744  0.38091162  1
  Ba  Ba1  1  0.16835983  0.67832043  0.62256658  1
  Ba  Ba2  1  0.33449338  0.15935287  0.87570111  1
  Ba  Ba3  1  0.16676640  0.34115284  0.12318244  1
  Ba  Ba4  1  1.00664166  0.84230074  0.61856420  1
  Ba  Ba5  1  0.16747042  0.66395449  0.37605483  1
  Ba  Ba6  1  1.00135885  0.50756695  0.11990130  1
  Ba  Ba7  1  0.83257156  0.67663357  0.62334868  1
  Ba  Ba8  1  0.48984214  0.34278317  0.63497302  1
  Ba  Ba9  1  0.16859012  0.98736994  0.37406640  1
  Ba  Ba10  1  0.83586282  0.32351072  0.87936620  1
  Ba  Ba11  1  0.00027469  0.49533260  0.37480982  1
  Ba  Ba12  1  0.66429283  0.15786769  0.87564989  1
  Ba  Ba13  1  0.83050944  0.32800840  0.37196802  1
  Ba  Ba14  1  0.16515732  0.34131764  0.62558213  1
  Ba  Ba15  1  0.49802650  0.01071101  0.12482268  1
  Ba  Ba16  1  0.17322694  0.98987278  0.87780966  1
  Ba  Ba17  1  0.82929851  0.34445892  0.12366083  1
  Ba  Ba18  1  0.66581762  0.49310505  0.37936311  1
  Ba  Ba19  1  0.67195402  0.84015301  0.62993052  1
  Ba  Ba20  1  0.66440078  0.50568826  0.12247655  1
  Ba  Ba21  1  0.50219955  0.99054177  0.88088422  1
  Ba  Ba22  1  0.49722590  0.66064574  0.87020556  1
  Ba  Ba23  1  0.50086158  0.68098956  0.62887760  1
  Ba  Ba24  1  0.00453964  0.48976044  0.87783994  1
  Ba  Ba25  1  0.49389020  0.34307307  0.12183849  1
  Ba  Ba26  1  0.16619407  0.67265906  0.12368066  1
  Ba  Ba27  1  0.32553330  0.49613473  0.37772524  1
  Ba  Ba28  1  0.00261808  0.82355280  0.36863008  1
  Ba  Ba29  1  0.33005421  0.16001243  0.37699809  1
  Ba  Ba30  1  1.00262513  0.84315861  0.12423033  1
  Ba  Ba31  1  0.33097551  0.82500928  0.37319580  1
  Ba  Ba32  1  0.66501041  0.17595929  0.12151408  1
  Ba  Ba33  1  0.49808843  0.32341080  0.87607282  1
  Ba  Ba34  1  0.83808269  0.65965744  0.37605472  1
  Ba  Ba35  1  0.33544507  0.84024431  0.62284230  1
  La  La36  1  0.84097416  0.98955202  0.37429224  1
  La  La37  1  0.33364108  0.84529529  0.12554290  1
  La  La38  1  0.16141451  0.01091657  0.62112203  1
  La  La39  1  0.33293337  0.82365244  0.87484358  1
  La  La40  1  1.00092042  0.17674032  0.62262878  1
  La  La41  1  0.82875312  0.35205099  0.62699653  1
  La  La42  1  0.34071911  0.18347578  0.12261158  1
  La  La43  1  0.66225560  0.48495097  0.87495332  1
  La  La44  1  0.33699051  0.52189693  0.62954806  1
  La  La45  1  -0.00549770  0.15144906  0.87592397  1
  La  La46  1  0.17848772  0.65175157  0.87271632  1
  La  La47  1  0.50773991  0.32142305  0.37786502  1
  La  La48  1  0.82884658  0.01215930  0.12258923  1
  La  La49  1  0.66089687  0.15707898  0.37826883  1
  La  La50  1  -0.00428102  0.15321669  0.37505720  1
  La  La51  1  1.00299915  0.18215227  0.12532373  1
  La  La52  1  1.00503247  0.51912588  0.62607023  1
  La  La53  1  0.16998222  0.31453059  0.87267286  1
  La  La54  1  0.67243992  0.84419937  0.12219334  1
  La  La55  1  0.83994700  0.65153703  0.87099884  1
  La  La56  1  0.66407628  0.51417943  0.62526453  1
  La  La57  1  0.50312831  0.98618125  0.37678630  1
  La  La58  1  0.83503965  0.67292875  0.12796168  1
  La  La59  1  0.65934091  0.81547561  0.37683108  1
  La  La60  1  0.83837890  0.00334018  0.62713232  1
  La  La61  1  0.49981468  0.00844467  0.62880542  1
  La  La62  1  0.83581211  0.99374593  0.87612537  1
  La  La63  1  0.33281081  0.17578928  0.62933007  1
  La  La64  1  0.16442501  0.01323083  0.12850700  1
  La  La65  1  0.49213688  0.67890666  0.12496760  1
  La  La66  1  0.00270662  0.81514157  0.87641696  1
  La  La67  1  0.32683876  0.48097021  0.87115722  1
  La  La68  1  0.16677826  0.31751813  0.37583970  1
  La  La69  1  0.66586905  0.18255232  0.62652597  1
  La  La70  1  0.66692304  0.82183784  0.87641435  1
  La  La71  1  0.33876700  0.51795111  0.12143586  1
  In  In72  1  0.49776475  0.49948594  0.25032632  1
  In  In73  1  0.83246554  0.83302193  0.24527626  1
  In  In74  1  0.33255739  0.33793036  0.25348138  1
  In  In75  1  0.16491297  0.49764415  0.50320144  1
  In  In76  1  0.66803766  0.66566775  0.75606230  1
  In  In77  1  0.67057579  -0.00019822  0.25076126  1
  In  In78  1  0.83674776  0.83157018  -0.00343710  1
  In  In79  1  -0.00465178  0.33208961  0.50078251  1
  In  In80  1  0.66441643  0.66379042  0.24585630  1
  In  In81  1  0.33258946  -0.00176922  0.74897679  1
  In  In82  1  0.83402305  0.16438777  0.74781770  1
  In  In83  1  0.66501137  0.33328616  0.24993221  1
  In  In84  1  -0.00120921  0.33266282  0.75158441  1
  In  In85  1  0.83443248  0.83864469  0.49893807  1
  In  In86  1  0.49863183  0.50445347  -0.00560139  1
  In  In87  1  0.33324011  -0.00188859  0.00159499  1
  In  In88  1  0.67031907  0.00333805  0.50156998  1
  In  In89  1  0.00233728  0.66905452  0.49859090  1
  In  In90  1  0.83365439  0.49890313  0.50102926  1
  In  In91  1  0.83333965  0.50178414  -0.00195365  1
  In  In92  1  0.66615811  0.33504388  0.74918051  1
  In  In93  1  0.83243262  0.16789084  0.24934713  1
  In  In94  1  0.83008957  0.16796114  0.50099187  1
  In  In95  1  0.33399664  0.33443941  0.50132470  1
  In  In96  1  0.33102042  0.00255460  0.25063985  1
  In  In97  1  0.49951500  0.16390464  0.75036238  1
  In  In98  1  0.50091369  0.83785258  0.50246840  1
  In  In99  1  0.49644797  0.16543026  0.25287742  1
  In  In100  1  0.83878061  0.83591696  0.75325720  1
  In  In101  1  0.16694292  0.49766827  0.24945422  1
  In  In102  1  0.83480349  0.16621187  -0.00001764  1
  In  In103  1  0.33321171  0.66868243  0.24964148  1
  In  In104  1  0.50095744  0.83491251  0.24793557  1
  In  In105  1  0.16388272  0.16364494  -0.00005575  1
  In  In106  1  0.16664614  0.83366070  0.75132655  1
  In  In107  1  0.66728932  0.66672857  0.50196427  1
  Ir  Ir108  1  0.66657511  0.00025140  0.75110105  1
  Ir  Ir109  1  0.83736107  0.50199339  0.24662235  1
  Ir  Ir110  1  0.00016369  0.66538676  0.24331385  1
  Ir  Ir111  1  0.49974447  0.16809654  0.00141208  1
  Ir  Ir112  1  0.00378209  -0.00051316  0.75222709  1
  Ir  Ir113  1  0.00018995  0.00191545  0.24764187  1
  Ir  Ir114  1  0.17278809  0.83880883  0.49845347  1
  Ir  Ir115  1  0.32766066  0.33436547  -0.00482995  1
  Ir  Ir116  1  0.66020383  0.33302004  0.50613338  1
  Ir  Ir117  1  0.50297166  0.83779657  0.75512915  1
  Ir  Ir118  1  0.50354051  0.82970376  -0.00185556  1
  Ir  Ir119  1  0.83469310  0.50141823  0.75151605  1
  Ir  Ir120  1  0.66437990  0.33428922  -0.00288165  1
  Ir  Ir121  1  0.33593445  0.66729721  0.50525093  1
  Ir  Ir122  1  0.32506645  0.33258500  0.75168732  1
  Ir  Ir123  1  0.00190809  0.33181764  0.24860395  1
  Ir  Ir124  1  0.16641939  0.83278119  0.24592150  1
  Ir  Ir125  1  0.49544676  0.50000088  0.75151633  1
  Ir  Ir126  1  0.66638664  0.66989278  -0.00186545  1
  Ir  Ir127  1  0.16817599  0.50042626  0.75145908  1
  Ir  Ir128  1  0.00570507  0.33289931  -0.00006729  1
  Ir  Ir129  1  0.33683147  0.66794146  0.75452838  1
  Ir  Ir130  1  0.33278437  0.67013596  -0.00477416  1
  Ir  Ir131  1  0.00516717  0.66564031  -0.00584375  1
  Ir  Ir132  1  0.33274266  0.00496474  0.50338969  1
  Ir  Ir133  1  0.16111338  0.16591875  0.25166083  1
  Ir  Ir134  1  0.49553451  0.49694635  0.50772290  1
  Ir  Ir135  1  0.66747789  -0.00215872  -0.00057061  1
  Ir  Ir136  1  0.00166873  0.00173502  0.49718055  1
  Ir  Ir137  1  0.16577851  0.83021407  0.00066404  1
  Ir  Ir138  1  0.00286159  -0.00260224  0.00001179  1
  Ir  Ir139  1  0.16196501  0.16426634  0.74568963  1
  Ir  Ir140  1  0.17100154  0.49860100  -0.00693277  1
  Ir  Ir141  1  0.16451467  0.16317214  0.50136394  1
  Ir  Ir142  1  0.49760312  0.16383494  0.50321502  1
  Ir  Ir143  1  0.00390805  0.66400925  0.75663988  1
  O  O144  1  0.31447865  0.32175805  0.11580787  1
  O  O145  1  0.31215788  0.31726660  0.63132626  1
  O  O146  1  0.31671946  0.65889325  0.11314386  1
  O  O147  1  0.31713827  0.66332437  0.63247481  1
  O  O148  1  0.29988828  0.98381618  0.12430395  1
  O  O149  1  0.29946785  0.99970033  0.62115870  1
  O  O150  1  0.64644660  0.33831344  0.11685755  1
  O  O151  1  0.63830141  0.32584637  0.62290075  1
  O  O152  1  0.62930622  0.66235915  0.11243987  1
  O  O153  1  0.64926141  0.65303506  0.63126921  1
  O  O154  1  0.64263902  0.98563434  0.11655154  1
  O  O155  1  0.63603809  0.99240993  0.63199929  1
  O  O156  1  0.97830004  0.31909612  0.12419686  1
  O  O157  1  0.96337397  0.31183217  0.62889174  1
  O  O158  1  0.97209314  0.66549449  0.11687385  1
  O  O159  1  0.98215702  0.66179349  0.63810242  1
  O  O160  1  0.96890823  0.99527670  0.12283412  1
  O  O161  1  0.97414459  0.99496264  0.62559091  1
  O  O162  1  0.19238576  0.16167370  0.13223519  1
  O  O163  1  0.19537325  0.15435130  0.62316470  1
  O  O164  1  0.20135363  0.49386977  0.11114047  1
  O  O165  1  0.20008510  0.49518041  0.63485756  1
  O  O166  1  0.19593221  0.82939019  0.12263799  1
  O  O167  1  0.18430816  0.84051411  0.62008699  1
  O  O168  1  0.51454317  0.17212167  0.12030001  1
  O  O169  1  0.53033992  0.15016129  0.61983000  1
  O  O170  1  0.51033573  0.50141465  0.11833743  1
  O  O171  1  0.52701120  0.49742699  0.63082163  1
  O  O172  1  0.53516932  0.82018951  0.11587037  1
  O  O173  1  0.52158791  0.84256341  0.63379497  1
  O  O174  1  0.86977601  0.15517648  0.12229343  1
  O  O175  1  0.86712370  0.14429550  0.62477739  1
  O  O176  1  0.84995248  0.50488754  0.12551800  1
  O  O177  1  0.86644802  0.49177390  0.63466537  1
  O  O178  1  0.85670528  0.81242595  0.11777504  1
  O  O179  1  0.85571277  0.85015225  0.62918013  1
  O  O180  1  0.13141224  0.17344939  0.37698064  1
  O  O181  1  0.13229477  0.17136263  0.86769585  1
  O  O182  1  0.15200056  0.51046438  0.37649367  1
  O  O183  1  0.14970665  0.51336304  0.87202384  1
  O  O184  1  0.14949771  0.83343544  0.36953755  1
  O  O185  1  0.13692675  0.83603840  0.88135036  1
  O  O186  1  0.47751066  0.17962420  0.38548916  1
  O  O187  1  0.48419634  0.16212766  0.88088449  1
  O  O188  1  0.47561537  0.49616161  0.38917649  1
  O  O189  1  0.46359804  0.50209753  0.86980115  1
  O  O190  1  0.47810073  0.85080002  0.37626776  1
  O  O191  1  0.47072243  0.83489233  0.87700230  1
  O  O192  1  0.79832461  0.17073943  0.37562642  1
  O  O193  1  0.81820953  0.15413525  0.87485946  1
  O  O194  1  0.82339553  0.50096885  0.36754248  1
  O  O195  1  0.80128747  0.51069206  0.87181420  1
  O  O196  1  0.79817272  0.84986254  0.36937963  1
  O  O197  1  0.80380573  0.85302700  0.87643039  1
  O  O198  1  0.02534790  0.01669548  0.37270158  1
  O  O199  1  0.02879569  0.01545814  0.87579108  1
  O  O200  1  0.02950058  0.33648432  0.36967607  1
  O  O201  1  0.03428186  0.33497770  0.87900099  1
  O  O202  1  0.01579559  0.66348839  0.36449838  1
  O  O203  1  0.03978670  0.66972507  0.87563695  1
  O  O204  1  0.36384680  0.00620685  0.38248465  1
  O  O205  1  0.34918791  0.00117312  0.87641448  1
  O  O206  1  0.37156139  0.33569158  0.37961897  1
  O  O207  1  0.34819513  0.34195987  0.87273778  1
  O  O208  1  0.34780486  0.66325871  0.38345326  1
  O  O209  1  0.35030369  0.68499934  0.87511140  1
  O  O210  1  0.70563858  0.02269412  0.37466165  1
  O  O211  1  0.69829119  0.00362402  0.87488706  1
  O  O212  1  0.67749661  0.33343083  0.38769033  1
  O  O213  1  0.68518581  0.34011774  0.87646424  1
  O  O214  1  0.68702065  0.67649498  0.37397344  1
  O  O215  1  0.70236216  0.67840286  0.88183129  1
  O  O216  1  0.06480835  0.09200695  0.02738877  1
  O  O217  1  0.07051051  0.09359466  0.52752915  1
  O  O218  1  0.07901442  0.42639145  0.01665813  1
  O  O219  1  0.06251865  0.42922601  0.53092393  1
  O  O220  1  0.07084135  0.76207462  0.01195191  1
  O  O221  1  0.08609003  0.76410988  0.50741220  1
  O  O222  1  0.40671169  0.09920962  0.02356369  1
  O  O223  1  0.40174684  0.09740026  0.53215282  1
  O  O224  1  0.39159578  0.43136789  0.00977468  1
  O  O225  1  0.40047136  0.43527847  0.53399405  1
  O  O226  1  0.40348485  0.76409704  0.02318281  1
  O  O227  1  0.40819981  0.75510095  0.51405994  1
  O  O228  1  0.74287238  0.08290917  0.02153612  1
  O  O229  1  0.72564506  0.10918564  0.52700204  1
  O  O230  1  0.73682991  0.42469444  0.00457591  1
  O  O231  1  0.72651022  0.42522167  0.53154961  1
  O  O232  1  0.72862532  0.76523324  0.01894060  1
  O  O233  1  0.74086995  0.76434762  0.51373718  1
  O  O234  1  0.08992084  0.25722428  0.01815386  1
  O  O235  1  0.09249301  0.25018935  0.52091924  1
  O  O236  1  0.09903029  0.59303054  0.01196006  1
  O  O237  1  0.08906352  0.58993625  0.52767985  1
  O  O238  1  0.10306832  0.93088941  0.02525032  1
  O  O239  1  0.10138351  0.93460707  0.51931891  1
  O  O240  1  0.41905079  0.25542724  0.01831470  1
  O  O241  1  0.42395114  0.24928334  0.53053691  1
  O  O242  1  0.42775837  0.60562534  0.01772272  1
  O  O243  1  0.42619473  0.59171004  0.53098386  1
  O  O244  1  0.42827966  0.91469650  0.02381914  1
  O  O245  1  0.42930116  0.94222829  0.52324687  1
  O  O246  1  0.75281200  0.25902125  0.01165577  1
  O  O247  1  0.75646054  0.26940216  0.53229762  1
  O  O248  1  0.76219238  0.60716220  0.02045080  1
  O  O249  1  0.75168856  0.58176617  0.52372073  1
  O  O250  1  0.76004013  0.93056630  0.02137642  1
  O  O251  1  0.77614233  0.94654253  0.51779454  1
  O  O252  1  0.22803848  0.07452495  0.26298046  1
  O  O253  1  0.23466047  0.07785763  0.76096697  1
  O  O254  1  0.22898590  0.39479147  0.27748720  1
  O  O255  1  0.23222018  0.40429378  0.77945479  1
  O  O256  1  0.23690098  0.74448465  0.26040769  1
  O  O257  1  0.24172940  0.73495125  0.77450817  1
  O  O258  1  0.56885452  0.06874587  0.27854438  1
  O  O259  1  0.57289768  0.06284472  0.76324066  1
  O  O260  1  0.56247003  0.39603692  0.27071001  1
  O  O261  1  0.57100842  0.41507130  0.77264548  1
  O  O262  1  0.57238403  0.74102163  0.26894385  1
  O  O263  1  0.57674924  0.75026030  0.77333552  1
  O  O264  1  0.91067769  0.07138033  0.27652804  1
  O  O265  1  0.90837402  0.06109107  0.77370602  1
  O  O266  1  0.91014828  0.40237469  0.26282137  1
  O  O267  1  0.89973590  0.40771894  0.76798410  1
  O  O268  1  0.90991919  0.73534492  0.25791040  1
  O  O269  1  0.91436199  0.73555509  0.78440796  1
  O  O270  1  0.24640461  0.23865711  0.27423294  1
  O  O271  1  0.25100101  0.24045840  0.77472548  1
  O  O272  1  0.26435316  0.57032260  0.24547610  1
  O  O273  1  0.26746372  0.57022140  0.77546664  1
  O  O274  1  0.25534457  0.90223338  0.25959949  1
  O  O275  1  0.26717412  0.89725227  0.77344563  1
  O  O276  1  0.59409462  0.23466299  0.27866699  1
  O  O277  1  0.59144834  0.23957101  0.75744391  1
  O  O278  1  0.59721777  0.56625761  0.26425477  1
  O  O279  1  0.59267775  0.56480100  0.77366636  1
  O  O280  1  0.60361332  0.90176034  0.27421780  1
  O  O281  1  0.60206666  0.90223737  0.77898116  1
  O  O282  1  0.93838152  0.23522542  0.26910853  1
  O  O283  1  0.93572063  0.22870852  0.77693018  1
  O  O284  1  0.93041233  0.57301506  0.26004183  1
  O  O285  1  0.92680415  0.57410272  0.77741182  1
  O  O286  1  0.92614306  0.91619322  0.26884590  1
  O  O287  1  0.94029186  0.90666558  0.78415812  1
  O  O288  1  0.25135409  0.23675054  0.48403798  1
  O  O289  1  0.25454525  0.24494716  0.97738013  1
  O  O290  1  0.26555377  0.57697796  0.50322989  1
  O  O291  1  0.26646054  0.57130709  0.96779820  1
  O  O292  1  0.26532916  0.91177498  0.48170027  1
  O  O293  1  0.26320129  0.88919806  0.98253153  1
  O  O294  1  0.59448009  0.23230138  0.48174094  1
  O  O295  1  0.59026690  0.24328803  0.98035800  1
  O  O296  1  0.58767823  0.56392613  0.49506677  1
  O  O297  1  0.60468667  0.57410823  0.96824129  1
  O  O298  1  0.59846866  0.91140056  0.46824391  1
  O  O299  1  0.60043090  0.89805719  0.97562731  1
  O  O300  1  0.93470050  0.22714150  0.47730627  1
  O  O301  1  0.93870109  0.23771148  0.98034184  1
  O  O302  1  0.92941456  0.57138537  0.49938290  1
  O  O303  1  0.92618940  0.58280088  0.97366124  1
  O  O304  1  0.93219275  0.91576082  0.46999141  1
  O  O305  1  0.93792111  0.90537870  0.97107225  1
  O  O306  1  0.23581753  0.07184068  0.48495367  1
  O  O307  1  0.23437151  0.06958501  0.99604326  1
  O  O308  1  0.23122449  0.39673434  0.47749452  1
  O  O309  1  0.23591937  0.40324889  0.96405241  1
  O  O310  1  0.24562825  0.74284992  0.48566201  1
  O  O311  1  0.23264722  0.73550234  0.97186256  1
  O  O312  1  0.56411498  0.07235972  0.47398933  1
  O  O313  1  0.57563857  0.07594398  0.98478349  1
  O  O314  1  0.56004648  0.39782080  0.48539380  1
  O  O315  1  0.57929679  0.41171156  0.97473386  1
  O  O316  1  0.57752586  0.74673200  0.48415281  1
  O  O317  1  0.57769702  0.74191033  0.96869767  1
  O  O318  1  0.90708205  0.06725168  0.47379002  1
  O  O319  1  0.91017598  0.06311173  0.97634824  1
  O  O320  1  0.89054910  0.39403415  0.49805796  1
  O  O321  1  0.91627860  0.40710587  0.98640478  1
  O  O322  1  0.91413772  0.74807713  0.48712969  1
  O  O323  1  0.91365932  0.73523983  0.96468840  1
  O  O324  1  0.09006350  0.25700817  0.22908516  1
  O  O325  1  0.09217119  0.25235273  0.72718448  1
  O  O326  1  0.08692305  0.59299769  0.22883178  1
  O  O327  1  0.09632871  0.59232253  0.72966198  1
  O  O328  1  0.09668664  0.93190989  0.22440386  1
  O  O329  1  0.09887727  0.93716478  0.72918072  1
  O  O330  1  0.41816972  0.25723169  0.23089750  1
  O  O331  1  0.41128269  0.25377012  0.73886977  1
  O  O332  1  0.43334240  0.60329158  0.22748074  1
  O  O333  1  0.42508445  0.59088080  0.72779313  1
  O  O334  1  0.42293602  0.92582865  0.22861736  1
  O  O335  1  0.43688611  0.93040461  0.73185901  1
  O  O336  1  0.75822344  0.26073473  0.22982484  1
  O  O337  1  0.76437220  0.26327724  0.72209720  1
  O  O338  1  0.77245577  0.59567766  0.22886657  1
  O  O339  1  0.76697208  0.59061612  0.73668965  1
  O  O340  1  0.76389035  0.92665080  0.20920739  1
  O  O341  1  0.76578062  0.94307382  0.73623276  1
  O  O342  1  0.06923819  0.09524236  0.22080585  1
  O  O343  1  0.06919557  0.09510108  0.71856473  1
  O  O344  1  0.06961079  0.42112083  0.22900801  1
  O  O345  1  0.07293930  0.43401697  0.72804366  1
  O  O346  1  0.07203575  0.75834007  0.22930937  1
  O  O347  1  0.06992331  0.75807782  0.74098421  1
  O  O348  1  0.39557632  0.10082495  0.22394750  1
  O  O349  1  0.40641997  0.09170086  0.71799550  1
  O  O350  1  0.39193373  0.44028165  0.22400062  1
  O  O351  1  0.39293745  0.43328883  0.73300285  1
  O  O352  1  0.40408851  0.76295271  0.21593138  1
  O  O353  1  0.40501147  0.76856659  0.74055283  1
  O  O354  1  0.74876494  0.08588122  0.21477570  1
  O  O355  1  0.72963105  0.09470764  0.72218691  1
  O  O356  1  0.74696378  0.43181836  0.23860186  1
  O  O357  1  0.74023725  0.43528327  0.72541764  1
  O  O358  1  0.73861005  0.75648844  0.21399149  1
  O  O359  1  0.74592643  0.75923533  0.74381069  1
