# generated using pymatgen
data_BaLaInIrO6
_symmetry_space_group_name_H-M   'P 1'
_cell_length_a   17.52979476
_cell_length_b   17.54990262
_cell_length_c   16.50448174
_cell_angle_alpha   90.00505938
_cell_angle_beta   90.00721849
_cell_angle_gamma   90.04962775
_symmetry_Int_Tables_number   1
_chemical_formula_structural   BaLaInIrO6
_chemical_formula_sum   'Ba36 La36 In36 Ir36 O216'
_cell_volume   5077.53897605
_cell_formula_units_Z   36
loop_
 _symmetry_equiv_pos_site_id
 _symmetry_equiv_pos_as_xyz
  1  'x, y, z'
loop_
 _atom_site_type_symbol
 _atom_site_label
 _atom_site_symmetry_multiplicity
 _atom_site_fract_x
 _atom_site_fract_y
 _atom_site_fract_z
 _atom_site_occupancy
  Ba  Ba0  1  0.49752184  0.67870737  0.62437637  1
  Ba  Ba1  1  0.83489841  0.66229161  0.87378061  1
  Ba  Ba2  1  -0.00198091  0.82411610  0.37686721  1
  Ba  Ba3  1  0.83138818  0.66193978  0.37584573  1
  Ba  Ba4  1  0.83077178  0.67682085  0.62606787  1
  Ba  Ba5  1  0.66413524  0.15429187  0.37091435  1
  Ba  Ba6  1  0.16690148  0.67723298  0.62366946  1
  Ba  Ba7  1  0.33603638  0.51007741  0.62219921  1
  Ba  Ba8  1  -0.00420560  0.82358976  0.88000515  1
  Ba  Ba9  1  0.16699266  0.65879424  0.87265709  1
  Ba  Ba10  1  0.66943298  0.17697335  0.12683882  1
  Ba  Ba11  1  0.50503187  0.99022042  0.37254537  1
  Ba  Ba12  1  0.66690328  0.84247160  0.12350487  1
  Ba  Ba13  1  0.83350603  0.32739402  0.37119975  1
  Ba  Ba14  1  0.66712336  0.82409834  0.87640299  1
  Ba  Ba15  1  0.66885574  0.84321965  0.62586450  1
  Ba  Ba16  1  0.99587621  0.83797779  0.13097165  1
  Ba  Ba17  1  0.83212021  0.99425682  0.37464263  1
  Ba  Ba18  1  0.34005031  0.50769881  0.12516044  1
  Ba  Ba19  1  1.00036402  0.17300568  0.12110196  1
  Ba  Ba20  1  0.83452640  0.32679894  0.87315492  1
  Ba  Ba21  1  0.82804767  0.34535500  0.12338600  1
  Ba  Ba22  1  0.66415527  0.15980125  0.87654657  1
  Ba  Ba23  1  0.16555436  0.65221992  0.37837919  1
  Ba  Ba24  1  0.16344119  0.67209373  0.12534879  1
  Ba  Ba25  1  0.16581352  0.34069691  0.12279867  1
  Ba  Ba26  1  0.50326847  0.65728377  0.87353789  1
  Ba  Ba27  1  0.66738589  0.51275003  0.12831046  1
  Ba  Ba28  1  1.00012525  0.17159681  0.62241312  1
  Ba  Ba29  1  0.16663118  0.98896321  0.87693955  1
  Ba  Ba30  1  0.33797162  0.84133448  0.62595121  1
  Ba  Ba31  1  0.16163332  0.32633306  0.87471820  1
  Ba  Ba32  1  0.17046078  0.34148222  0.62499585  1
  Ba  Ba33  1  -0.00261054  0.49593222  0.36828693  1
  Ba  Ba34  1  0.66250739  0.48688704  0.38113022  1
  Ba  Ba35  1  1.00026293  0.50241714  0.12698102  1
  La  La36  1  0.83561123  0.67196067  0.13043490  1
  La  La37  1  0.33824372  0.84078569  0.12285419  1
  La  La38  1  0.82752615  0.01421012  0.12863159  1
  La  La39  1  0.33861832  0.18305504  0.12492317  1
  La  La40  1  0.32458977  0.81334789  0.37965834  1
  La  La41  1  1.00203748  0.84484600  0.62526235  1
  La  La42  1  0.49747890  0.67983268  0.12997946  1
  La  La43  1  0.17378750  0.98430068  0.37668584  1
  La  La44  1  0.33051408  0.15407548  0.87523123  1
  La  La45  1  0.49734514  0.34948666  0.13262329  1
  La  La46  1  0.49177806  0.35177059  0.62170468  1
  La  La47  1  0.84093867  0.00436425  0.62512926  1
  La  La48  1  0.83686444  0.99490766  0.88040747  1
  La  La49  1  0.33753050  0.15511681  0.37545786  1
  La  La50  1  0.66508547  0.49189892  0.87404312  1
  La  La51  1  0.50822532  0.32228326  0.87306705  1
  La  La52  1  0.51141750  0.31255677  0.37812947  1
  La  La53  1  0.16230879  0.01015626  0.12757343  1
  La  La54  1  0.67107532  0.18495895  0.62044925  1
  La  La55  1  0.32744394  0.81695204  0.87288232  1
  La  La56  1  0.15270618  0.33037507  0.37096622  1
  La  La57  1  0.49938299  0.01901608  0.12428889  1
  La  La58  1  -0.00744803  0.15553654  0.36853577  1
  La  La59  1  0.32851665  0.48437443  0.86988386  1
  La  La60  1  0.16302485  0.01280272  0.62827750  1
  La  La61  1  0.49909968  0.01855706  0.62507196  1
  La  La62  1  0.50492380  0.98658491  0.87212593  1
  La  La63  1  -0.00714301  0.15037260  0.87016070  1
  La  La64  1  0.32871904  0.47534325  0.37750312  1
  La  La65  1  1.00809790  0.51405009  0.62187737  1
  La  La66  1  0.00237561  0.49802180  0.88449227  1
  La  La67  1  0.33689858  0.17851710  0.62383118  1
  La  La68  1  0.50516916  0.64955740  0.37771930  1
  La  La69  1  0.66699616  0.51939058  0.62814364  1
  La  La70  1  0.66429613  0.81918601  0.37132473  1
  La  La71  1  0.82852376  0.35664933  0.62123550  1
  In  In72  1  0.83243034  0.50209023  0.75292769  1
  In  In73  1  0.33597013  0.66484967  0.00058127  1
  In  In74  1  0.33403159  -0.00245675  0.24972553  1
  In  In75  1  0.16920676  0.16545089  0.25060793  1
  In  In76  1  0.66432400  0.33620996  0.00001189  1
  In  In77  1  0.83274363  0.16678789  0.49898987  1
  In  In78  1  0.83398381  0.83617202  0.75194263  1
  In  In79  1  0.17047496  0.49940232  -0.00111993  1
  In  In80  1  0.33400877  -0.00135531  0.00102262  1
  In  In81  1  -0.00076914  0.33200083  -0.00439856  1
  In  In82  1  0.66755668  0.00509352  0.74712348  1
  In  In83  1  0.17185502  0.49811604  0.24916464  1
  In  In84  1  0.82725074  0.50157176  0.25203808  1
  In  In85  1  -0.00106331  0.33244833  0.50059975  1
  In  In86  1  0.33470803  -0.00004334  0.75003910  1
  In  In87  1  -0.00061536  0.66728001  0.25102549  1
  In  In88  1  0.33497036  0.00073158  0.50054367  1
  In  In89  1  0.83289750  0.16637629  -0.00206963  1
  In  In90  1  0.82921012  0.16808451  0.74678388  1
  In  In91  1  0.33667490  0.32854722  0.75299539  1
  In  In92  1  0.83285288  0.83718727  0.49909366  1
  In  In93  1  0.16895881  0.16816122  0.49747454  1
  In  In94  1  -0.00527323  0.33350454  0.74534610  1
  In  In95  1  0.66642079  0.00074549  0.00001358  1
  In  In96  1  0.16888447  0.83156479  0.24977299  1
  In  In97  1  0.00277446  -0.00478278  0.00396399  1
  In  In98  1  0.50112349  0.50168441  -0.00164395  1
  In  In99  1  0.49964206  0.83532834  0.00031777  1
  In  In100  1  0.33649283  0.66484320  0.74897593  1
  In  In101  1  0.00515212  -0.00055793  0.49614739  1
  In  In102  1  0.49952974  0.83733308  0.49725653  1
  In  In103  1  0.16581724  0.49907820  0.74789320  1
  In  In104  1  0.00051347  0.66744875  0.75104326  1
  In  In105  1  0.33525975  0.66179852  0.25375498  1
  In  In106  1  -0.00230579  0.33151757  0.24543794  1
  In  In107  1  0.66385008  0.66882913  0.50024886  1
  Ir  Ir108  1  0.34230418  0.32678085  0.25318790  1
  Ir  Ir109  1  0.16925111  0.83041711  -0.00196489  1
  Ir  Ir110  1  0.16928234  0.49624379  0.49888958  1
  Ir  Ir111  1  0.49674436  0.49786666  0.49849316  1
  Ir  Ir112  1  0.65929555  0.67073925  0.24808278  1
  Ir  Ir113  1  0.83083318  0.16363643  0.25114078  1
  Ir  Ir114  1  0.49425264  0.16979979  -0.00068231  1
  Ir  Ir115  1  0.82858916  0.50806921  -0.00095667  1
  Ir  Ir116  1  0.16856619  0.16321918  0.75457898  1
  Ir  Ir117  1  0.65974567  0.33755199  0.74257230  1
  Ir  Ir118  1  -0.00269009  0.66901377  0.00161400  1
  Ir  Ir119  1  0.49967586  0.16719143  0.24542559  1
  Ir  Ir120  1  0.50097796  0.83769119  0.74945674  1
  Ir  Ir121  1  0.50098779  0.49782319  0.74824315  1
  Ir  Ir122  1  0.66251546  0.00252363  0.49993902  1
  Ir  Ir123  1  0.66271024  0.66725981  0.75364871  1
  Ir  Ir124  1  0.33671528  0.66453935  0.49730430  1
  Ir  Ir125  1  0.66153342  0.33565985  0.50356543  1
  Ir  Ir126  1  0.34086669  0.32795398  0.49575781  1
  Ir  Ir127  1  0.16830137  0.83200220  0.50613236  1
  Ir  Ir128  1  0.17271068  0.16429187  -0.00359978  1
  Ir  Ir129  1  0.50055854  0.17061515  0.74891114  1
  Ir  Ir130  1  0.00358945  -0.00238698  0.75185170  1
  Ir  Ir131  1  0.16735140  0.83610773  0.74991146  1
  Ir  Ir132  1  0.66298699  -0.00255618  0.25130496  1
  Ir  Ir133  1  0.50356434  0.16872959  0.50425152  1
  Ir  Ir134  1  0.50042154  0.49885457  0.25501437  1
  Ir  Ir135  1  0.82645399  0.83707801  0.24865773  1
  Ir  Ir136  1  0.66734636  0.66666036  -0.00047527  1
  Ir  Ir137  1  -0.00062621  0.00049372  0.24769321  1
  Ir  Ir138  1  -0.00135786  0.66439918  0.50235255  1
  Ir  Ir139  1  0.83170936  0.50286670  0.50345083  1
  Ir  Ir140  1  0.34079732  0.32867937  0.00185120  1
  Ir  Ir141  1  0.83207729  0.83222490  0.00505396  1
  Ir  Ir142  1  0.66041779  0.33125173  0.25411736  1
  Ir  Ir143  1  0.49786066  0.83427065  0.24953299  1
  O  O144  1  0.31516494  0.32043472  0.12765028  1
  O  O145  1  0.32236811  0.31978250  0.61797197  1
  O  O146  1  0.31869186  0.66797101  0.12765107  1
  O  O147  1  0.31893430  0.66573805  0.61819686  1
  O  O148  1  0.29639302  0.98330465  0.12528269  1
  O  O149  1  0.30050463  1.00538581  0.62595663  1
  O  O150  1  0.63388065  0.33541173  0.13160075  1
  O  O151  1  0.62730911  0.32710447  0.62231276  1
  O  O152  1  0.63370518  0.66829870  0.12316225  1
  O  O153  1  0.64638750  0.66228509  0.63190900  1
  O  O154  1  0.63442880  0.99701099  0.13135081  1
  O  O155  1  0.63253058  0.99766520  0.61816426  1
  O  O156  1  0.97614600  0.32670456  0.11944463  1
  O  O157  1  0.96185364  0.32097531  0.62099475  1
  O  O158  1  0.97214001  0.66764056  0.11998432  1
  O  O159  1  0.98024643  0.65483778  0.62041057  1
  O  O160  1  0.96692827  0.99963061  0.13042182  1
  O  O161  1  0.97927685  0.98907232  0.63119382  1
  O  O162  1  0.20378724  0.15370371  0.11707775  1
  O  O163  1  0.20117461  0.15695413  0.63311954  1
  O  O164  1  0.19302105  0.50083042  0.12322970  1
  O  O165  1  0.18883496  0.50059247  0.61641164  1
  O  O166  1  0.20098153  0.83038347  0.11788039  1
  O  O167  1  0.19070859  0.83750737  0.62882909  1
  O  O168  1  0.52291043  0.15697531  0.12135725  1
  O  O169  1  0.53468617  0.15900985  0.62734691  1
  O  O170  1  0.51939703  0.48657385  0.13351602  1
  O  O171  1  0.53077429  0.48839916  0.62319078  1
  O  O172  1  0.51994136  0.81772952  0.13166816  1
  O  O173  1  0.52092227  0.83193790  0.62958761  1
  O  O174  1  0.84971185  0.15837362  0.13147392  1
  O  O175  1  0.85119967  0.14269288  0.62384041  1
  O  O176  1  0.84425987  0.51004499  0.11796043  1
  O  O177  1  0.85852799  0.50224312  0.62168682  1
  O  O178  1  0.84446665  0.81342388  0.12698829  1
  O  O179  1  0.86182107  0.83913192  0.62525994  1
  O  O180  1  0.13346343  0.18179262  0.37371363  1
  O  O181  1  0.13420144  0.16649322  0.87556677  1
  O  O182  1  0.15312070  0.48574899  0.38157416  1
  O  O183  1  0.13747808  0.49945426  0.87411947  1
  O  O184  1  0.14716425  0.84211233  0.38744103  1
  O  O185  1  0.14350542  0.83206846  0.87294518  1
  O  O186  1  0.47252287  0.17556083  0.37538219  1
  O  O187  1  0.46555067  0.18331067  0.87358641  1
  O  O188  1  0.46761428  0.50960420  0.37684091  1
  O  O189  1  0.46769298  0.49978181  0.86780323  1
  O  O190  1  0.46487070  0.84080865  0.36664770  1
  O  O191  1  0.46828362  0.84906714  0.86996174  1
  O  O192  1  0.81173337  0.16290985  0.36946282  1
  O  O193  1  0.81356671  0.14900377  0.87110129  1
  O  O194  1  0.81086261  0.50345692  0.38385059  1
  O  O195  1  0.79953597  0.50598967  0.87929328  1
  O  O196  1  0.80155537  0.84199073  0.36872837  1
  O  O197  1  0.81770689  0.85084838  0.88350326  1
  O  O198  1  0.03574811  0.00852331  0.36704793  1
  O  O199  1  0.01897593  0.00696439  0.87265420  1
  O  O200  1  0.02045082  0.33874603  0.37458064  1
  O  O201  1  0.01040340  0.35953410  0.87012304  1
  O  O202  1  0.01423462  0.66741169  0.38406349  1
  O  O203  1  0.01599057  0.66718999  0.88270576  1
  O  O204  1  0.36065320  0.02022483  0.37382812  1
  O  O205  1  0.37016264  0.01508402  0.87482779  1
  O  O206  1  0.37402074  0.33012295  0.37414979  1
  O  O207  1  0.37200847  0.33595221  0.88190074  1
  O  O208  1  0.36869310  0.67442031  0.37962915  1
  O  O209  1  0.35510071  0.68356224  0.87418050  1
  O  O210  1  0.68393127  0.00098429  0.37553035  1
  O  O211  1  0.69920740  0.00381453  0.87418729  1
  O  O212  1  0.68239788  0.33057607  0.38040879  1
  O  O213  1  0.68229848  0.34707042  0.86201344  1
  O  O214  1  0.67767097  0.67332406  0.36817966  1
  O  O215  1  0.68650006  0.66061287  0.87730932  1
  O  O216  1  0.08951261  0.08646201  0.02159722  1
  O  O217  1  0.08657794  0.08350529  0.52897230  1
  O  O218  1  0.07639120  0.42412627  0.01158298  1
  O  O219  1  0.07327161  0.43505303  0.52169571  1
  O  O220  1  0.07109185  0.76143954  0.02121157  1
  O  O221  1  0.06760151  0.76352057  0.52737081  1
  O  O222  1  0.40458323  0.10125908  0.02700918  1
  O  O223  1  0.40867770  0.10448745  0.52933603  1
  O  O224  1  0.41373111  0.41499759  0.02494052  1
  O  O225  1  0.40449702  0.42604650  0.51391140  1
  O  O226  1  0.39878859  0.77158537  0.01769011  1
  O  O227  1  0.40120050  0.75938724  0.51016616  1
  O  O228  1  0.74676859  0.08397442  0.02859193  1
  O  O229  1  0.72430765  0.09896701  0.51903951  1
  O  O230  1  0.73686143  0.43817185  0.01033861  1
  O  O231  1  0.73227983  0.43262152  0.53185770  1
  O  O232  1  0.73761720  0.76030525  0.01581642  1
  O  O233  1  0.73729660  0.76403721  0.50572874  1
  O  O234  1  0.10118967  0.24882894  0.01256766  1
  O  O235  1  0.10542402  0.26945911  0.51004541  1
  O  O236  1  0.08409017  0.59656095  0.01319261  1
  O  O237  1  0.09374987  0.58863227  0.52143668  1
  O  O238  1  0.10266316  0.92377473  0.02462242  1
  O  O239  1  0.10198231  0.92364975  0.52869532  1
  O  O240  1  0.42952809  0.26076189  0.03419722  1
  O  O241  1  0.44025192  0.26664414  0.52184176  1
  O  O242  1  0.44142213  0.60160205  0.02606238  1
  O  O243  1  0.43211919  0.59670784  0.51251191  1
  O  O244  1  0.43070947  0.93372090  0.03287755  1
  O  O245  1  0.43547379  0.93728361  0.52592418  1
  O  O246  1  0.75333511  0.25880449  0.00899924  1
  O  O247  1  0.75619143  0.26813077  0.52797912  1
  O  O248  1  0.76337262  0.60451314  0.02241480  1
  O  O249  1  0.75443956  0.58754711  0.52108174  1
  O  O250  1  0.76922118  0.92661104  0.02528894  1
  O  O251  1  0.75972138  0.94302135  0.52403630  1
  O  O252  1  0.23016953  0.06351801  0.27193989  1
  O  O253  1  0.24186397  0.07842424  0.77636275  1
  O  O254  1  0.25000471  0.39036055  0.28138042  1
  O  O255  1  0.24901179  0.40718070  0.76945338  1
  O  O256  1  0.24691485  0.74143781  0.28035161  1
  O  O257  1  0.24052047  0.74850138  0.76604587  1
  O  O258  1  0.56581682  0.06994490  0.25947787  1
  O  O259  1  0.55974544  0.07309137  0.77312041  1
  O  O260  1  0.56216169  0.39661731  0.27461105  1
  O  O261  1  0.56587428  0.40374359  0.77091518  1
  O  O262  1  0.56194710  0.73787682  0.27640452  1
  O  O263  1  0.57155540  0.74372111  0.77028003  1
  O  O264  1  0.90818424  0.07456229  0.27166887  1
  O  O265  1  0.90877509  0.06194237  0.76978532  1
  O  O266  1  0.90481778  0.41086685  0.25793776  1
  O  O267  1  0.88647747  0.39630251  0.74796884  1
  O  O268  1  0.89541958  0.74691443  0.26149327  1
  O  O269  1  0.90842966  0.74279947  0.76277451  1
  O  O270  1  0.28275564  0.22700368  0.26589755  1
  O  O271  1  0.26443918  0.22958661  0.77403106  1
  O  O272  1  0.27379160  0.55969783  0.27991100  1
  O  O273  1  0.26750127  0.56777025  0.77237557  1
  O  O274  1  0.26288236  0.90313490  0.28458681  1
  O  O275  1  0.26274046  0.90189219  0.77476769  1
  O  O276  1  0.58842116  0.24084382  0.27168399  1
  O  O277  1  0.59161027  0.24401477  0.77038724  1
  O  O278  1  0.59176851  0.57404522  0.27348466  1
  O  O279  1  0.59758363  0.56381566  0.76821431  1
  O  O280  1  0.59659543  0.89923053  0.27361977  1
  O  O281  1  0.58822936  0.91059269  0.77056441  1
  O  O282  1  0.92416607  0.22957605  0.27155522  1
  O  O283  1  0.93234972  0.22878969  0.77422297  1
  O  O284  1  0.91271766  0.58534557  0.25757313  1
  O  O285  1  0.93355309  0.56412974  0.77412351  1
  O  O286  1  0.92104235  0.90686811  0.26784917  1
  O  O287  1  0.93490253  0.91046348  0.76776839  1
  O  O288  1  0.28253833  0.22848943  0.48356842  1
  O  O289  1  0.27092893  0.23422852  0.97601183  1
  O  O290  1  0.26989984  0.56418961  0.47477152  1
  O  O291  1  0.27236695  0.56444740  0.97040224  1
  O  O292  1  0.26168636  0.90004614  0.47800770  1
  O  O293  1  0.26384131  0.89625603  0.97445706  1
  O  O294  1  0.59553506  0.23981260  0.48051162  1
  O  O295  1  0.57933349  0.24525360  0.97665902  1
  O  O296  1  0.58544798  0.57192319  0.48657316  1
  O  O297  1  0.60582758  0.57003292  0.97957521  1
  O  O298  1  0.60532936  0.90341390  0.47706106  1
  O  O299  1  0.58729017  0.91390721  0.97652536  1
  O  O300  1  0.93107035  0.23293426  0.46931233  1
  O  O301  1  0.93311805  0.23197919  0.96949710  1
  O  O302  1  0.93007474  0.56778456  0.48484235  1
  O  O303  1  0.92759357  0.57444782  0.97943431  1
  O  O304  1  0.93108768  0.90604326  0.48945214  1
  O  O305  1  0.92053874  0.90285822  0.99203227  1
  O  O306  1  0.24088185  0.07272125  0.46559249  1
  O  O307  1  0.24646816  0.08016920  0.97243578  1
  O  O308  1  0.24242419  0.39645620  0.47218404  1
  O  O309  1  0.25725227  0.40189436  0.97422471  1
  O  O310  1  0.24377269  0.73798695  0.47784056  1
  O  O311  1  0.23763036  0.74298924  0.97850415  1
  O  O312  1  0.56436258  0.06948007  0.48872482  1
  O  O313  1  0.55957836  0.07507543  0.97652862  1
  O  O314  1  0.56042609  0.39904850  0.48158040  1
  O  O315  1  0.57358190  0.40980260  0.96729004  1
  O  O316  1  0.56851570  0.74053396  0.47096600  1
  O  O317  1  0.57496537  0.73518529  0.98713465  1
  O  O318  1  0.91390940  0.07545927  0.48055652  1
  O  O319  1  0.91035123  0.06911883  0.97966302  1
  O  O320  1  0.89660744  0.41008285  0.49190953  1
  O  O321  1  0.90025986  0.42184645  0.98076119  1
  O  O322  1  0.91059190  0.73638555  0.48909644  1
  O  O323  1  0.89954185  0.73734881  0.99085653  1
  O  O324  1  0.09678041  0.25696869  0.23281054  1
  O  O325  1  0.09866253  0.25038399  0.73463431  1
  O  O326  1  0.09055306  0.58848569  0.24194427  1
  O  O327  1  0.09167623  0.59318005  0.72764503  1
  O  O328  1  0.09508444  0.93432156  0.22770757  1
  O  O329  1  0.09940531  0.93072705  0.72528764  1
  O  O330  1  0.43758857  0.26341241  0.22463372  1
  O  O331  1  0.43634750  0.26281744  0.72223658  1
  O  O332  1  0.44378090  0.59893651  0.23561181  1
  O  O333  1  0.43435268  0.58762963  0.73084354  1
  O  O334  1  0.43459032  0.92779214  0.21785340  1
  O  O335  1  0.43811341  0.93423482  0.72797359  1
  O  O336  1  0.75851965  0.25746892  0.23282795  1
  O  O337  1  0.75352027  0.27148683  0.71643614  1
  O  O338  1  0.75302588  0.60591893  0.22786897  1
  O  O339  1  0.74873718  0.59213846  0.73274525  1
  O  O340  1  0.75994401  0.93361130  0.22626521  1
  O  O341  1  0.76968231  0.93852387  0.72757637  1
  O  O342  1  0.07088281  0.08595040  0.22601039  1
  O  O343  1  0.07837171  0.08906996  0.73017232  1
  O  O344  1  0.08491600  0.41698972  0.24008909  1
  O  O345  1  0.06825632  0.42839385  0.71723109  1
  O  O346  1  0.07491476  0.76007043  0.23867063  1
  O  O347  1  0.07303917  0.77196526  0.72711908  1
  O  O348  1  0.40629194  0.09943779  0.22049036  1
  O  O349  1  0.40745267  0.10419078  0.72348327  1
  O  O350  1  0.40688735  0.42618422  0.23740952  1
  O  O351  1  0.41390525  0.42499918  0.72825118  1
  O  O352  1  0.40561964  0.76918017  0.22760599  1
  O  O353  1  0.41129362  0.76671762  0.73916893  1
  O  O354  1  0.74012685  0.08619207  0.22690573  1
  O  O355  1  0.72369437  0.10808803  0.72205027  1
  O  O356  1  0.73123797  0.42078165  0.24052895  1
  O  O357  1  0.72416198  0.43125156  0.72020287  1
  O  O358  1  0.72594885  0.77026376  0.24213160  1
  O  O359  1  0.73510824  0.75698235  0.74088582  1
