# generated using pymatgen
data_BaLaInIrO6
_symmetry_space_group_name_H-M   'P 1'
_cell_length_a   17.52145496
_cell_length_b   17.54995840
_cell_length_c   16.50527062
_cell_angle_alpha   89.99761574
_cell_angle_beta   90.02657411
_cell_angle_gamma   89.94703397
_symmetry_Int_Tables_number   1
_chemical_formula_structural   BaLaInIrO6
_chemical_formula_sum   'Ba36 La36 In36 Ir36 O216'
_cell_volume   5075.38129351
_cell_formula_units_Z   36
loop_
 _symmetry_equiv_pos_site_id
 _symmetry_equiv_pos_as_xyz
  1  'x, y, z'
loop_
 _atom_site_type_symbol
 _atom_site_label
 _atom_site_symmetry_multiplicity
 _atom_site_fract_x
 _atom_site_fract_y
 _atom_site_fract_z
 _atom_site_occupancy
  Ba  Ba0  1  0.16687784  0.33902723  0.12708733  1
  Ba  Ba1  1  0.67199586  0.84722044  0.62571760  1
  Ba  Ba2  1  0.83000516  0.65794151  0.37748341  1
  Ba  Ba3  1  -0.00245747  0.82424178  0.88248624  1
  Ba  Ba4  1  0.49810971  0.65604926  0.88143076  1
  Ba  Ba5  1  0.49949369  0.32021402  0.37203442  1
  Ba  Ba6  1  0.33380293  0.49070593  0.37421230  1
  Ba  Ba7  1  0.16859167  0.99598631  0.36829976  1
  Ba  Ba8  1  0.16858441  0.32360664  0.37430092  1
  Ba  Ba9  1  0.66608178  0.15710887  0.87709935  1
  Ba  Ba10  1  0.16532584  0.99090689  0.87278121  1
  Ba  Ba11  1  0.33647769  0.17124009  0.62248532  1
  Ba  Ba12  1  0.16992688  0.00638822  0.11845605  1
  Ba  Ba13  1  1.00223356  0.17708021  0.12247831  1
  Ba  Ba14  1  0.33153578  0.83656583  0.12685597  1
  Ba  Ba15  1  0.33804341  0.15716050  0.87149120  1
  Ba  Ba16  1  0.83029537  0.34323342  0.12431374  1
  Ba  Ba17  1  0.33329224  0.82764111  0.38009785  1
  Ba  Ba18  1  -0.00453470  0.49134974  0.87301538  1
  Ba  Ba19  1  0.50313721  0.00607383  0.62073523  1
  Ba  Ba20  1  0.33151085  0.82617882  0.87794378  1
  Ba  Ba21  1  0.83665794  0.32421691  0.87232959  1
  Ba  Ba22  1  0.67064860  0.51016687  0.12377458  1
  Ba  Ba23  1  0.83527334  0.67638837  0.62572632  1
  Ba  Ba24  1  0.66558614  0.15279142  0.36795124  1
  Ba  Ba25  1  0.66807355  0.17517630  0.12400330  1
  Ba  Ba26  1  0.33106120  0.15945765  0.37125069  1
  Ba  Ba27  1  0.49756261  0.99255763  0.37295923  1
  Ba  Ba28  1  0.17025766  0.66051439  0.87699072  1
  Ba  Ba29  1  0.50336161  0.33876687  0.62356144  1
  Ba  Ba30  1  0.49926733  0.67506141  0.12933474  1
  Ba  Ba31  1  0.66684009  0.84377324  0.12400447  1
  Ba  Ba32  1  0.33601909  0.50413727  0.13085860  1
  Ba  Ba33  1  -0.00118089  0.16112945  0.36783424  1
  Ba  Ba34  1  -0.00686110  0.49184300  0.37691512  1
  Ba  Ba35  1  0.33301426  0.17033011  0.12381012  1
  La  La36  1  0.33591659  0.84861156  0.62700324  1
  La  La37  1  0.83899013  0.98562034  0.37232613  1
  La  La38  1  0.49418252  0.00775396  0.12393134  1
  La  La39  1  0.82675501  0.01550654  0.12620567  1
  La  La40  1  0.66757909  0.83067894  0.37133801  1
  La  La41  1  0.49406649  0.34571687  0.12658195  1
  La  La42  1  0.67298277  0.51855165  0.62805954  1
  La  La43  1  0.83689567  0.98605920  0.87901623  1
  La  La44  1  0.16954741  0.67078282  0.12899803  1
  La  La45  1  0.82355923  0.68137507  0.12218938  1
  La  La46  1  0.16694225  0.35081362  0.62257907  1
  La  La47  1  0.16921289  0.31986480  0.87590780  1
  La  La48  1  1.00368545  0.84631512  0.12990516  1
  La  La49  1  0.50404513  0.98316129  0.87568520  1
  La  La50  1  1.00198295  0.51308718  0.12265512  1
  La  La51  1  1.00611568  0.18312644  0.62352508  1
  La  La52  1  0.82444480  0.01693093  0.62370339  1
  La  La53  1  0.66840592  0.18004278  0.62039784  1
  La  La54  1  0.33849164  0.51229516  0.62480773  1
  La  La55  1  0.83896216  0.31772155  0.37268829  1
  La  La56  1  -0.00829855  0.15118381  0.87306122  1
  La  La57  1  0.66448060  0.48373427  0.87901518  1
  La  La58  1  0.16823883  0.65282342  0.37995211  1
  La  La59  1  0.17023107  0.01128318  0.62237240  1
  La  La60  1  0.82731369  0.35445045  0.62226158  1
  La  La61  1  0.50593293  0.65881257  0.37334073  1
  La  La62  1  -0.00526710  0.81921582  0.37567144  1
  La  La63  1  0.16194722  0.68600221  0.62810707  1
  La  La64  1  0.66129025  0.48861923  0.37572802  1
  La  La65  1  1.00224610  0.52088705  0.62359702  1
  La  La66  1  0.50369757  0.32095052  0.87927883  1
  La  La67  1  1.00441089  0.85303889  0.62827289  1
  La  La68  1  0.49675066  0.68211696  0.62788293  1
  La  La69  1  0.83834768  0.64811870  0.87534603  1
  La  La70  1  0.66077346  0.81442225  0.87338631  1
  La  La71  1  0.32915361  0.48798903  0.87580730  1
  In  In72  1  0.66948691  0.33068710  0.74991095  1
  In  In73  1  0.33483302  0.33037300  -0.00226044  1
  In  In74  1  0.83585494  0.83507481  0.50151206  1
  In  In75  1  0.66782174  0.33336122  0.24831835  1
  In  In76  1  0.33358722  0.66297755  0.00348098  1
  In  In77  1  0.33424116  0.66647408  0.74907423  1
  In  In78  1  0.16460010  0.83497618  0.49838838  1
  In  In79  1  0.33456623  0.00066683  -0.00415921  1
  In  In80  1  0.50256757  0.83312661  0.50119420  1
  In  In81  1  0.33362575  0.66867342  0.25946841  1
  In  In82  1  0.16556678  0.49924618  -0.00143258  1
  In  In83  1  0.33367144  0.00054404  0.49782512  1
  In  In84  1  0.66486762  0.67030852  0.50247783  1
  In  In85  1  0.16647348  0.50175367  0.75054086  1
  In  In86  1  0.33517092  0.33288426  0.50183839  1
  In  In87  1  0.66989817  0.33467011  0.49633295  1
  In  In88  1  0.83303449  0.83332136  0.75282149  1
  In  In89  1  0.50216235  0.49943718  0.74963889  1
  In  In90  1  0.50366391  0.16194385  0.74865578  1
  In  In91  1  0.16388286  0.50337211  0.25106400  1
  In  In92  1  -0.00282166  0.33748454  0.24733989  1
  In  In93  1  -0.00198589  0.00318615  0.49962908  1
  In  In94  1  -0.00576029  0.66909368  0.24992913  1
  In  In95  1  -0.00109700  0.33653636  0.74588876  1
  In  In96  1  0.66981885  0.00175888  0.75254080  1
  In  In97  1  0.66881343  0.66878605  0.24847571  1
  In  In98  1  0.16493555  0.16726833  0.74907730  1
  In  In99  1  -0.00379832  -0.00043227  0.00159711  1
  In  In100  1  0.16283383  0.83024006  0.00164080  1
  In  In101  1  0.33322633  0.33092409  0.25051212  1
  In  In102  1  0.33425560  0.33301238  0.74998237  1
  In  In103  1  0.50286831  0.83226861  0.00250880  1
  In  In104  1  0.16397445  0.16421613  0.24670844  1
  In  In105  1  0.00030937  0.67178732  0.75436485  1
  In  In106  1  -0.00220771  0.33673743  0.50243960  1
  In  In107  1  0.83221138  0.16897367  -0.00253540  1
  Ir  Ir108  1  0.33424793  -0.00506157  0.74847460  1
  Ir  Ir109  1  0.66855716  -0.00288112  0.24703145  1
  Ir  Ir110  1  0.50216241  0.83156709  0.75038023  1
  Ir  Ir111  1  0.33429221  -0.00422823  0.24690116  1
  Ir  Ir112  1  0.67281983  0.66394524  -0.00287814  1
  Ir  Ir113  1  0.50739233  0.16239039  0.49435876  1
  Ir  Ir114  1  0.16467832  0.16591497  0.50369713  1
  Ir  Ir115  1  0.50615059  0.16602598  0.00277042  1
  Ir  Ir116  1  0.67280181  0.00394041  0.49584837  1
  Ir  Ir117  1  -0.00432445  -0.00291420  0.24976127  1
  Ir  Ir118  1  0.83379797  0.49894493  0.00125325  1
  Ir  Ir119  1  0.16069879  0.16939806  -0.00657907  1
  Ir  Ir120  1  0.15843001  0.83613417  0.25346064  1
  Ir  Ir121  1  0.00204394  0.66783452  0.50293649  1
  Ir  Ir122  1  -0.00549737  0.00120858  0.74735874  1
  Ir  Ir123  1  0.83166012  0.50127055  0.25058049  1
  Ir  Ir124  1  0.50436369  0.50097211  0.25556690  1
  Ir  Ir125  1  0.16711103  0.83690568  0.74583012  1
  Ir  Ir126  1  0.66512603  0.33573748  -0.00017554  1
  Ir  Ir127  1  0.50115909  0.83547574  0.25217878  1
  Ir  Ir128  1  0.83580385  0.16505670  0.49977985  1
  Ir  Ir129  1  0.16741520  0.50466290  0.50531478  1
  Ir  Ir130  1  0.50403848  0.49824990  0.00318439  1
  Ir  Ir131  1  0.66882511  -0.00225583  0.00100461  1
  Ir  Ir132  1  0.83414968  0.83745576  0.24718355  1
  Ir  Ir133  1  0.50371334  0.16029148  0.24660627  1
  Ir  Ir134  1  0.83148808  0.16254695  0.25249712  1
  Ir  Ir135  1  0.66676332  0.66468284  0.75516528  1
  Ir  Ir136  1  -0.01067635  0.66679602  0.00557969  1
  Ir  Ir137  1  0.33125607  0.66295545  0.50565283  1
  Ir  Ir138  1  0.50444945  0.50355453  0.50083111  1
  Ir  Ir139  1  0.82982337  0.50255308  0.74805660  1
  Ir  Ir140  1  0.83091824  0.50265987  0.50092710  1
  Ir  Ir141  1  0.82846922  0.83230320  0.00202126  1
  Ir  Ir142  1  0.83926822  0.16477825  0.74352209  1
  Ir  Ir143  1  -0.00012820  0.33505922  -0.00305908  1
  O  O144  1  0.32472016  0.33389987  0.12237912  1
  O  O145  1  0.30276996  0.32918131  0.62365764  1
  O  O146  1  0.30675296  0.66247946  0.13383938  1
  O  O147  1  0.29669179  0.65154353  0.62194205  1
  O  O148  1  0.32537052  0.99702121  0.12662530  1
  O  O149  1  0.30783545  0.99034097  0.62863441  1
  O  O150  1  0.63552924  0.33655143  0.12039281  1
  O  O151  1  0.65761175  0.32404855  0.62151860  1
  O  O152  1  0.65175411  0.66541752  0.11843166  1
  O  O153  1  0.63603904  0.65655403  0.63398647  1
  O  O154  1  0.63507845  0.99685992  0.12313168  1
  O  O155  1  0.65509151  1.00580931  0.61748836  1
  O  O156  1  0.97778827  0.33063786  0.11576492  1
  O  O157  1  0.95968855  0.31995053  0.62280566  1
  O  O158  1  0.95762463  0.65831758  0.12320890  1
  O  O159  1  0.98228957  0.66192692  0.62272209  1
  O  O160  1  0.96401855  0.98831861  0.13052563  1
  O  O161  1  0.96140743  0.98993257  0.62849748  1
  O  O162  1  0.17862866  0.16736621  0.11253269  1
  O  O163  1  0.18357380  0.15147234  0.62235301  1
  O  O164  1  0.18411068  0.51715880  0.12290102  1
  O  O165  1  0.20036077  0.49219018  0.62221157  1
  O  O166  1  0.17544486  0.82007311  0.13577926  1
  O  O167  1  0.19430846  0.82748665  0.62700244  1
  O  O168  1  0.52317146  0.14425016  0.12488580  1
  O  O169  1  0.53242547  0.15977505  0.61485559  1
  O  O170  1  0.52616942  0.48394159  0.13082132  1
  O  O171  1  0.53875915  0.49581138  0.61868046  1
  O  O172  1  0.51788902  0.83989801  0.13302272  1
  O  O173  1  0.52487585  0.82493818  0.63125712  1
  O  O174  1  0.85081514  0.15401381  0.13010050  1
  O  O175  1  0.86917376  0.15096977  0.62168196  1
  O  O176  1  0.86492359  0.49703452  0.12673758  1
  O  O177  1  0.86254099  0.49568407  0.62401899  1
  O  O178  1  0.86552565  0.82138936  0.12451827  1
  O  O179  1  0.86736722  0.83146016  0.62699639  1
  O  O180  1  0.14962963  0.16322816  0.38338138  1
  O  O181  1  0.12779918  0.17557140  0.87410971  1
  O  O182  1  0.14009375  0.51460143  0.38683844  1
  O  O183  1  0.14053135  0.51068146  0.87504201  1
  O  O184  1  0.12966952  0.84386027  0.37303986  1
  O  O185  1  0.14852213  0.83376168  0.86700497  1
  O  O186  1  0.48268988  0.16353120  0.36922627  1
  O  O187  1  0.49140824  0.18099932  0.88278648  1
  O  O188  1  0.48141084  0.52039225  0.37862376  1
  O  O189  1  0.47244419  0.50131936  0.88368211  1
  O  O190  1  0.48735076  0.82995857  0.37182369  1
  O  O191  1  0.48428806  0.84076508  0.86985605  1
  O  O192  1  0.81212621  0.17975447  0.37843624  1
  O  O193  1  0.81748377  0.16753407  0.86336843  1
  O  O194  1  0.79850000  0.50610869  0.37460841  1
  O  O195  1  0.80127961  0.50886000  0.87440309  1
  O  O196  1  0.80324895  0.84811292  0.36768110  1
  O  O197  1  0.79654054  0.84677793  0.88288394  1
  O  O198  1  0.01684347  0.00311775  0.36872020  1
  O  O199  1  0.01525799  0.01060970  0.86796055  1
  O  O200  1  0.01012958  0.33593141  0.37764108  1
  O  O201  1  0.02792167  0.33829068  0.87508263  1
  O  O202  1  0.02862804  0.67557336  0.38220288  1
  O  O203  1  0.01634426  0.66730784  0.88634852  1
  O  O204  1  0.34456132  -0.00247321  0.36754913  1
  O  O205  1  0.36430413  -0.00381673  0.86762359  1
  O  O206  1  0.35009971  0.33109012  0.37778964  1
  O  O207  1  0.37083975  0.34828170  0.87650593  1
  O  O208  1  0.36884058  0.67177145  0.38836887  1
  O  O209  1  0.34736574  0.67341209  0.87434087  1
  O  O210  1  0.70176215  -0.00504420  0.36979756  1
  O  O211  1  0.70270736  0.00261360  0.88216985  1
  O  O212  1  0.70202436  0.34519226  0.37405571  1
  O  O213  1  0.68752104  0.34030236  0.87885651  1
  O  O214  1  0.67895586  0.68829765  0.37473315  1
  O  O215  1  0.70238237  0.67250255  0.87570831  1
  O  O216  1  0.07110469  0.09660985  0.00676820  1
  O  O217  1  0.06828751  0.10050456  0.52479138  1
  O  O218  1  0.06173145  0.42984751  0.02237776  1
  O  O219  1  0.07316302  0.43663065  0.53160160  1
  O  O220  1  0.05516257  0.75705664  0.03248081  1
  O  O221  1  0.06706496  0.76266449  0.52711503  1
  O  O222  1  0.41695272  0.09546061  0.01349417  1
  O  O223  1  0.41636509  0.09105013  0.50851801  1
  O  O224  1  0.42094107  0.42397694  0.02355584  1
  O  O225  1  0.41141284  0.43618130  0.52314864  1
  O  O226  1  0.41214933  0.75593518  0.01627059  1
  O  O227  1  0.39573631  0.75437831  0.53574413  1
  O  O228  1  0.74055484  0.08527374  0.02117966  1
  O  O229  1  0.73821384  0.10161283  0.52167249  1
  O  O230  1  0.73633737  0.43105080  0.01128957  1
  O  O231  1  0.73754896  0.43821876  0.52578871  1
  O  O232  1  0.74251460  0.75685345  0.02210728  1
  O  O233  1  0.73866534  0.76566798  0.51252477  1
  O  O234  1  0.09540235  0.26921674  0.00971105  1
  O  O235  1  0.09810576  0.26208824  0.52880752  1
  O  O236  1  0.08130123  0.60123602  0.03236159  1
  O  O237  1  0.09876347  0.60042848  0.53081030  1
  O  O238  1  0.07860131  0.91551468  0.01969803  1
  O  O239  1  0.09053547  0.92939753  0.53543340  1
  O  O240  1  0.44206005  0.26111333  0.02026462  1
  O  O241  1  0.43556606  0.25112965  0.51281480  1
  O  O242  1  0.43503870  0.58484601  0.02513221  1
  O  O243  1  0.42961100  0.59609356  0.53414646  1
  O  O244  1  0.43977178  0.93625935  0.00872719  1
  O  O245  1  0.42143133  0.91744284  0.51958074  1
  O  O246  1  0.75488911  0.26226368  0.01450756  1
  O  O247  1  0.77476947  0.26226374  0.52093174  1
  O  O248  1  0.76995535  0.59718628  0.01949913  1
  O  O249  1  0.75864774  0.59120880  0.52259541  1
  O  O250  1  0.76556332  0.93208747  0.02732548  1
  O  O251  1  0.76888141  0.94190060  0.51517930  1
  O  O252  1  0.24535196  0.06904110  0.25372273  1
  O  O253  1  0.24021845  0.06363587  0.75840445  1
  O  O254  1  0.24257363  0.41319830  0.26307604  1
  O  O255  1  0.23082715  0.39896199  0.77542608  1
  O  O256  1  0.22296445  0.74298031  0.27825890  1
  O  O257  1  0.23057747  0.74028040  0.75411010  1
  O  O258  1  0.57373614  0.06373054  0.26269039  1
  O  O259  1  0.56848937  0.06188427  0.77650930  1
  O  O260  1  0.58039121  0.41687248  0.27760457  1
  O  O261  1  0.57024606  0.40051591  0.77768256  1
  O  O262  1  0.57034381  0.74384775  0.26949798  1
  O  O263  1  0.57273760  0.73667723  0.77540794  1
  O  O264  1  0.89782877  0.06371337  0.27060565  1
  O  O265  1  0.89786598  0.06506655  0.77231458  1
  O  O266  1  0.89344101  0.40562187  0.27415126  1
  O  O267  1  0.89650232  0.40862343  0.75795934  1
  O  O268  1  0.90399358  0.74888957  0.27492442  1
  O  O269  1  0.89982367  0.73552853  0.78045447  1
  O  O270  1  0.25709831  0.23782610  0.25890541  1
  O  O271  1  0.25487589  0.24148170  0.77780223  1
  O  O272  1  0.24993227  0.58655094  0.28504162  1
  O  O273  1  0.27505414  0.55968384  0.76507682  1
  O  O274  1  0.25834200  0.90282055  0.26557984  1
  O  O275  1  0.26620699  0.89950661  0.75959262  1
  O  O276  1  0.58966136  0.23655875  0.26115715  1
  O  O277  1  0.60754281  0.22777674  0.75025905  1
  O  O278  1  0.59298661  0.57506323  0.27728647  1
  O  O279  1  0.60800742  0.56520597  0.77375362  1
  O  O280  1  0.60037760  0.90218576  0.27246447  1
  O  O281  1  0.59696850  0.89942290  0.77555428  1
  O  O282  1  0.91329957  0.24203596  0.26597416  1
  O  O283  1  0.93758021  0.22446562  0.76426896  1
  O  O284  1  0.92134703  0.57004617  0.26605716  1
  O  O285  1  0.92077574  0.57394552  0.76264064  1
  O  O286  1  0.92774278  0.90365433  0.27702898  1
  O  O287  1  0.93021156  0.90984228  0.77354731  1
  O  O288  1  0.25403441  0.23423530  0.48862518  1
  O  O289  1  0.24987449  0.24062161  0.97174588  1
  O  O290  1  0.26084911  0.57260494  0.47963447  1
  O  O291  1  0.27131411  0.56189619  0.97631098  1
  O  O292  1  0.26059293  0.90381137  0.49369285  1
  O  O293  1  0.25418043  0.91056548  0.99127082  1
  O  O294  1  0.59878135  0.23366149  0.48470259  1
  O  O295  1  0.59435757  0.24555583  0.97979671  1
  O  O296  1  0.59753889  0.56871369  0.47666458  1
  O  O297  1  0.60334387  0.56841678  0.97437971  1
  O  O298  1  0.60760292  0.90482373  0.47815902  1
  O  O299  1  0.60284554  0.90678632  0.97184933  1
  O  O300  1  0.92766273  0.22969192  0.48559349  1
  O  O301  1  0.93508321  0.23817264  0.97426286  1
  O  O302  1  0.93129998  0.57112918  0.49108197  1
  O  O303  1  0.92232670  0.57246078  0.97966221  1
  O  O304  1  0.93107991  0.90385951  0.46988615  1
  O  O305  1  0.91243034  0.90728479  0.98061488  1
  O  O306  1  0.23094770  0.07036373  0.49376230  1
  O  O307  1  0.23638529  0.08212688  0.97863741  1
  O  O308  1  0.23125505  0.41117548  0.48789673  1
  O  O309  1  0.23890099  0.40256367  0.96896128  1
  O  O310  1  0.23425807  0.72701234  0.48248854  1
  O  O311  1  0.22801542  0.73089094  1.00337485  1
  O  O312  1  0.57890740  0.06924054  0.47731319  1
  O  O313  1  0.57111715  0.06316874  0.97769533  1
  O  O314  1  0.57509591  0.41520570  0.47243836  1
  O  O315  1  0.57400229  0.40710910  0.97292058  1
  O  O316  1  0.55623874  0.72634629  0.49159549  1
  O  O317  1  0.58712263  0.74122784  0.97769155  1
  O  O318  1  0.89188607  0.06593060  0.47932064  1
  O  O319  1  0.90215930  0.07156074  0.97602339  1
  O  O320  1  0.89072273  0.40393465  0.48271317  1
  O  O321  1  0.90364766  0.40412241  0.98185953  1
  O  O322  1  0.91478214  0.73964940  0.47670711  1
  O  O323  1  0.89097384  0.73231925  0.97887721  1
  O  O324  1  0.08532663  0.25596110  0.23795989  1
  O  O325  1  0.09547348  0.26557783  0.71446545  1
  O  O326  1  0.09135214  0.60427101  0.22918421  1
  O  O327  1  0.09608714  0.60201718  0.72264141  1
  O  O328  1  0.08644856  0.92660387  0.22247619  1
  O  O329  1  0.09388421  0.93558900  0.72064345  1
  O  O330  1  0.43706919  0.25265172  0.22498723  1
  O  O331  1  0.43309198  0.25911894  0.74170161  1
  O  O332  1  0.43084095  0.58866508  0.24237019  1
  O  O333  1  0.43647398  0.59922798  0.72132648  1
  O  O334  1  0.43272312  0.92935198  0.23006053  1
  O  O335  1  0.42942174  0.92255748  0.72684217  1
  O  O336  1  0.76086815  0.25342449  0.23830081  1
  O  O337  1  0.77833937  0.26117100  0.71989578  1
  O  O338  1  0.76839381  0.59743572  0.22688191  1
  O  O339  1  0.75954023  0.59683309  0.73049646  1
  O  O340  1  0.76722920  0.93243357  0.22382996  1
  O  O341  1  0.76953805  0.93687200  0.73088715  1
  O  O342  1  0.06877284  0.08310991  0.22879535  1
  O  O343  1  0.05975102  0.09510232  0.72564129  1
  O  O344  1  0.06214857  0.43828193  0.22594738  1
  O  O345  1  0.06747625  0.43354546  0.71339713  1
  O  O346  1  0.06081777  0.77474246  0.23884335  1
  O  O347  1  0.07053683  0.77299394  0.72395864  1
  O  O348  1  0.41258162  0.08336545  0.22568521  1
  O  O349  1  0.40491680  0.08406367  0.73250319  1
  O  O350  1  0.42396771  0.42020115  0.23858551  1
  O  O351  1  0.40017927  0.43642183  0.72355686  1
  O  O352  1  0.41076041  0.76420105  0.23957373  1
  O  O353  1  0.40860067  0.76463841  0.72166740  1
  O  O354  1  0.74263282  0.08542030  0.22513619  1
  O  O355  1  0.74242806  0.10319657  0.71986632  1
  O  O356  1  0.74221066  0.43348007  0.23501934  1
  O  O357  1  0.73673715  0.43402999  0.72619458  1
  O  O358  1  0.74646447  0.76464231  0.23005723  1
  O  O359  1  0.73061614  0.76074355  0.74099425  1
