# generated using pymatgen
data_BaLaInIrO6
_symmetry_space_group_name_H-M   'P 1'
_cell_length_a   17.51926333
_cell_length_b   17.54303107
_cell_length_c   16.48648521
_cell_angle_alpha   90.00560973
_cell_angle_beta   89.99799039
_cell_angle_gamma   90.03505105
_symmetry_Int_Tables_number   1
_chemical_formula_structural   BaLaInIrO6
_chemical_formula_sum   'Ba36 La36 In36 Ir36 O216'
_cell_volume   5066.97156258
_cell_formula_units_Z   36
loop_
 _symmetry_equiv_pos_site_id
 _symmetry_equiv_pos_as_xyz
  1  'x, y, z'
loop_
 _atom_site_type_symbol
 _atom_site_label
 _atom_site_symmetry_multiplicity
 _atom_site_fract_x
 _atom_site_fract_y
 _atom_site_fract_z
 _atom_site_occupancy
  Ba  Ba0  1  0.66129798  0.83534939  0.62290036  1
  Ba  Ba1  1  0.66742169  0.17959589  0.12613186  1
  Ba  Ba2  1  0.16283639  0.34154902  0.12220922  1
  Ba  Ba3  1  0.49720211  0.00738477  0.12646718  1
  Ba  Ba4  1  0.83570417  0.32609974  0.37446899  1
  Ba  Ba5  1  0.33504580  0.17535436  0.12449177  1
  Ba  Ba6  1  0.16453918  0.32476790  0.37736527  1
  Ba  Ba7  1  0.50020262  0.67133109  0.62590123  1
  Ba  Ba8  1  0.50677217  0.66047664  0.37214424  1
  Ba  Ba9  1  0.16722378  0.01048411  0.12631535  1
  Ba  Ba10  1  0.49522559  0.32579993  0.87436742  1
  Ba  Ba11  1  0.16940601  0.65905794  0.87893751  1
  Ba  Ba12  1  0.83067006  0.00865232  0.12566238  1
  Ba  Ba13  1  0.66904099  0.16138461  0.37193840  1
  Ba  Ba14  1  0.66950802  0.82272804  0.87534879  1
  Ba  Ba15  1  0.16926678  0.66040946  0.37093558  1
  Ba  Ba16  1  0.83547667  0.65836203  0.37646489  1
  Ba  Ba17  1  0.66667613  0.82845904  0.36999643  1
  Ba  Ba18  1  0.33080439  0.82576992  0.37052226  1
  Ba  Ba19  1  0.83148011  0.34326210  0.12235793  1
  Ba  Ba20  1  -0.00030471  0.15231050  0.87829444  1
  Ba  Ba21  1  0.66769389  0.48969303  0.37777010  1
  Ba  Ba22  1  0.33527885  0.51067943  0.62204008  1
  Ba  Ba23  1  0.66592853  0.50860234  0.62853760  1
  Ba  Ba24  1  0.16890561  0.99121376  0.87710534  1
  Ba  Ba25  1  0.33309945  0.51046539  0.12506685  1
  Ba  Ba26  1  1.00216269  0.50963791  0.62385443  1
  Ba  Ba27  1  0.49443826  0.33869159  0.12749783  1
  Ba  Ba28  1  0.16758271  0.68016126  0.12638144  1
  Ba  Ba29  1  0.82879110  0.00829513  0.62573277  1
  Ba  Ba30  1  0.50186082  0.66132442  0.87847835  1
  Ba  Ba31  1  0.16682534  0.00294917  0.62559510  1
  Ba  Ba32  1  0.49937821  0.34886474  0.62885958  1
  Ba  Ba33  1  1.00381198  0.17389618  0.62842554  1
  Ba  Ba34  1  0.33023151  0.82109435  0.87974358  1
  Ba  Ba35  1  0.66776403  0.84191898  0.12332144  1
  La  La36  1  0.83820069  0.65278100  0.87112182  1
  La  La37  1  -0.00534840  0.81923918  0.37455729  1
  La  La38  1  0.83388847  0.98233668  0.37074540  1
  La  La39  1  0.16373962  0.68193991  0.62505964  1
  La  La40  1  1.00581143  0.17867261  0.12489609  1
  La  La41  1  0.49373236  0.01008371  0.61814302  1
  La  La42  1  0.49829845  0.68152813  0.12229727  1
  La  La43  1  -0.01034519  0.48591480  0.37514596  1
  La  La44  1  1.00939689  0.85072070  0.12680584  1
  La  La45  1  1.01166033  0.51594057  0.12933151  1
  La  La46  1  0.33386100  0.48935231  0.37763056  1
  La  La47  1  0.16189527  0.35202879  0.62593635  1
  La  La48  1  0.33378068  0.49372898  0.87519726  1
  La  La49  1  0.32650640  0.15495558  0.88214180  1
  La  La50  1  0.83476412  0.68105787  0.12365484  1
  La  La51  1  0.17263458  0.32061379  0.87289742  1
  La  La52  1  0.66163113  0.14780930  0.87634163  1
  La  La53  1  1.00401141  0.84661906  0.62573101  1
  La  La54  1  0.50251098  0.98287094  0.87692146  1
  La  La55  1  0.83467334  0.98268600  0.87934827  1
  La  La56  1  0.50338575  0.98595324  0.37361905  1
  La  La57  1  0.83349458  0.31737771  0.87388335  1
  La  La58  1  0.66220235  0.49210027  0.87510697  1
  La  La59  1  0.16705037  0.98651694  0.37420042  1
  La  La60  1  0.50597260  0.32047314  0.37790732  1
  La  La61  1  0.67329741  0.18460516  0.62196265  1
  La  La62  1  0.82690074  0.67718380  0.62426324  1
  La  La63  1  -0.00305298  0.82362088  0.87719908  1
  La  La64  1  0.33980209  0.18331691  0.62623259  1
  La  La65  1  0.66329270  0.50373019  0.12928545  1
  La  La66  1  -0.00467035  0.48480681  0.87232375  1
  La  La67  1  0.82691993  0.35042681  0.62629629  1
  La  La68  1  0.33234954  0.83286633  0.63400544  1
  La  La69  1  0.32857928  0.14986381  0.36894518  1
  La  La70  1  0.33412244  0.84023880  0.12111635  1
  La  La71  1  -0.00834553  0.14848408  0.37038743  1
  In  In72  1  0.83228487  0.16543023  0.74970467  1
  In  In73  1  0.67070801  0.66396618  -0.00036969  1
  In  In74  1  0.66717864  0.00254243  0.24689202  1
  In  In75  1  -0.00057681  0.66717884  -0.00143837  1
  In  In76  1  0.49764186  0.83404783  0.49909389  1
  In  In77  1  0.33156568  -0.00261758  0.49900065  1
  In  In78  1  0.16456359  0.83117715  0.75551957  1
  In  In79  1  0.49958581  0.16418482  0.75056169  1
  In  In80  1  0.83250295  0.16476214  -0.00050413  1
  In  In81  1  0.83622438  0.83323922  0.50136332  1
  In  In82  1  0.16505387  0.50459873  0.75261601  1
  In  In83  1  0.66529650  0.00267562  0.49840461  1
  In  In84  1  0.66618182  0.33528067  -0.00022767  1
  In  In85  1  0.66750557  0.33491175  0.75376642  1
  In  In86  1  0.33291286  0.66879407  0.49737034  1
  In  In87  1  0.33021593  0.33727893  0.00189329  1
  In  In88  1  -0.00271386  0.33508559  -0.00368517  1
  In  In89  1  0.83509408  0.16496278  0.49927265  1
  In  In90  1  -0.00067223  -0.00107044  0.49916098  1
  In  In91  1  0.33318955  -0.00144814  0.00154668  1
  In  In92  1  0.50034544  0.50135293  0.49853240  1
  In  In93  1  0.33498511  0.33115588  0.49817094  1
  In  In94  1  0.83513739  0.50249818  0.24331545  1
  In  In95  1  0.16579805  0.50247276  0.25340766  1
  In  In96  1  0.16957466  0.16467285  0.49951015  1
  In  In97  1  -0.00090775  0.33283682  0.24863624  1
  In  In98  1  0.66296452  -0.00085412  0.74676994  1
  In  In99  1  0.33560887  -0.00083477  0.74955864  1
  In  In100  1  0.16862045  0.16585937  0.74877699  1
  In  In101  1  0.83465998  0.83187443  0.74974358  1
  In  In102  1  0.16473860  0.50308077  0.49750723  1
  In  In103  1  0.00177359  0.32854446  0.50383248  1
  In  In104  1  0.33121608  0.33288018  0.25371386  1
  In  In105  1  0.66820689  0.66618385  0.24433088  1
  In  In106  1  0.49829282  0.16662514  -0.00141627  1
  In  In107  1  0.66821153  0.66571405  0.49800318  1
  Ir  Ir108  1  0.49708212  0.50410462  0.75711436  1
  Ir  Ir109  1  0.66962842  0.66468816  0.75188559  1
  Ir  Ir110  1  0.83695560  0.83257514  0.00188152  1
  Ir  Ir111  1  -0.00238102  0.66774858  0.74685345  1
  Ir  Ir112  1  0.83632400  0.16552578  0.24868964  1
  Ir  Ir113  1  0.49573802  0.83441500  0.24321399  1
  Ir  Ir114  1  0.33474117  0.66512885  0.00221809  1
  Ir  Ir115  1  0.33845546  0.66808173  0.24485082  1
  Ir  Ir116  1  -0.00066948  0.33559202  0.75271539  1
  Ir  Ir117  1  0.50027181  0.50256016  -0.00045368  1
  Ir  Ir118  1  0.16204398  0.82999811  0.49868047  1
  Ir  Ir119  1  0.00011702  0.67014629  0.25149513  1
  Ir  Ir120  1  0.83602664  0.50459174  -0.00478809  1
  Ir  Ir121  1  0.83703289  0.49961158  0.50401041  1
  Ir  Ir122  1  0.49941493  0.50075520  0.24588209  1
  Ir  Ir123  1  -0.00117043  -0.00515321  0.75620602  1
  Ir  Ir124  1  0.16316999  0.16659827  0.00127597  1
  Ir  Ir125  1  -0.00052950  -0.00442561  0.00032282  1
  Ir  Ir126  1  0.16493944  0.83512605  0.25044936  1
  Ir  Ir127  1  0.49993956  0.16706145  0.50095346  1
  Ir  Ir128  1  0.50084376  0.83043648  0.75363964  1
  Ir  Ir129  1  0.00042309  -0.00013040  0.24693775  1
  Ir  Ir130  1  0.16158535  0.50254514  -0.00168970  1
  Ir  Ir131  1  0.16229159  0.16265333  0.24965734  1
  Ir  Ir132  1  0.66198357  0.33466882  0.25220187  1
  Ir  Ir133  1  0.33272608  0.66485032  0.75507877  1
  Ir  Ir134  1  0.83518412  0.50295978  0.75371020  1
  Ir  Ir135  1  0.66810204  -0.00289491  -0.00262597  1
  Ir  Ir136  1  0.33012090  0.33608960  0.75270049  1
  Ir  Ir137  1  0.00019052  0.66749003  0.50301430  1
  Ir  Ir138  1  0.49592860  0.16555818  0.25619095  1
  Ir  Ir139  1  0.33150376  -0.00223044  0.25170503  1
  Ir  Ir140  1  0.50043395  0.83177717  -0.00023378  1
  Ir  Ir141  1  0.84160362  0.83240466  0.24521445  1
  Ir  Ir142  1  0.16434007  0.83297179  0.00555029  1
  Ir  Ir143  1  0.66711251  0.33275039  0.49860645  1
  O  O144  1  0.31267489  0.33680318  0.12800771  1
  O  O145  1  0.30075804  0.32358115  0.63249997  1
  O  O146  1  0.31523586  0.67029927  0.12307614  1
  O  O147  1  0.30490617  0.66868566  0.63398152  1
  O  O148  1  0.31336780  0.98411119  0.13101302  1
  O  O149  1  0.31670832  0.97129915  0.62344329  1
  O  O150  1  0.64506664  0.34190724  0.13082974  1
  O  O151  1  0.64981290  0.32857170  0.62064871  1
  O  O152  1  0.63535296  0.65011857  0.12115869  1
  O  O153  1  0.65371459  0.66407289  0.63372533  1
  O  O154  1  0.64905590  0.99628130  0.11824648  1
  O  O155  1  0.62810717  0.99059490  0.62335197  1
  O  O156  1  0.98177013  0.31653085  0.12183058  1
  O  O157  1  0.96461477  0.32978471  0.63525994  1
  O  O158  1  0.97065683  0.65725431  0.12967683  1
  O  O159  1  0.96523115  0.66224862  0.62358244  1
  O  O160  1  0.97685696  0.98846586  0.12304171  1
  O  O161  1  0.97866548  0.98755259  0.63416334  1
  O  O162  1  0.18450758  0.16589326  0.12583881  1
  O  O163  1  0.20592476  0.15539469  0.62637958  1
  O  O164  1  0.18094319  0.50117919  0.11756181  1
  O  O165  1  0.18458577  0.49334080  0.62793922  1
  O  O166  1  0.19641868  0.83586800  0.12796093  1
  O  O167  1  0.19061858  0.82380968  0.62039098  1
  O  O168  1  0.51824428  0.16460435  0.13561040  1
  O  O169  1  0.53727146  0.15398008  0.61838748  1
  O  O170  1  0.52922458  0.49555751  0.12104297  1
  O  O171  1  0.51371307  0.50465541  0.63756489  1
  O  O172  1  0.52008168  0.82570144  0.12103587  1
  O  O173  1  0.51081795  0.83300047  0.63441092  1
  O  O174  1  0.86709853  0.16281023  0.12811069  1
  O  O175  1  0.85614769  0.16101289  0.62587043  1
  O  O176  1  0.87485772  0.49991464  0.11083882  1
  O  O177  1  0.85698738  0.48761143  0.63110162  1
  O  O178  1  0.87177659  0.82370664  0.12290706  1
  O  O179  1  0.87013943  0.82308250  0.62726281  1
  O  O180  1  0.13116267  0.16250151  0.36620750  1
  O  O181  1  0.14778908  0.17649163  0.87998155  1
  O  O182  1  0.12214797  0.50858342  0.37516426  1
  O  O183  1  0.13163602  0.50574250  0.87893932  1
  O  O184  1  0.13104108  0.83954294  0.37468606  1
  O  O185  1  0.13380077  0.82932624  0.88420833  1
  O  O186  1  0.46510089  0.17716733  0.38030583  1
  O  O187  1  0.45953682  0.16698450  0.87187094  1
  O  O188  1  0.47127220  0.50622509  0.36406356  1
  O  O189  1  0.46950013  0.50709220  0.87913497  1
  O  O190  1  0.47913706  0.83931488  0.36239954  1
  O  O191  1  0.47860205  0.83645554  0.87719385  1
  O  O192  1  0.81840732  0.16777008  0.36725986  1
  O  O193  1  0.79800086  0.17405992  0.87300974  1
  O  O194  1  0.82108147  0.50297420  0.38245331  1
  O  O195  1  0.80057523  0.51683426  0.87481340  1
  O  O196  1  0.82200740  0.83660622  0.36589171  1
  O  O197  1  0.82036472  0.84038361  0.88115785  1
  O  O198  1  0.03047195  0.00801051  0.36535226  1
  O  O199  1  0.02212921  -0.01079247  0.87896005  1
  O  O200  1  0.01537590  0.34828218  0.37507039  1
  O  O201  1  0.03538627  0.34557410  0.87149418  1
  O  O202  1  0.02345207  0.68371819  0.37793766  1
  O  O203  1  0.01973753  0.68301326  0.86764822  1
  O  O204  1  0.36444418  0.00654727  0.36957561  1
  O  O205  1  0.36579853  0.00874409  0.87599689  1
  O  O206  1  0.37097213  0.34566350  0.37389676  1
  O  O207  1  0.34618330  0.35110408  0.87196415  1
  O  O208  1  0.35673504  0.67441381  0.36284709  1
  O  O209  1  0.35367891  0.66060755  0.88038029  1
  O  O210  1  0.69934331  0.00391905  0.36956644  1
  O  O211  1  0.69804466  0.00480840  0.87936278  1
  O  O212  1  0.68539969  0.33097498  0.37425428  1
  O  O213  1  0.69981023  0.35682984  0.87680636  1
  O  O214  1  0.68452661  0.66811482  0.36872038  1
  O  O215  1  0.69811432  0.66229147  0.87214973  1
  O  O216  1  0.06616549  0.09504106  0.02364303  1
  O  O217  1  0.07373225  0.09033251  0.51350458  1
  O  O218  1  0.06336199  0.43969858  0.01694889  1
  O  O219  1  0.07820548  0.42039490  0.52538777  1
  O  O220  1  0.06826304  0.76791340  0.02472794  1
  O  O221  1  0.06718219  0.76197925  0.53007101  1
  O  O222  1  0.40877427  0.08896105  0.01999116  1
  O  O223  1  0.40603300  0.10190974  0.52517894  1
  O  O224  1  0.40615985  0.43816025  0.00819265  1
  O  O225  1  0.40977352  0.42551230  0.51561544  1
  O  O226  1  0.40731482  0.75910864  0.02743179  1
  O  O227  1  0.39292851  0.77337231  0.52093937  1
  O  O228  1  0.73443000  0.08939075  0.01320473  1
  O  O229  1  0.72890713  0.10442273  0.52370301  1
  O  O230  1  0.74003805  0.44513469  0.02272329  1
  O  O231  1  0.74449080  0.42440658  0.52571476  1
  O  O232  1  0.74966853  0.75884771  0.02365661  1
  O  O233  1  0.75206558  0.75055693  0.52333287  1
  O  O234  1  0.09043078  0.25285789  0.01370630  1
  O  O235  1  0.10562305  0.26430792  0.53064178  1
  O  O236  1  0.09137336  0.59172385  0.02097377  1
  O  O237  1  0.09527190  0.60676259  0.52663747  1
  O  O238  1  0.09176662  0.92308992  0.02663866  1
  O  O239  1  0.09231198  0.91767272  0.51771350  1
  O  O240  1  0.42231563  0.26136303  0.01124315  1
  O  O241  1  0.43281123  0.25513276  0.52775474  1
  O  O242  1  0.43339637  0.59952222  0.02467268  1
  O  O243  1  0.42716932  0.59746303  0.51007435  1
  O  O244  1  0.42334351  0.91419828  0.01639863  1
  O  O245  1  0.43670629  0.93972905  0.50787720  1
  O  O246  1  0.76185638  0.26411697  0.01230510  1
  O  O247  1  0.76146396  0.26667296  0.52309142  1
  O  O248  1  0.77842253  0.60142733  0.01917761  1
  O  O249  1  0.77198290  0.59151357  0.52536019  1
  O  O250  1  0.76627428  0.92764304  0.01286222  1
  O  O251  1  0.76506268  0.92949139  0.50606006  1
  O  O252  1  0.23832148  0.06995948  0.27872389  1
  O  O253  1  0.25191045  0.08316182  0.78043495  1
  O  O254  1  0.24690658  0.41694770  0.28191168  1
  O  O255  1  0.23441778  0.40112498  0.77226049  1
  O  O256  1  0.24139721  0.74495593  0.26476469  1
  O  O257  1  0.23995546  0.73295662  0.76244116  1
  O  O258  1  0.56577867  0.07564090  0.27554377  1
  O  O259  1  0.56832969  0.06683587  0.78748376  1
  O  O260  1  0.56481215  0.40259748  0.27440821  1
  O  O261  1  0.57378183  0.41806389  0.77301317  1
  O  O262  1  0.57256947  0.74902079  0.25259939  1
  O  O263  1  0.57590899  0.73527710  0.76885056  1
  O  O264  1  0.90526483  0.06805774  0.27481606  1
  O  O265  1  0.90355808  0.06071357  0.77787149  1
  O  O266  1  0.90759721  0.41219532  0.26479653  1
  O  O267  1  0.90460785  0.40614028  0.78207045  1
  O  O268  1  0.91263491  0.74329026  0.26906339  1
  O  O269  1  0.90406304  0.73065719  0.77203539  1
  O  O270  1  0.25591653  0.22907928  0.27517740  1
  O  O271  1  0.26587804  0.24440143  0.78003435  1
  O  O272  1  0.26980692  0.57625867  0.26954191  1
  O  O273  1  0.26740745  0.57055834  0.77569315  1
  O  O274  1  0.24983769  0.91513733  0.27909418  1
  O  O275  1  0.25836572  0.90422729  0.76709796  1
  O  O276  1  0.58222183  0.24419183  0.27778701  1
  O  O277  1  0.59930172  0.23520564  0.77314917  1
  O  O278  1  0.59303473  0.56420244  0.25838758  1
  O  O279  1  0.59684817  0.57053514  0.77772188  1
  O  O280  1  0.57920250  0.91373292  0.26322796  1
  O  O281  1  0.58802946  0.90087829  0.77440232  1
  O  O282  1  0.93344539  0.22668578  0.26701930  1
  O  O283  1  0.92880359  0.24853503  0.77833575  1
  O  O284  1  0.93621866  0.57522270  0.27231219  1
  O  O285  1  0.93062930  0.57242019  0.77841033  1
  O  O286  1  0.93304545  0.90543606  0.27465875  1
  O  O287  1  0.93477954  0.90052556  0.77577483  1
  O  O288  1  0.27326784  0.22825547  0.47332000  1
  O  O289  1  0.25204851  0.24028846  0.97644548  1
  O  O290  1  0.26414588  0.57117457  0.47123905  1
  O  O291  1  0.26229675  0.56680045  0.97746235  1
  O  O292  1  0.24622907  0.90480531  0.47406739  1
  O  O293  1  0.25482215  0.90315367  0.98834559  1
  O  O294  1  0.59301590  0.24051477  0.47797741  1
  O  O295  1  0.59788374  0.23424290  0.97305664  1
  O  O296  1  0.59721397  0.56969470  0.48975148  1
  O  O297  1  0.59757339  0.56445696  0.97996754  1
  O  O298  1  0.58669563  0.91443937  0.46860778  1
  O  O299  1  0.58900793  0.90810918  0.97388372  1
  O  O300  1  0.93750106  0.22905171  0.47475151  1
  O  O301  1  0.91994211  0.24567625  0.97058940  1
  O  O302  1  0.93468712  0.56959963  0.47836202  1
  O  O303  1  0.92751502  0.57036455  0.96378445  1
  O  O304  1  0.93564411  0.89916798  0.47421011  1
  O  O305  1  0.93359115  0.89882931  0.97774869  1
  O  O306  1  0.24018852  0.06799768  0.46320599  1
  O  O307  1  0.24046163  0.08233928  0.98422986  1
  O  O308  1  0.24419655  0.40932605  0.48033894  1
  O  O309  1  0.22759866  0.40983479  0.97303724  1
  O  O310  1  0.22847496  0.73892333  0.48990827  1
  O  O311  1  0.23892149  0.74015689  0.98691128  1
  O  O312  1  0.55881871  0.07324727  0.47258680  1
  O  O313  1  0.57727996  0.06568223  0.97243251  1
  O  O314  1  0.57353478  0.39887588  0.47762367  1
  O  O315  1  0.57124825  0.41430604  0.97716920  1
  O  O316  1  0.57695965  0.74581062  0.49041347  1
  O  O317  1  0.57550005  0.74426084  0.99039883  1
  O  O318  1  0.89997849  0.06268542  0.46834113  1
  O  O319  1  0.90461635  0.06110634  0.97646529  1
  O  O320  1  0.90658886  0.41043105  0.48982106  1
  O  O321  1  0.89773728  0.41054763  0.96423524  1
  O  O322  1  0.91410963  0.73715952  0.48230337  1
  O  O323  1  0.90118403  0.73827595  0.97739486  1
  O  O324  1  0.09326639  0.25079169  0.22906386  1
  O  O325  1  0.09665361  0.27053409  0.73006712  1
  O  O326  1  0.08693260  0.59891602  0.22875527  1
  O  O327  1  0.09379064  0.60598670  0.72701708  1
  O  O328  1  0.09143263  0.92506232  0.22663255  1
  O  O329  1  0.08565638  0.92209439  0.73309508  1
  O  O330  1  0.42474706  0.25199796  0.24130756  1
  O  O331  1  0.41813262  0.26268665  0.72864212  1
  O  O332  1  0.43593096  0.60046796  0.22136825  1
  O  O333  1  0.42532782  0.59725974  0.73995416  1
  O  O334  1  0.41376735  0.91608487  0.22263093  1
  O  O335  1  0.43725832  0.92447380  0.73774997  1
  O  O336  1  0.76382944  0.25904487  0.23153975  1
  O  O337  1  0.76919994  0.27220616  0.72915737  1
  O  O338  1  0.76250135  0.59103371  0.20985728  1
  O  O339  1  0.77094574  0.60102923  0.73166231  1
  O  O340  1  0.76632757  0.91884421  0.23608140  1
  O  O341  1  0.76228671  0.92767360  0.74307131  1
  O  O342  1  0.06451497  0.09689699  0.22374204  1
  O  O343  1  0.07119449  0.08470909  0.74021838  1
  O  O344  1  0.07036737  0.43118186  0.22339506  1
  O  O345  1  0.06885120  0.42435391  0.73427254  1
  O  O346  1  0.06814123  0.76759300  0.22713595  1
  O  O347  1  0.06510031  0.76011119  0.72021260  1
  O  O348  1  0.40355971  0.09152386  0.23490709  1
  O  O349  1  0.41004785  0.09096836  0.70612449  1
  O  O350  1  0.41160420  0.43306300  0.23223268  1
  O  O351  1  0.39948489  0.43512065  0.74112310  1
  O  O352  1  0.40808684  0.75968205  0.21445645  1
  O  O353  1  0.40081331  0.76261749  0.73423805  1
  O  O354  1  0.74571820  0.09740394  0.22936806  1
  O  O355  1  0.72408471  0.10540711  0.72855558  1
  O  O356  1  0.73165190  0.42854884  0.23074869  1
  O  O357  1  0.74693335  0.43305090  0.73514714  1
  O  O358  1  0.75636548  0.75590401  0.22032493  1
  O  O359  1  0.74233834  0.75205917  0.73148602  1
