# generated using pymatgen
data_BaLaInIrO6
_symmetry_space_group_name_H-M   'P 1'
_cell_length_a   17.53956012
_cell_length_b   17.56203221
_cell_length_c   16.48808765
_cell_angle_alpha   89.95719496
_cell_angle_beta   89.98758943
_cell_angle_gamma   89.99765524
_symmetry_Int_Tables_number   1
_chemical_formula_structural   BaLaInIrO6
_chemical_formula_sum   'Ba36 La36 In36 Ir36 O216'
_cell_volume   5078.82937222
_cell_formula_units_Z   36
loop_
 _symmetry_equiv_pos_site_id
 _symmetry_equiv_pos_as_xyz
  1  'x, y, z'
loop_
 _atom_site_type_symbol
 _atom_site_label
 _atom_site_symmetry_multiplicity
 _atom_site_fract_x
 _atom_site_fract_y
 _atom_site_fract_z
 _atom_site_occupancy
  Ba  Ba0  1  0.66336073  0.15417817  0.37400578  1
  Ba  Ba1  1  0.66964023  0.17344509  0.12450430  1
  Ba  Ba2  1  0.66357602  0.82531408  0.87796064  1
  Ba  Ba3  1  0.83354062  0.66231847  0.37601732  1
  Ba  Ba4  1  1.00148931  0.17973408  0.12381761  1
  Ba  Ba5  1  0.00157251  0.83196385  0.37218862  1
  Ba  Ba6  1  0.33007629  0.82238811  0.87739046  1
  Ba  Ba7  1  0.83178124  0.00667817  0.12586234  1
  Ba  Ba8  1  0.16949248  0.32767708  0.87550331  1
  Ba  Ba9  1  0.66546855  0.84448625  0.12268354  1
  Ba  Ba10  1  0.66533025  0.84020037  0.62636008  1
  Ba  Ba11  1  0.66571643  0.15407909  0.87509639  1
  Ba  Ba12  1  0.50228288  0.99100874  0.37610681  1
  Ba  Ba13  1  0.50335991  0.32062779  0.37646758  1
  Ba  Ba14  1  0.49381084  0.67208732  0.63048421  1
  Ba  Ba15  1  0.33089298  0.15565195  0.37646954  1
  Ba  Ba16  1  0.49818685  0.33805584  0.62518672  1
  Ba  Ba17  1  0.33020643  0.51470336  0.62972216  1
  Ba  Ba18  1  0.50313000  0.31937718  0.87108419  1
  Ba  Ba19  1  0.17020219  0.67814584  0.12320424  1
  Ba  Ba20  1  0.83207754  0.67577323  0.62432824  1
  Ba  Ba21  1  0.16965520  0.98905738  0.37394221  1
  Ba  Ba22  1  0.16365003  0.68148338  0.62662917  1
  Ba  Ba23  1  0.16490288  0.00487813  0.12315643  1
  Ba  Ba24  1  -0.00146033  0.15647899  0.87382219  1
  Ba  Ba25  1  0.66669457  0.49190545  0.86998371  1
  Ba  Ba26  1  1.00490142  0.50867642  0.12672980  1
  Ba  Ba27  1  0.83118249  0.65937996  0.87765642  1
  Ba  Ba28  1  0.33010395  0.15893676  0.87129360  1
  Ba  Ba29  1  0.00257792  0.49496086  0.37770378  1
  Ba  Ba30  1  0.33212445  0.17388887  0.62546230  1
  Ba  Ba31  1  0.16856099  0.99339824  0.87657455  1
  Ba  Ba32  1  0.17118104  0.33976643  0.12533215  1
  Ba  Ba33  1  0.00032017  0.15855157  0.37308459  1
  Ba  Ba34  1  0.66267380  0.82615690  0.37286581  1
  Ba  Ba35  1  0.33523546  0.84859343  0.12159957  1
  La  La36  1  0.83070678  0.34797831  0.62446860  1
  La  La37  1  0.49207123  0.68648096  0.12560662  1
  La  La38  1  0.16793469  0.01253668  0.62779552  1
  La  La39  1  0.33759312  0.84112977  0.62681170  1
  La  La40  1  1.00711613  0.84186642  0.12525450  1
  La  La41  1  0.32479552  0.48640334  0.38477205  1
  La  La42  1  1.00688786  0.51949406  0.62350832  1
  La  La43  1  0.49656138  0.00907085  0.62343833  1
  La  La44  1  0.17174954  0.31819020  0.36890343  1
  La  La45  1  0.66414564  0.17671125  0.62163601  1
  La  La46  1  0.50543787  0.65164201  0.87770042  1
  La  La47  1  0.50210123  0.65174430  0.37610830  1
  La  La48  1  0.83428497  0.31766018  0.87318300  1
  La  La49  1  0.17150321  0.65544861  0.87915461  1
  La  La50  1  -0.00332600  0.48282121  0.87510891  1
  La  La51  1  0.32672435  0.81470476  0.37428698  1
  La  La52  1  0.83822040  0.32279027  0.37112506  1
  La  La53  1  0.83454563  0.98405405  0.87797111  1
  La  La54  1  0.34042848  0.51886887  0.12446566  1
  La  La55  1  0.49297455  0.34537429  0.11668170  1
  La  La56  1  1.00453122  0.18454653  0.62395466  1
  La  La57  1  0.82973604  0.01577019  0.62421068  1
  La  La58  1  0.66851504  0.51439264  0.62541701  1
  La  La59  1  0.49797905  0.01306146  0.12527646  1
  La  La60  1  0.17087507  0.65311351  0.37611605  1
  La  La61  1  0.33214492  0.48903048  0.87215437  1
  La  La62  1  1.00503701  0.84826841  0.62643784  1
  La  La63  1  0.33883783  0.17705970  0.12193298  1
  La  La64  1  0.83114559  0.34233601  0.12470782  1
  La  La65  1  0.83331019  0.68457122  0.12827642  1
  La  La66  1  0.67394543  0.50974205  0.12065115  1
  La  La67  1  -0.00068607  0.82605135  0.87824857  1
  La  La68  1  0.66123917  0.48778817  0.38237054  1
  La  La69  1  0.83508514  0.98482489  0.37126999  1
  La  La70  1  0.16277958  0.34794387  0.62254718  1
  La  La71  1  0.50294355  0.98830135  0.87706713  1
  In  In72  1  0.16311861  0.16868799  0.74910316  1
  In  In73  1  0.66540095  0.66935144  0.75166790  1
  In  In74  1  -0.00259332  0.00353867  0.50240036  1
  In  In75  1  0.00249138  0.33727213  0.25190751  1
  In  In76  1  0.83191985  0.50213931  0.24872372  1
  In  In77  1  0.00154100  0.67004294  0.75346796  1
  In  In78  1  0.83701104  0.49892410  0.75018587  1
  In  In79  1  0.66650920  -0.00209739  0.50002545  1
  In  In80  1  0.66342295  0.66550785  0.24909382  1
  In  In81  1  0.66502415  0.66647646  0.00371047  1
  In  In82  1  -0.00034385  0.00099136  0.24939019  1
  In  In83  1  0.00222668  0.67303460  0.49927450  1
  In  In84  1  0.83195241  0.16551596  -0.00159011  1
  In  In85  1  0.00171591  0.66579280  -0.00092885  1
  In  In86  1  0.49993122  0.49627672  0.75146150  1
  In  In87  1  0.83255075  0.16646535  0.25167621  1
  In  In88  1  0.49541664  0.83062022  0.49758977  1
  In  In89  1  0.17023487  0.83131265  0.24984858  1
  In  In90  1  0.33842721  0.33505565  0.24940247  1
  In  In91  1  0.49775025  0.16515187  0.49768586  1
  In  In92  1  0.17041734  0.16541266  0.24668092  1
  In  In93  1  0.16758928  0.16810345  0.00005884  1
  In  In94  1  0.66415530  0.33460870  0.24703799  1
  In  In95  1  -0.00181573  0.00044044  -0.00212995  1
  In  In96  1  0.50079329  0.16290292  0.75152351  1
  In  In97  1  0.83518148  0.49900947  0.49896046  1
  In  In98  1  0.50050934  0.49917689  0.25098545  1
  In  In99  1  0.66735716  -0.00181667  0.75069931  1
  In  In100  1  0.33311265  -0.00292414  0.75176978  1
  In  In101  1  0.00269802  0.66733919  0.24983780  1
  In  In102  1  0.66423674  0.66726601  0.49876622  1
  In  In103  1  0.16519694  0.16702320  0.50124111  1
  In  In104  1  0.49553998  0.49743920  0.50086969  1
  In  In105  1  0.16406791  0.50141867  0.75129840  1
  In  In106  1  0.16923693  0.49957028  0.00311280  1
  In  In107  1  0.66401262  0.33418027  -0.00181151  1
  Ir  Ir108  1  0.33796129  0.00018223  0.00369431  1
  Ir  Ir109  1  0.16773290  0.83422910  -0.00348774  1
  Ir  Ir110  1  0.33171742  0.33532229  0.74910848  1
  Ir  Ir111  1  0.33162186  0.67107285  0.75616037  1
  Ir  Ir112  1  0.33864277  0.66651780  -0.00137972  1
  Ir  Ir113  1  0.33779311  0.66549552  0.25177652  1
  Ir  Ir114  1  -0.00577870  -0.00178609  0.74700380  1
  Ir  Ir115  1  -0.00040368  0.33390245  0.50423265  1
  Ir  Ir116  1  0.83464606  0.17005677  0.50495656  1
  Ir  Ir117  1  -0.00354735  0.33594724  -0.00490705  1
  Ir  Ir118  1  0.83787826  0.83657850  0.74958906  1
  Ir  Ir119  1  0.49529961  0.83247642  0.75365975  1
  Ir  Ir120  1  0.67256453  0.33209646  0.50441450  1
  Ir  Ir121  1  0.83608509  0.49700681  -0.00097476  1
  Ir  Ir122  1  0.66283280  -0.00344692  0.24708227  1
  Ir  Ir123  1  0.83026084  0.83453626  0.24891572  1
  Ir  Ir124  1  0.83415622  0.83356103  -0.00198034  1
  Ir  Ir125  1  0.17096679  0.83519600  0.50535459  1
  Ir  Ir126  1  0.49981233  0.16232629  0.00166851  1
  Ir  Ir127  1  0.33891623  0.33524801  -0.00320778  1
  Ir  Ir128  1  0.50131734  0.16312144  0.24434171  1
  Ir  Ir129  1  0.49272081  0.83417298  0.24787077  1
  Ir  Ir130  1  0.67244833  0.32956922  0.74405646  1
  Ir  Ir131  1  0.32951256  0.33529428  0.50277124  1
  Ir  Ir132  1  0.83540965  0.83707457  0.50311646  1
  Ir  Ir133  1  -0.00546761  0.33244541  0.74619823  1
  Ir  Ir134  1  0.32949679  0.66924500  0.50168729  1
  Ir  Ir135  1  0.33136742  -0.00728142  0.49985709  1
  Ir  Ir136  1  0.16624397  0.49820721  0.49952627  1
  Ir  Ir137  1  0.49671053  0.83493187  -0.00043002  1
  Ir  Ir138  1  0.66430542  -0.00355739  0.00035142  1
  Ir  Ir139  1  0.49913157  0.49987376  0.00191120  1
  Ir  Ir140  1  0.17622555  0.50201605  0.25377017  1
  Ir  Ir141  1  0.83625922  0.16646534  0.74342980  1
  Ir  Ir142  1  0.16511130  0.83652763  0.74945614  1
  Ir  Ir143  1  0.33832965  -0.00116427  0.25064612  1
  O  O144  1  0.32306561  0.32281397  0.11600714  1
  O  O145  1  0.29908626  0.33080947  0.62609081  1
  O  O146  1  0.31607180  0.65450666  0.12521176  1
  O  O147  1  0.30866983  0.67263063  0.62823783  1
  O  O148  1  0.31508432  1.00363956  0.12784324  1
  O  O149  1  0.30275348  0.98078965  0.61826829  1
  O  O150  1  0.62660334  0.33266861  0.12168801  1
  O  O151  1  0.64699035  0.31590073  0.62437791  1
  O  O152  1  0.62695061  0.65438783  0.12460704  1
  O  O153  1  0.64438327  0.66100170  0.62620823  1
  O  O154  1  0.63361623  0.99738323  0.12320078  1
  O  O155  1  0.63569446  1.00019219  0.62756655  1
  O  O156  1  0.96944643  0.33647000  0.11610130  1
  O  O157  1  0.96523901  0.32398012  0.62552723  1
  O  O158  1  0.96917029  0.66699664  0.12209723  1
  O  O159  1  0.98449649  0.65909649  0.62628478  1
  O  O160  1  0.97989655  0.97779612  0.12253151  1
  O  O161  1  0.96430392  0.98673607  0.62879784  1
  O  O162  1  0.20340152  0.17078183  0.12189258  1
  O  O163  1  0.18237269  0.15510913  0.62504263  1
  O  O164  1  0.20440402  0.49658114  0.13217542  1
  O  O165  1  0.18131816  0.48664394  0.62106211  1
  O  O166  1  0.18852647  0.83378587  0.11636607  1
  O  O167  1  0.19969346  0.83599513  0.62756918  1
  O  O168  1  0.52235229  0.15263712  0.12243673  1
  O  O169  1  0.52805204  0.15588247  0.62457296  1
  O  O170  1  0.53309183  0.48900880  0.12044053  1
  O  O171  1  0.52844666  0.50038868  0.62540563  1
  O  O172  1  0.51755451  0.82226559  0.12363944  1
  O  O173  1  0.51275177  0.82505739  0.63424235  1
  O  O174  1  0.85099397  0.16637903  0.12394243  1
  O  O175  1  0.86852647  0.15304286  0.62397603  1
  O  O176  1  0.85965741  0.48197261  0.11499894  1
  O  O177  1  0.87387160  0.48433056  0.62552187  1
  O  O178  1  0.86435548  0.82557368  0.12252492  1
  O  O179  1  0.86832530  0.83069081  0.62657053  1
  O  O180  1  0.15388446  0.17748759  0.37681299  1
  O  O181  1  0.15111183  0.17029038  0.87378103  1
  O  O182  1  0.15322142  0.51471128  0.37587694  1
  O  O183  1  0.13638182  0.50780295  0.87644256  1
  O  O184  1  0.15449004  0.83061754  0.38495062  1
  O  O185  1  0.13578005  0.83664595  0.87179106  1
  O  O186  1  0.48117718  0.16503022  0.36506057  1
  O  O187  1  0.47891788  0.16222766  0.88264533  1
  O  O188  1  0.45807368  0.50916483  0.37566982  1
  O  O189  1  0.46644992  0.50897401  0.88291251  1
  O  O190  1  0.46214712  0.83845494  0.36678656  1
  O  O191  1  0.47549105  0.85151022  0.87737574  1
  O  O192  1  0.81050713  0.18630739  0.38729845  1
  O  O193  1  0.81505976  0.17995790  0.86395371  1
  O  O194  1  0.79623898  0.50016865  0.37477057  1
  O  O195  1  0.81448451  0.49923008  0.88116984  1
  O  O196  1  0.80877952  0.84873903  0.37740637  1
  O  O197  1  0.81045461  0.84685231  0.87313189  1
  O  O198  1  0.01749791  -0.00350221  0.37844429  1
  O  O199  1  0.01759666  -0.00299869  0.86481638  1
  O  O200  1  0.03589481  0.33747957  0.38765303  1
  O  O201  1  0.02096851  0.34440150  0.86929196  1
  O  O202  1  0.03712082  0.67654149  0.37600712  1
  O  O203  1  0.03627282  0.68727068  0.87617403  1
  O  O204  1  0.35592113  0.00064282  0.37490285  1
  O  O205  1  0.36482446  0.00123033  0.88296406  1
  O  O206  1  0.35383927  0.34674710  0.38191748  1
  O  O207  1  0.35751424  0.35013143  0.87309985  1
  O  O208  1  0.36306111  0.67514255  0.37656897  1
  O  O209  1  0.36805021  0.67006588  0.87714710  1
  O  O210  1  0.69371006  -0.00363499  0.36881509  1
  O  O211  1  0.69590506  -0.00457055  0.87901376  1
  O  O212  1  0.70137672  0.34431146  0.38480849  1
  O  O213  1  0.69762135  0.33446460  0.86534833  1
  O  O214  1  0.68674599  0.67329188  0.37340130  1
  O  O215  1  0.68101651  0.66762000  0.87900870  1
  O  O216  1  0.07546086  0.09066699  0.01494959  1
  O  O217  1  0.06583915  0.09815722  0.52838898  1
  O  O218  1  0.06828603  0.42460152  0.00907758  1
  O  O219  1  0.06801747  0.42986501  0.52928221  1
  O  O220  1  0.07389681  0.77030636  0.01807439  1
  O  O221  1  0.07464763  0.77399100  0.52815858  1
  O  O222  1  0.40632800  0.09279727  0.03014745  1
  O  O223  1  0.40490943  0.08035930  0.52204685  1
  O  O224  1  0.40623525  0.43166288  0.02662905  1
  O  O225  1  0.39773087  0.42500616  0.52106856  1
  O  O226  1  0.40859729  0.75832216  0.02294098  1
  O  O227  1  0.38863701  0.76748113  0.51608897  1
  O  O228  1  0.73416217  0.08576510  0.01278284  1
  O  O229  1  0.74199363  0.10305908  0.52790067  1
  O  O230  1  0.73964074  0.43280120  0.02207824  1
  O  O231  1  0.73694094  0.42292944  0.53353789  1
  O  O232  1  0.75085592  0.75535756  0.02432942  1
  O  O233  1  0.74659229  0.76610050  0.51556439  1
  O  O234  1  0.08648657  0.26650066  0.01479969  1
  O  O235  1  0.09235234  0.26895207  0.53167817  1
  O  O236  1  0.10141567  0.59773927  0.01321930  1
  O  O237  1  0.09777541  0.58922315  0.51612746  1
  O  O238  1  0.09193796  0.91732950  0.01246627  1
  O  O239  1  0.10242699  0.92782535  0.53159866  1
  O  O240  1  0.43128307  0.25822461  0.02462766  1
  O  O241  1  0.41849147  0.26036987  0.51573880  1
  O  O242  1  0.43248832  0.59651376  0.02789539  1
  O  O243  1  0.41903392  0.59984777  0.51539647  1
  O  O244  1  0.43435260  0.93407757  0.02205087  1
  O  O245  1  0.42267744  0.92669936  0.52954625  1
  O  O246  1  0.76599948  0.26947167  0.01541933  1
  O  O247  1  0.76858422  0.26448635  0.53042243  1
  O  O248  1  0.76818304  0.58949005  0.02842396  1
  O  O249  1  0.74955203  0.58174854  0.52804961  1
  O  O250  1  0.76106400  0.92624022  0.01481624  1
  O  O251  1  0.76957510  0.93234739  0.52454778  1
  O  O252  1  0.24886892  0.06697897  0.26523407  1
  O  O253  1  0.23704235  0.06917028  0.75477264  1
  O  O254  1  0.24102084  0.40975110  0.27939036  1
  O  O255  1  0.24502280  0.41248083  0.76597321  1
  O  O256  1  0.24251538  0.73090343  0.27782002  1
  O  O257  1  0.22907273  0.73870477  0.77579472  1
  O  O258  1  0.56731684  0.06407279  0.25758749  1
  O  O259  1  0.57098740  0.06568758  0.77900268  1
  O  O260  1  0.58043312  0.41260584  0.28455618  1
  O  O261  1  0.58233321  0.40001775  0.76240282  1
  O  O262  1  0.55372229  0.73632974  0.26633258  1
  O  O263  1  0.55959274  0.74077448  0.77905963  1
  O  O264  1  0.89823189  0.06839010  0.27682754  1
  O  O265  1  0.89436566  0.06131266  0.76673038  1
  O  O266  1  0.90254135  0.40341529  0.27184767  1
  O  O267  1  0.89955458  0.39315063  0.77319153  1
  O  O268  1  0.90069825  0.74710910  0.26193334  1
  O  O269  1  0.90777315  0.74889822  0.77506127  1
  O  O270  1  0.26313848  0.24554772  0.26653276  1
  O  O271  1  0.25819339  0.25019373  0.76169628  1
  O  O272  1  0.27677538  0.56567217  0.27309660  1
  O  O273  1  0.26162704  0.58002859  0.78294073  1
  O  O274  1  0.27311084  0.90240866  0.27112161  1
  O  O275  1  0.25733604  0.90076502  0.76578687  1
  O  O276  1  0.59042211  0.23339553  0.26377332  1
  O  O277  1  0.60378334  0.23729051  0.75761841  1
  O  O278  1  0.59150231  0.57196562  0.28529274  1
  O  O279  1  0.58084378  0.58028958  0.77497854  1
  O  O280  1  0.58854007  0.90117860  0.26150727  1
  O  O281  1  0.58469516  0.90283581  0.76890185  1
  O  O282  1  0.92362172  0.24630183  0.27454843  1
  O  O283  1  0.93261670  0.23347781  0.76015008  1
  O  O284  1  0.92633064  0.57668152  0.26672471  1
  O  O285  1  0.93537465  0.56660080  0.77608374  1
  O  O286  1  0.91292015  0.90905001  0.26759912  1
  O  O287  1  0.93301701  0.90137352  0.77283016  1
  O  O288  1  0.25625716  0.25086698  0.48211152  1
  O  O289  1  0.26871320  0.24693399  0.98124322  1
  O  O290  1  0.26071522  0.57102762  0.47629354  1
  O  O291  1  0.27210668  0.57376073  0.97602619  1
  O  O292  1  0.26901088  0.89584032  0.47830892  1
  O  O293  1  0.26282209  0.90937050  0.98120346  1
  O  O294  1  0.60159244  0.24253835  0.48880049  1
  O  O295  1  0.58908155  0.23362267  0.98227171  1
  O  O296  1  0.58914295  0.56874635  0.47097591  1
  O  O297  1  0.58634180  0.56992883  0.97954046  1
  O  O298  1  0.58979279  0.90409497  0.48770125  1
  O  O299  1  0.58718270  0.90916253  0.97838247  1
  O  O300  1  0.93420608  0.23557073  0.48928187  1
  O  O301  1  0.92554271  0.24910878  0.97458831  1
  O  O302  1  0.92860114  0.57528752  0.48828995  1
  O  O303  1  0.93155512  0.56222232  0.97454800  1
  O  O304  1  0.92206016  0.90757465  0.48538323  1
  O  O305  1  0.92249790  0.90393668  0.97009513  1
  O  O306  1  0.24105457  0.06378217  0.49109641  1
  O  O307  1  0.25170681  0.07166348  0.98580579  1
  O  O308  1  0.23281862  0.40236805  0.47755897  1
  O  O309  1  0.25357831  0.41243680  0.97676118  1
  O  O310  1  0.23533621  0.73667298  0.47673173  1
  O  O311  1  0.23904364  0.73299139  0.97503421  1
  O  O312  1  0.57521419  0.07482233  0.48578224  1
  O  O313  1  0.56474523  0.06260942  0.98188952  1
  O  O314  1  0.58365249  0.40428204  0.48289027  1
  O  O315  1  0.56527417  0.40940684  0.97855892  1
  O  O316  1  0.55844918  0.73051393  0.47639308  1
  O  O317  1  0.56097486  0.73922259  0.98229741  1
  O  O318  1  0.89085044  0.07139953  0.48211035  1
  O  O319  1  0.89902636  0.06801874  0.97173572  1
  O  O320  1  0.90291540  0.39334598  0.47757044  1
  O  O321  1  0.90138216  0.40260307  0.96873378  1
  O  O322  1  0.90552963  0.74949638  0.48338646  1
  O  O323  1  0.90813611  0.74817511  0.97848722  1
  O  O324  1  0.09860032  0.26751651  0.24210938  1
  O  O325  1  0.08925292  0.26852021  0.71882112  1
  O  O326  1  0.10973193  0.59405320  0.24048816  1
  O  O327  1  0.09482847  0.59479054  0.73191287  1
  O  O328  1  0.08912216  0.91765552  0.23464053  1
  O  O329  1  0.09469369  0.93277358  0.72061101  1
  O  O330  1  0.43522650  0.25644196  0.22088107  1
  O  O331  1  0.41961993  0.25854950  0.73714735  1
  O  O332  1  0.43066589  0.60033773  0.22287341  1
  O  O333  1  0.41812405  0.59756535  0.74448106  1
  O  O334  1  0.43291084  0.93413629  0.22563003  1
  O  O335  1  0.42928576  0.92329088  0.72505043  1
  O  O336  1  0.76478436  0.26877846  0.23169514  1
  O  O337  1  0.77259420  0.26414440  0.72249359  1
  O  O338  1  0.75836310  0.59459865  0.20991860  1
  O  O339  1  0.75160081  0.58197780  0.72895958  1
  O  O340  1  0.75585415  0.92736463  0.23288400  1
  O  O341  1  0.77238436  0.93177270  0.72849503  1
  O  O342  1  0.07562413  0.09349566  0.23031626  1
  O  O343  1  0.05878357  0.09217896  0.72182907  1
  O  O344  1  0.08452843  0.43406158  0.23730757  1
  O  O345  1  0.05860441  0.42823139  0.72731773  1
  O  O346  1  0.07229926  0.76214890  0.22258350  1
  O  O347  1  0.06909480  0.77653802  0.72889647  1
  O  O348  1  0.40503736  0.09529690  0.22181997  1
  O  O349  1  0.41378166  0.08200443  0.72187349  1
  O  O350  1  0.40770312  0.42816887  0.21484901  1
  O  O351  1  0.40263340  0.42523479  0.73724547  1
  O  O352  1  0.39886139  0.76397723  0.23139073  1
  O  O353  1  0.39808461  0.76620301  0.73219834  1
  O  O354  1  0.73242837  0.08625275  0.23630615  1
  O  O355  1  0.74232567  0.10147007  0.72048262  1
  O  O356  1  0.73825653  0.42844557  0.21090983  1
  O  O357  1  0.73841083  0.42138630  0.71834026  1
  O  O358  1  0.74542016  0.75927302  0.22548408  1
  O  O359  1  0.74771619  0.76564668  0.73693119  1
