# generated using pymatgen
data_BaLaInIrO6
_symmetry_space_group_name_H-M   'P 1'
_cell_length_a   17.51412653
_cell_length_b   17.53046339
_cell_length_c   16.47618148
_cell_angle_alpha   89.99509451
_cell_angle_beta   90.00028693
_cell_angle_gamma   90.01946719
_symmetry_Int_Tables_number   1
_chemical_formula_structural   BaLaInIrO6
_chemical_formula_sum   'Ba36 La36 In36 Ir36 O216'
_cell_volume   5058.69410986
_cell_formula_units_Z   36
loop_
 _symmetry_equiv_pos_site_id
 _symmetry_equiv_pos_as_xyz
  1  'x, y, z'
loop_
 _atom_site_type_symbol
 _atom_site_label
 _atom_site_symmetry_multiplicity
 _atom_site_fract_x
 _atom_site_fract_y
 _atom_site_fract_z
 _atom_site_occupancy
  Ba  Ba0  1  0.66733953  0.51244256  0.62893228  1
  Ba  Ba1  1  0.33938825  0.83986982  0.62648998  1
  Ba  Ba2  1  1.00038600  0.51061979  0.62419575  1
  Ba  Ba3  1  0.66317304  0.49164627  0.87440049  1
  Ba  Ba4  1  1.00246067  0.50652455  0.12708388  1
  Ba  Ba5  1  0.33065322  0.49325355  0.37320716  1
  Ba  Ba6  1  -0.00229179  0.15728280  0.87745119  1
  Ba  Ba7  1  0.83912715  0.99129775  0.37717771  1
  Ba  Ba8  1  0.16799695  0.00476157  0.12549817  1
  Ba  Ba9  1  0.33467669  0.82431696  0.87408570  1
  Ba  Ba10  1  0.49987226  0.99367264  0.37107008  1
  Ba  Ba11  1  0.50073673  0.00713651  0.12608683  1
  Ba  Ba12  1  0.66548878  0.17129669  0.12632464  1
  Ba  Ba13  1  0.49766119  0.66206495  0.37179624  1
  Ba  Ba14  1  0.66832567  0.15772871  0.87152180  1
  Ba  Ba15  1  0.33522943  0.51493005  0.62665499  1
  Ba  Ba16  1  1.00227314  0.84223606  0.12091501  1
  Ba  Ba17  1  0.83763619  0.32044622  0.37647902  1
  Ba  Ba18  1  0.16901970  0.98381577  0.87944018  1
  Ba  Ba19  1  0.00175715  0.82620775  0.87636383  1
  Ba  Ba20  1  0.83071832  0.67606536  0.62735824  1
  Ba  Ba21  1  0.83536062  0.65468256  0.87728349  1
  Ba  Ba22  1  -0.00187759  0.48919619  0.37784346  1
  Ba  Ba23  1  0.66851415  0.84575460  0.12753902  1
  Ba  Ba24  1  -0.00095042  0.82625175  0.37022743  1
  Ba  Ba25  1  0.16517381  0.33675351  0.12116620  1
  Ba  Ba26  1  0.49623419  0.34781473  0.63067565  1
  Ba  Ba27  1  0.33407595  0.17281092  0.12420011  1
  Ba  Ba28  1  -0.00034977  0.15626157  0.37573629  1
  Ba  Ba29  1  0.16744028  0.65781889  0.37185607  1
  Ba  Ba30  1  0.16952750  0.98686440  0.37462490  1
  Ba  Ba31  1  0.16299503  0.67533035  0.62320846  1
  Ba  Ba32  1  0.32944436  0.50731697  0.12013957  1
  Ba  Ba33  1  0.33274830  0.49285280  0.87548507  1
  Ba  Ba34  1  0.49907067  0.67457738  0.62192752  1
  Ba  Ba35  1  0.50240706  0.68049609  0.11835414  1
  La  La36  1  0.67154146  0.85064840  0.62402998  1
  La  La37  1  0.83953271  0.65371383  0.37489077  1
  La  La38  1  0.15940849  0.33464127  0.36446668  1
  La  La39  1  0.66548128  0.82263533  0.37397265  1
  La  La40  1  0.16849596  0.31881287  0.87425380  1
  La  La41  1  0.49981658  0.31982983  0.87672717  1
  La  La42  1  0.50412058  0.32022489  0.37220546  1
  La  La43  1  0.83582251  0.31998482  0.87281628  1
  La  La44  1  0.82575769  0.34981174  0.62644916  1
  La  La45  1  0.82906558  0.68466485  0.12375991  1
  La  La46  1  0.33672467  0.18067411  0.62599432  1
  La  La47  1  0.33355438  0.84086318  0.12704593  1
  La  La48  1  1.00617264  0.17946565  0.12664051  1
  La  La49  1  0.49284608  0.34440019  0.12051587  1
  La  La50  1  0.16558398  0.01332414  0.62751055  1
  La  La51  1  1.00392872  0.17981267  0.62662575  1
  La  La52  1  0.83811888  0.00938650  0.62834925  1
  La  La53  1  0.50268861  0.98523281  0.87698152  1
  La  La54  1  1.00422279  0.83936226  0.62270198  1
  La  La55  1  0.67544267  0.51926189  0.11918830  1
  La  La56  1  0.33088784  0.16195983  0.36965417  1
  La  La57  1  0.50220414  0.65285443  0.86983170  1
  La  La58  1  0.67285734  0.17905194  0.62132539  1
  La  La59  1  0.32555148  0.81684720  0.37403774  1
  La  La60  1  0.66090976  0.81698815  0.87626213  1
  La  La61  1  0.16092582  0.34404582  0.62410378  1
  La  La62  1  0.16321250  0.68312418  0.12490348  1
  La  La63  1  0.84084259  0.98748556  0.88156638  1
  La  La64  1  -0.00353285  0.48287241  0.87246218  1
  La  La65  1  0.49612031  0.01123890  0.62663108  1
  La  La66  1  0.82760767  0.01521813  0.12830186  1
  La  La67  1  0.83109577  0.34775302  0.12284098  1
  La  La68  1  0.16870176  0.65882160  0.87296832  1
  La  La69  1  0.32732862  0.14952983  0.87644483  1
  La  La70  1  0.66794074  0.14914085  0.37574791  1
  La  La71  1  0.65440548  0.48817594  0.37709894  1
  In  In72  1  0.50420816  0.83456693  0.74891419  1
  In  In73  1  0.66693629  0.33112130  0.49740352  1
  In  In74  1  0.16378411  0.49993265  0.24608746  1
  In  In75  1  0.16490407  0.16226877  -0.00126845  1
  In  In76  1  0.00005094  0.66802668  0.75168248  1
  In  In77  1  0.50000408  0.16280493  0.75233528  1
  In  In78  1  0.83000019  0.50115266  0.24678475  1
  In  In79  1  0.00124224  0.00035040  0.75403863  1
  In  In80  1  0.33396064  0.00006314  0.25162814  1
  In  In81  1  0.83223542  0.83354301  0.75380670  1
  In  In82  1  0.16636939  0.49686569  0.49957475  1
  In  In83  1  0.49581270  0.49991338  0.49815651  1
  In  In84  1  0.66442864  0.33258866  0.75317987  1
  In  In85  1  0.66835934  0.00027314  -0.00297896  1
  In  In86  1  0.50139979  0.16652727  0.50411925  1
  In  In87  1  0.16692857  0.49873297  0.75173406  1
  In  In88  1  0.50297864  0.16792326  0.24876566  1
  In  In89  1  0.00003631  0.66403612  0.00017282  1
  In  In90  1  0.66897077  0.66813566  0.24980072  1
  In  In91  1  0.33719308  0.33432924  0.24856582  1
  In  In92  1  0.33238435  0.00079014  0.50455146  1
  In  In93  1  0.00206389  -0.00094814  0.50135099  1
  In  In94  1  0.66720429  0.67018937  0.49966726  1
  In  In95  1  0.16464157  0.16611741  0.25180803  1
  In  In96  1  0.33289983  0.66920585  -0.00171223  1
  In  In97  1  0.83506339  0.16910653  0.00259581  1
  In  In98  1  -0.00142395  0.66826529  0.49756007  1
  In  In99  1  0.16742173  0.16719905  0.50161231  1
  In  In100  1  0.33308583  0.33047570  0.50021298  1
  In  In101  1  0.33574123  0.66471502  0.24512570  1
  In  In102  1  0.83449112  0.83443311  0.49983215  1
  In  In103  1  0.66472972  0.33244555  0.00128826  1
  In  In104  1  0.50245900  0.83717560  0.49694552  1
  In  In105  1  0.66788853  0.33235822  0.24666105  1
  In  In106  1  0.82857301  0.50019167  0.49867868  1
  In  In107  1  0.50109489  0.49954545  0.00154296  1
  Ir  Ir108  1  0.16952766  0.16860604  0.75071286  1
  Ir  Ir109  1  0.33136681  0.67109869  0.50093556  1
  Ir  Ir110  1  0.33099034  0.00189618  0.75141951  1
  Ir  Ir111  1  0.83455601  0.49812959  -0.00370373  1
  Ir  Ir112  1  0.66921624  0.00205930  0.50273754  1
  Ir  Ir113  1  0.67258287  -0.00049752  0.25420307  1
  Ir  Ir114  1  0.66971439  0.00064666  0.74758040  1
  Ir  Ir115  1  -0.00331210  -0.00279887  0.00382064  1
  Ir  Ir116  1  0.49961641  0.83606565  0.24798716  1
  Ir  Ir117  1  0.83810588  0.16503510  0.24979422  1
  Ir  Ir118  1  -0.00316982  0.66957196  0.24633342  1
  Ir  Ir119  1  0.49526298  0.50197375  0.75269708  1
  Ir  Ir120  1  -0.00618555  0.32933820  0.24849649  1
  Ir  Ir121  1  0.16922633  0.83315900  -0.00141535  1
  Ir  Ir122  1  -0.00292268  0.32931739  0.74973657  1
  Ir  Ir123  1  0.33733681  -0.00337402  -0.00361205  1
  Ir  Ir124  1  0.16217244  0.49902213  -0.00310102  1
  Ir  Ir125  1  0.50452550  0.49850766  0.24676846  1
  Ir  Ir126  1  0.83290767  0.49657097  0.75652315  1
  Ir  Ir127  1  0.83120994  0.83573393  0.00251822  1
  Ir  Ir128  1  0.33013388  0.33140597  0.75511289  1
  Ir  Ir129  1  0.49407693  0.16491217  -0.00491433  1
  Ir  Ir130  1  0.33311163  0.33161209  -0.00636751  1
  Ir  Ir131  1  0.66471823  0.66704400  0.75458895  1
  Ir  Ir132  1  0.66882460  0.66915588  -0.00282827  1
  Ir  Ir133  1  -0.00518346  0.32715885  0.50662212  1
  Ir  Ir134  1  -0.00176870  0.33537901  -0.00315144  1
  Ir  Ir135  1  0.33492116  0.66942222  0.75031385  1
  Ir  Ir136  1  0.83424955  0.16447020  0.50458511  1
  Ir  Ir137  1  0.83387346  0.16625395  0.74645449  1
  Ir  Ir138  1  0.17144060  0.83623593  0.74720058  1
  Ir  Ir139  1  0.16577115  0.83302404  0.25124380  1
  Ir  Ir140  1  -0.00456029  -0.00200868  0.24535333  1
  Ir  Ir141  1  0.17080834  0.83517145  0.50251008  1
  Ir  Ir142  1  0.83304499  0.83617620  0.24715485  1
  Ir  Ir143  1  0.50138185  0.83634044  -0.00041864  1
  O  O144  1  0.31629990  0.32915773  0.11336466  1
  O  O145  1  0.29694844  0.32183261  0.63711628  1
  O  O146  1  0.30203796  0.67972549  0.12161596  1
  O  O147  1  0.31327609  0.67343506  0.62604462  1
  O  O148  1  0.32058801  0.98413242  0.11796609  1
  O  O149  1  0.29982370  0.99481206  0.63544204  1
  O  O150  1  0.62716844  0.32239503  0.12412695  1
  O  O151  1  0.64625068  0.31623823  0.62704466  1
  O  O152  1  0.65157500  0.66424113  0.11806719  1
  O  O153  1  0.64817913  0.66714988  0.63541961  1
  O  O154  1  0.65407258  1.00176244  0.13225883  1
  O  O155  1  0.63416051  0.99167694  0.62464121  1
  O  O156  1  0.96660595  0.32209900  0.12259586  1
  O  O157  1  0.96214150  0.31812767  0.62833947  1
  O  O158  1  0.96741233  0.66556363  0.12736147  1
  O  O159  1  0.98330045  0.68254970  0.62535349  1
  O  O160  1  0.96383734  0.99565093  0.12349617  1
  O  O161  1  0.97304076  0.98324017  0.63035353  1
  O  O162  1  0.17782618  0.16994528  0.12302206  1
  O  O163  1  0.19837519  0.16369989  0.63394934  1
  O  O164  1  0.17984955  0.48964585  0.11524127  1
  O  O165  1  0.18561344  0.47964302  0.62641803  1
  O  O166  1  0.19615329  0.82797088  0.12487021  1
  O  O167  1  0.19457471  0.83853206  0.62487615  1
  O  O168  1  0.51593670  0.16348588  0.11370851  1
  O  O169  1  0.53960159  0.14958479  0.63059284  1
  O  O170  1  0.53757864  0.48670607  0.12791885  1
  O  O171  1  0.51377504  0.50358200  0.63254715  1
  O  O172  1  0.52161676  0.83840498  0.12248504  1
  O  O173  1  0.53473167  0.83368731  0.62558968  1
  O  O174  1  0.86892656  0.15508389  0.12992336  1
  O  O175  1  0.86483867  0.15141825  0.62589028  1
  O  O176  1  0.85591071  0.49148192  0.11408741  1
  O  O177  1  0.85196368  0.49146828  0.63690059  1
  O  O178  1  0.85578333  0.82228672  0.12485807  1
  O  O179  1  0.86561017  0.83521488  0.62824404  1
  O  O180  1  0.14638483  0.19087890  0.37773913  1
  O  O181  1  0.14584342  0.17570789  0.87093970  1
  O  O182  1  0.14865231  0.48917309  0.37324380  1
  O  O183  1  0.13419816  0.51101855  0.87918499  1
  O  O184  1  0.14689193  0.83121289  0.37786196  1
  O  O185  1  0.14882527  0.83001367  0.87117469  1
  O  O186  1  0.46704815  0.17741720  0.37807606  1
  O  O187  1  0.46288274  0.17241750  0.87726610  1
  O  O188  1  0.48138061  0.50456627  0.36407606  1
  O  O189  1  0.48154485  0.51376582  0.87263013  1
  O  O190  1  0.46771163  0.83757198  0.36645135  1
  O  O191  1  0.48644823  0.84335132  0.87820553  1
  O  O192  1  0.80538997  0.16874767  0.37856808  1
  O  O193  1  0.81661172  0.18009120  0.86897761  1
  O  O194  1  0.79328736  0.50948639  0.36993287  1
  O  O195  1  0.81189336  0.49293047  0.87724527  1
  O  O196  1  0.80216596  0.84137783  0.36642469  1
  O  O197  1  0.79703149  0.84824694  0.88417869  1
  O  O198  1  0.01718577  0.00079728  0.36713683  1
  O  O199  1  0.02017113  0.00247903  0.88371959  1
  O  O200  1  0.02329420  0.33109978  0.37873897  1
  O  O201  1  0.02963819  0.34231808  0.87295714  1
  O  O202  1  0.01783738  0.67109314  0.36355125  1
  O  O203  1  0.03368156  0.67067593  0.87763074  1
  O  O204  1  0.35013142  0.02211641  0.37963089  1
  O  O205  1  0.36484852  0.01021754  0.87270989  1
  O  O206  1  0.37012207  0.33017919  0.37476906  1
  O  O207  1  0.36360579  0.33537580  0.87408980  1
  O  O208  1  0.34514154  0.67707956  0.37760529  1
  O  O209  1  0.36289429  0.66876652  0.87052237  1
  O  O210  1  0.69393895  0.01120889  0.38027057  1
  O  O211  1  0.70425375  0.00430824  0.86619369  1
  O  O212  1  0.69274331  0.35444646  0.37163876  1
  O  O213  1  0.70135917  0.33022570  0.87646079  1
  O  O214  1  0.70331597  0.68388531  0.37168073  1
  O  O215  1  0.68823806  0.67675673  0.87578388  1
  O  O216  1  0.06288673  0.09082716  0.02529826  1
  O  O217  1  0.06873914  0.09606908  0.53328039  1
  O  O218  1  0.06541682  0.42995099  0.00684835  1
  O  O219  1  0.06570675  0.41372743  0.52341905  1
  O  O220  1  0.08401696  0.75766507  0.02124465  1
  O  O221  1  0.07428838  0.77297388  0.51975069  1
  O  O222  1  0.39915943  0.09570577  0.00809148  1
  O  O223  1  0.40928556  0.09138116  0.54274825  1
  O  O224  1  0.40619255  0.41870403  0.01519520  1
  O  O225  1  0.40009203  0.42962944  0.51745370  1
  O  O226  1  0.40471820  0.77326782  0.02223083  1
  O  O227  1  0.40207016  0.76142572  0.50566249  1
  O  O228  1  0.74415066  0.09145967  0.01714977  1
  O  O229  1  0.73433511  0.10108889  0.52349605  1
  O  O230  1  0.73792949  0.43502528  0.02310580  1
  O  O231  1  0.74365685  0.41974234  0.52906587  1
  O  O232  1  0.74066445  0.76271381  0.01914328  1
  O  O233  1  0.73065761  0.77671656  0.52410357  1
  O  O234  1  0.08555667  0.26048913  0.01089222  1
  O  O235  1  0.08751747  0.25949298  0.53555407  1
  O  O236  1  0.10184428  0.59487339  0.02419578  1
  O  O237  1  0.08939311  0.58934967  0.51136734  1
  O  O238  1  0.09380311  0.92674568  0.01797029  1
  O  O239  1  0.10469629  0.92765544  0.52812539  1
  O  O240  1  0.43119323  0.26580838  0.01446713  1
  O  O241  1  0.42552685  0.25585165  0.53631456  1
  O  O242  1  0.42549487  0.59308767  0.01303853  1
  O  O243  1  0.42091678  0.60084225  0.50906655  1
  O  O244  1  0.43812739  0.93530150  0.00497452  1
  O  O245  1  0.43612628  0.93426751  0.52545160  1
  O  O246  1  0.76654824  0.26705806  0.02637020  1
  O  O247  1  0.76905034  0.25645902  0.52840660  1
  O  O248  1  0.76632350  0.59638023  0.02369624  1
  O  O249  1  0.76004214  0.59777645  0.51605418  1
  O  O250  1  0.76984368  0.93114035  0.02363250  1
  O  O251  1  0.76242862  0.93957596  0.53016134  1
  O  O252  1  0.24047090  0.07500333  0.26606786  1
  O  O253  1  0.24071492  0.07610938  0.77773877  1
  O  O254  1  0.23745755  0.40162315  0.26469691  1
  O  O255  1  0.23507797  0.39661158  0.77776210  1
  O  O256  1  0.24074003  0.74860532  0.26601182  1
  O  O257  1  0.23716225  0.73710335  0.77100017  1
  O  O258  1  0.58701298  0.07547154  0.27205598  1
  O  O259  1  0.57276584  0.06146820  0.77643856  1
  O  O260  1  0.56756339  0.40600000  0.27619661  1
  O  O261  1  0.56334214  0.40888208  0.77460128  1
  O  O262  1  0.57719700  0.75137749  0.26548452  1
  O  O263  1  0.57444317  0.73581013  0.78029310  1
  O  O264  1  0.90227173  0.06619314  0.26193933  1
  O  O265  1  0.89791383  0.07347852  0.76999077  1
  O  O266  1  0.90418523  0.40200677  0.25879207  1
  O  O267  1  0.90198597  0.39913569  0.77692707  1
  O  O268  1  0.89738091  0.73649864  0.26736393  1
  O  O269  1  0.90598431  0.74111542  0.77449868  1
  O  O270  1  0.26469787  0.23843973  0.27111827  1
  O  O271  1  0.26268613  0.23857488  0.78283037  1
  O  O272  1  0.25715877  0.57614698  0.25678695  1
  O  O273  1  0.25918458  0.58352393  0.77045533  1
  O  O274  1  0.26100343  0.89936076  0.26965872  1
  O  O275  1  0.26368727  0.90814854  0.77029950  1
  O  O276  1  0.60013629  0.23581485  0.28486143  1
  O  O277  1  0.58158653  0.24677731  0.77998452  1
  O  O278  1  0.60219579  0.56344207  0.26583075  1
  O  O279  1  0.58715183  0.57649793  0.77513566  1
  O  O280  1  0.60003786  0.90554016  0.27581745  1
  O  O281  1  0.60516357  0.90678390  0.77672531  1
  O  O282  1  0.92988263  0.23243539  0.26305875  1
  O  O283  1  0.92515897  0.23877710  0.77007908  1
  O  O284  1  0.92355782  0.58214220  0.26976753  1
  O  O285  1  0.92751375  0.56207671  0.77547238  1
  O  O286  1  0.92441983  0.90475289  0.26217292  1
  O  O287  1  0.91603400  0.91752295  0.78274465  1
  O  O288  1  0.27747792  0.21906052  0.48845764  1
  O  O289  1  0.26226641  0.24154229  0.96928023  1
  O  O290  1  0.26121786  0.58075237  0.48897629  1
  O  O291  1  0.24902396  0.57305390  0.97861116  1
  O  O292  1  0.26784022  0.89499077  0.47707121  1
  O  O293  1  0.26917867  0.90097549  0.98935259  1
  O  O294  1  0.60366636  0.22946470  0.47435830  1
  O  O295  1  0.58236539  0.23524328  0.97396876  1
  O  O296  1  0.59454586  0.57070473  0.47788740  1
  O  O297  1  0.59812326  0.57870399  0.98609368  1
  O  O298  1  0.61076113  0.90572938  0.47911562  1
  O  O299  1  0.59745208  0.90325468  0.97405475  1
  O  O300  1  0.93142312  0.22857453  0.49251408  1
  O  O301  1  0.92817056  0.24692399  0.98131936  1
  O  O302  1  0.92018324  0.57471664  0.47817324  1
  O  O303  1  0.93189031  0.56068410  0.97391466  1
  O  O304  1  0.93274214  0.90302112  0.48754792  1
  O  O305  1  0.92189384  0.90725973  0.97846791  1
  O  O306  1  0.22603737  0.06054156  0.50075786  1
  O  O307  1  0.24748028  0.06972660  0.98215510  1
  O  O308  1  0.22430200  0.38549839  0.48168650  1
  O  O309  1  0.23205472  0.39902577  0.97127939  1
  O  O310  1  0.23888928  0.74271824  0.48020832  1
  O  O311  1  0.23269047  0.73896936  0.97502133  1
  O  O312  1  0.57810061  0.06760684  0.48199739  1
  O  O313  1  0.56298558  0.07088596  0.97344333  1
  O  O314  1  0.56836399  0.40223449  0.47259857  1
  O  O315  1  0.56646152  0.40040267  0.97169404  1
  O  O316  1  0.57809898  0.74815669  0.46921026  1
  O  O317  1  0.57135109  0.73826094  0.97194344  1
  O  O318  1  0.90013025  0.07242910  0.49374452  1
  O  O319  1  0.90398670  0.06513208  0.98343813  1
  O  O320  1  0.90514005  0.39798542  0.49298817  1
  O  O321  1  0.89927661  0.40137449  0.97271993  1
  O  O322  1  0.89805016  0.73452397  0.46959294  1
  O  O323  1  0.90119954  0.74336033  0.98864955  1
  O  O324  1  0.08170228  0.25734405  0.23035627  1
  O  O325  1  0.09498925  0.26098190  0.72368853  1
  O  O326  1  0.08982549  0.60189994  0.22303201  1
  O  O327  1  0.09356336  0.59224141  0.73725520  1
  O  O328  1  0.08899276  0.92674457  0.23130102  1
  O  O329  1  0.10126632  0.92749642  0.72776501  1
  O  O330  1  0.44119868  0.27146948  0.22728558  1
  O  O331  1  0.41652555  0.25844854  0.73276844  1
  O  O332  1  0.43597578  0.59027851  0.22519030  1
  O  O333  1  0.43003737  0.60074504  0.73763721  1
  O  O334  1  0.42418585  0.91819664  0.22935574  1
  O  O335  1  0.43015727  0.93799543  0.73381642  1
  O  O336  1  0.77370754  0.25916361  0.22435155  1
  O  O337  1  0.76591390  0.25654957  0.72239270  1
  O  O338  1  0.76290191  0.59776869  0.21345260  1
  O  O339  1  0.76202313  0.59042447  0.73840270  1
  O  O340  1  0.76812102  0.93157110  0.22608763  1
  O  O341  1  0.75801725  0.93296808  0.71737492  1
  O  O342  1  0.06096720  0.09130120  0.22523836  1
  O  O343  1  0.07757366  0.09766791  0.72268880  1
  O  O344  1  0.06812180  0.41553096  0.23808707  1
  O  O345  1  0.06815221  0.41698186  0.73384801  1
  O  O346  1  0.07800404  0.75519677  0.22110482  1
  O  O347  1  0.07842453  0.77266106  0.72846937  1
  O  O348  1  0.41208275  0.09168381  0.23448510  1
  O  O349  1  0.39859588  0.09382733  0.72839376  1
  O  O350  1  0.41489253  0.43058122  0.22262439  1
  O  O351  1  0.40062257  0.42801740  0.73493835  1
  O  O352  1  0.40780713  0.76590556  0.22786512  1
  O  O353  1  0.41015961  0.75602537  0.73710904  1
  O  O354  1  0.74645953  0.09344497  0.23271439  1
  O  O355  1  0.73942240  0.09683016  0.71708826  1
  O  O356  1  0.73806267  0.42686314  0.20801758  1
  O  O357  1  0.74524317  0.42380268  0.73367266  1
  O  O358  1  0.74726225  0.76469811  0.22874442  1
  O  O359  1  0.72639325  0.76658993  0.73819592  1
