# generated using pymatgen
data_BaLaInIrO6
_symmetry_space_group_name_H-M   'P 1'
_cell_length_a   17.53752972
_cell_length_b   17.55053909
_cell_length_c   16.50332371
_cell_angle_alpha   89.98850879
_cell_angle_beta   89.97562420
_cell_angle_gamma   89.96020283
_symmetry_Int_Tables_number   1
_chemical_formula_structural   BaLaInIrO6
_chemical_formula_sum   'Ba36 La36 In36 Ir36 O216'
_cell_volume   5079.60739304
_cell_formula_units_Z   36
loop_
 _symmetry_equiv_pos_site_id
 _symmetry_equiv_pos_as_xyz
  1  'x, y, z'
loop_
 _atom_site_type_symbol
 _atom_site_label
 _atom_site_symmetry_multiplicity
 _atom_site_fract_x
 _atom_site_fract_y
 _atom_site_fract_z
 _atom_site_occupancy
  Ba  Ba0  1  0.82801774  0.67615586  0.62827358  1
  Ba  Ba1  1  0.82845935  0.01178718  0.12403338  1
  Ba  Ba2  1  0.33581346  0.17760692  0.12635588  1
  Ba  Ba3  1  -0.00104870  0.82967924  0.87404547  1
  Ba  Ba4  1  1.00100948  0.84646963  0.12699125  1
  Ba  Ba5  1  -0.00120480  0.49301392  0.88101492  1
  Ba  Ba6  1  0.50110001  0.65695041  0.87375419  1
  Ba  Ba7  1  0.66209708  0.15665582  0.37811519  1
  Ba  Ba8  1  0.83069242  0.00578070  0.62324002  1
  Ba  Ba9  1  0.49911430  0.00675678  0.62310607  1
  Ba  Ba10  1  0.00246136  0.16064835  0.87158414  1
  Ba  Ba11  1  0.33556723  0.50853326  0.62227083  1
  Ba  Ba12  1  0.33433056  0.82373660  0.87540087  1
  Ba  Ba13  1  0.99992677  0.50738995  0.12648624  1
  Ba  Ba14  1  0.50397437  0.32795914  0.38111238  1
  Ba  Ba15  1  0.49495258  0.00937539  0.12711847  1
  Ba  Ba16  1  0.32897654  0.15415970  0.87807184  1
  Ba  Ba17  1  0.99862473  0.84888247  0.62684453  1
  Ba  Ba18  1  0.66672061  0.82420057  0.37545898  1
  Ba  Ba19  1  -0.00433564  0.82339575  0.37631411  1
  Ba  Ba20  1  0.33705901  0.84270344  0.12806356  1
  Ba  Ba21  1  0.16237330  0.67613605  0.12392802  1
  Ba  Ba22  1  0.17125517  0.66046176  0.37227675  1
  Ba  Ba23  1  0.16735968  0.34324640  0.12273841  1
  Ba  Ba24  1  0.49844059  0.67708608  0.62508435  1
  Ba  Ba25  1  0.66526581  0.14955023  0.87383482  1
  Ba  Ba26  1  0.66637011  0.17142804  0.62990697  1
  Ba  Ba27  1  0.33504277  0.82477357  0.37688497  1
  Ba  Ba28  1  0.16615889  0.32658002  0.87956091  1
  Ba  Ba29  1  0.50417905  0.98880364  0.87278596  1
  Ba  Ba30  1  0.83418450  0.67583107  0.12397827  1
  Ba  Ba31  1  0.50524962  0.65687836  0.37045838  1
  Ba  Ba32  1  0.66992356  0.84774382  0.12734017  1
  Ba  Ba33  1  0.83115328  0.32127903  0.36980317  1
  Ba  Ba34  1  0.17022613  0.33979335  0.63015442  1
  Ba  Ba35  1  0.83219761  0.99475951  0.87473646  1
  La  La36  1  0.32868822  0.49309251  0.87061015  1
  La  La37  1  0.65937223  0.82512373  0.87667623  1
  La  La38  1  0.49572637  0.34516476  0.12827861  1
  La  La39  1  0.33691374  0.49416334  0.37443087  1
  La  La40  1  0.16122677  0.68070022  0.62655427  1
  La  La41  1  0.17033980  0.98569209  0.37518210  1
  La  La42  1  0.17173899  0.32294466  0.37402456  1
  La  La43  1  0.66591061  0.17637683  0.12454621  1
  La  La44  1  0.49693415  0.68279796  0.12276206  1
  La  La45  1  0.66000957  0.48092613  0.87230012  1
  La  La46  1  0.83028653  0.34216761  0.63006192  1
  La  La47  1  0.16859833  0.99107381  0.87166405  1
  La  La48  1  0.33219066  0.15369219  0.37673135  1
  La  La49  1  0.00088332  0.48572643  0.37351420  1
  La  La50  1  0.33648559  0.50951160  0.12428225  1
  La  La51  1  0.67340957  0.51518372  0.12630062  1
  La  La52  1  0.49578331  0.34838455  0.62565430  1
  La  La53  1  0.67041102  0.84870016  0.62578288  1
  La  La54  1  0.66760654  0.51260206  0.62137573  1
  La  La55  1  0.83217313  0.98943721  0.37523390  1
  La  La56  1  0.16337933  0.01708767  0.62190074  1
  La  La57  1  0.83903295  0.64902731  0.37306162  1
  La  La58  1  0.34238883  0.18421430  0.63132213  1
  La  La59  1  0.82812738  0.34009296  0.11811068  1
  La  La60  1  0.99983526  0.17698321  0.62601107  1
  La  La61  1  0.17292125  0.65059093  0.87623919  1
  La  La62  1  0.83679069  0.31219064  0.87292982  1
  La  La63  1  0.99992702  0.17431776  0.11992724  1
  La  La64  1  0.33955871  0.84390680  0.62410981  1
  La  La65  1  -0.00790076  0.15474286  0.36971800  1
  La  La66  1  0.50578678  0.31520993  0.87792252  1
  La  La67  1  1.01046049  0.51372123  0.62255524  1
  La  La68  1  0.66179125  0.48648622  0.37365798  1
  La  La69  1  0.17287557  -0.00114688  0.11372749  1
  La  La70  1  0.83322978  0.65726293  0.87945977  1
  La  La71  1  0.50718471  0.98358863  0.37547684  1
  In  In72  1  0.66513979  0.66645721  0.75034535  1
  In  In73  1  -0.00000501  0.66799523  -0.00211202  1
  In  In74  1  0.33455909  0.33339008  0.49702595  1
  In  In75  1  0.17007404  0.16818631  0.74743306  1
  In  In76  1  0.33807029  0.33453984  0.00030659  1
  In  In77  1  0.33421087  0.00334043  0.50298203  1
  In  In78  1  0.16761912  0.16509523  0.00259996  1
  In  In79  1  0.16552452  0.16434534  0.25224983  1
  In  In80  1  0.16669681  0.83516226  0.25049199  1
  In  In81  1  0.50406274  0.83314457  0.24989235  1
  In  In82  1  0.16634574  0.83291348  -0.00335829  1
  In  In83  1  -0.00145105  0.66559976  0.50071402  1
  In  In84  1  0.33395935  0.66739725  0.74762068  1
  In  In85  1  0.49952276  0.17030693  0.25331411  1
  In  In86  1  -0.00123143  0.00385943  -0.00242177  1
  In  In87  1  0.33562875  0.00364022  0.25402673  1
  In  In88  1  0.49918117  0.16292111  0.75164585  1
  In  In89  1  0.00056480  0.00327005  0.49733613  1
  In  In90  1  0.83169442  0.49891449  0.75168776  1
  In  In91  1  0.83040154  0.83511267  -0.00262926  1
  In  In92  1  0.83423887  0.83243179  0.25000372  1
  In  In93  1  -0.00393089  0.33510241  0.74815858  1
  In  In94  1  0.82803978  0.49685274  -0.00261314  1
  In  In95  1  0.16828606  0.49951596  0.49758627  1
  In  In96  1  0.50383552  0.49973345  0.00041530  1
  In  In97  1  0.66639199  0.33204512  0.50620728  1
  In  In98  1  0.16718236  0.49915550  0.74787760  1
  In  In99  1  0.83216454  0.49453332  0.25128323  1
  In  In100  1  0.83041184  0.83041826  0.49951117  1
  In  In101  1  0.00141820  0.33013949  0.24913745  1
  In  In102  1  0.33521791  0.66358816  0.24937468  1
  In  In103  1  0.83326699  0.16634518  0.49935283  1
  In  In104  1  0.16780177  0.83513351  0.50290458  1
  In  In105  1  0.33489311  0.66542910  -0.00026278  1
  In  In106  1  0.83555729  0.49548460  0.50185557  1
  In  In107  1  -0.00144985  0.66916310  0.75259788  1
  Ir  Ir108  1  0.33570665  0.34080982  0.25183230  1
  Ir  Ir109  1  0.66638213  0.00669670  0.25203807  1
  Ir  Ir110  1  -0.00594810  0.33090064  0.00014155  1
  Ir  Ir111  1  0.50649729  0.49682419  0.24758979  1
  Ir  Ir112  1  0.66354996  0.32961450  -0.00070908  1
  Ir  Ir113  1  0.50131903  0.83520167  0.74849200  1
  Ir  Ir114  1  0.00104526  0.00337082  0.74480074  1
  Ir  Ir115  1  0.82983584  0.17023003  0.00177194  1
  Ir  Ir116  1  0.49649922  0.16815362  0.50340517  1
  Ir  Ir117  1  0.00186022  0.33009081  0.49878850  1
  Ir  Ir118  1  0.66280052  0.00366486  0.00236311  1
  Ir  Ir119  1  0.66445367  0.66683547  0.00110142  1
  Ir  Ir120  1  0.33692243  -0.00234584  -0.00496762  1
  Ir  Ir121  1  0.83039939  0.16685670  0.24723408  1
  Ir  Ir122  1  0.50224325  0.83061291  0.50471514  1
  Ir  Ir123  1  0.83366610  0.16331319  0.74999201  1
  Ir  Ir124  1  -0.00130260  0.00922953  0.25009111  1
  Ir  Ir125  1  0.50308424  0.50337315  0.49833459  1
  Ir  Ir126  1  0.66420050  0.33230772  0.75233576  1
  Ir  Ir127  1  0.16477037  0.17093473  0.49840567  1
  Ir  Ir128  1  0.66762367  -0.00409970  0.75057851  1
  Ir  Ir129  1  0.16815922  0.49788952  0.24979249  1
  Ir  Ir130  1  0.16906322  0.83635730  0.74699609  1
  Ir  Ir131  1  0.66551900  0.66609141  0.49782197  1
  Ir  Ir132  1  0.32936989  -0.00475297  0.74910686  1
  Ir  Ir133  1  0.16826247  0.49642920  0.00074451  1
  Ir  Ir134  1  0.50294871  0.83450168  -0.00324803  1
  Ir  Ir135  1  0.50337680  0.16635145  0.00151419  1
  Ir  Ir136  1  0.66213915  0.00039225  0.50007660  1
  Ir  Ir137  1  0.34121411  0.33569883  0.75081638  1
  Ir  Ir138  1  0.33629021  0.66363502  0.49949425  1
  Ir  Ir139  1  0.00211775  0.66214598  0.25347236  1
  Ir  Ir140  1  0.50068786  0.49453979  0.75111420  1
  Ir  Ir141  1  0.66770201  0.66224449  0.24931843  1
  Ir  Ir142  1  0.82742138  0.83660704  0.75121573  1
  Ir  Ir143  1  0.66376024  0.33255627  0.24435829  1
  O  O144  1  0.31861082  0.33711485  0.13349379  1
  O  O145  1  0.32073454  0.32647455  0.62800988  1
  O  O146  1  0.31305754  0.64631306  0.12396221  1
  O  O147  1  0.30392464  0.66335441  0.61993927  1
  O  O148  1  0.31244440  0.99997141  0.11788463  1
  O  O149  1  0.30176350  0.98828690  0.62947372  1
  O  O150  1  0.63183537  0.31842006  0.12128701  1
  O  O151  1  0.62952617  0.32840743  0.63399195  1
  O  O152  1  0.63289692  0.65208572  0.12474474  1
  O  O153  1  0.64397014  0.65405155  0.61768837  1
  O  O154  1  0.64209073  1.01587697  0.12800365  1
  O  O155  1  0.64404025  0.98730665  0.62546110  1
  O  O156  1  0.96490890  0.32347098  0.12060654  1
  O  O157  1  0.96670575  0.31793894  0.61788503  1
  O  O158  1  0.98421688  0.66182508  0.13421629  1
  O  O159  1  0.97462168  0.64915414  0.62747435  1
  O  O160  1  0.97831028  1.01031148  0.13186920  1
  O  O161  1  0.97976017  1.00920071  0.62703171  1
  O  O162  1  0.18952762  0.14030076  0.12859581  1
  O  O163  1  0.20397650  0.16004385  0.61800976  1
  O  O164  1  0.19947989  0.49627108  0.12566423  1
  O  O165  1  0.18721862  0.49043248  0.62288704  1
  O  O166  1  0.18308314  0.85131003  0.12443759  1
  O  O167  1  0.20240028  0.82141506  0.63002872  1
  O  O168  1  0.52805622  0.16667541  0.12253304  1
  O  O169  1  0.51424195  0.16449064  0.62251255  1
  O  O170  1  0.54028049  0.48221245  0.12906598  1
  O  O171  1  0.53294297  0.48969314  0.62536144  1
  O  O172  1  0.52114003  0.82939686  0.11698591  1
  O  O173  1  0.53217225  0.83428028  0.62744157  1
  O  O174  1  0.86032209  0.17255445  0.12415575  1
  O  O175  1  0.86319137  0.16111934  0.62902443  1
  O  O176  1  0.84623347  0.48073973  0.12411530  1
  O  O177  1  0.87286574  0.48419564  0.62685031  1
  O  O178  1  0.84744086  0.83301602  0.12592718  1
  O  O179  1  0.84721130  0.83385372  0.63112008  1
  O  O180  1  0.13000575  0.18346885  0.38191323  1
  O  O181  1  0.15610723  0.16206045  0.87357127  1
  O  O182  1  0.13748302  0.50092965  0.36890934  1
  O  O183  1  0.14846054  0.50236837  0.87977685  1
  O  O184  1  0.14323426  0.84697713  0.37632115  1
  O  O185  1  0.14842797  0.85434881  0.86520186  1
  O  O186  1  0.46987739  0.17493814  0.38450073  1
  O  O187  1  0.47968423  0.17460360  0.87990438  1
  O  O188  1  0.47402458  0.50383678  0.37279514  1
  O  O189  1  0.46836077  0.49660337  0.87062364  1
  O  O190  1  0.48637299  0.83636660  0.38326136  1
  O  O191  1  0.48270412  0.83302872  0.87239807  1
  O  O192  1  0.81025097  0.16862786  0.36698192  1
  O  O193  1  0.80840513  0.17674496  0.87654886  1
  O  O194  1  0.79731882  0.50271191  0.37568591  1
  O  O195  1  0.79058716  0.51040651  0.87601393  1
  O  O196  1  0.81552205  0.84943663  0.37272390  1
  O  O197  1  0.79527295  0.83792746  0.86918501  1
  O  O198  1  0.03246622  0.01607710  0.36938374  1
  O  O199  1  0.03107213  0.00440922  0.86382691  1
  O  O200  1  0.03463966  0.34089137  0.38041722  1
  O  O201  1  0.01497001  0.33145669  0.88040321  1
  O  O202  1  0.02204589  0.66193718  0.37079794  1
  O  O203  1  0.03969568  0.66954175  0.87337319  1
  O  O204  1  0.37375277  0.01637209  0.38310956  1
  O  O205  1  0.35602355  -0.00045782  0.87066631  1
  O  O206  1  0.35737509  0.35331384  0.37001251  1
  O  O207  1  0.37028311  0.34698039  0.87109440  1
  O  O208  1  0.35698864  0.65996485  0.37948474  1
  O  O209  1  0.35290563  0.65890439  0.87414390  1
  O  O210  1  0.69397831  0.00359988  0.37597261  1
  O  O211  1  0.68351417  -0.00855930  0.87525512  1
  O  O212  1  0.68275994  0.34520433  0.36867776  1
  O  O213  1  0.69899230  0.34215838  0.87603595  1
  O  O214  1  0.69909829  0.66583623  0.37223671  1
  O  O215  1  0.69356473  0.67772502  0.88006085  1
  O  O216  1  0.06725114  0.09937943  0.02373157  1
  O  O217  1  0.07329316  0.10598692  0.52672817  1
  O  O218  1  0.07072605  0.42219967  0.01986121  1
  O  O219  1  0.06032555  0.42917638  0.51788044  1
  O  O220  1  0.06932256  0.76412467  0.01734524  1
  O  O221  1  0.07827862  0.75657220  0.52584640  1
  O  O222  1  0.40816397  0.09635540  0.01537925  1
  O  O223  1  0.39663493  0.10855219  0.52413381  1
  O  O224  1  0.41169330  0.42676205  0.03371198  1
  O  O225  1  0.41673334  0.42647464  0.51580160  1
  O  O226  1  0.41587595  0.75999718  0.01873955  1
  O  O227  1  0.40507691  0.76150738  0.52645354  1
  O  O228  1  0.73192003  0.10337424  0.02295735  1
  O  O229  1  0.73592363  0.08774019  0.51615622  1
  O  O230  1  0.72626578  0.42324856  0.02511406  1
  O  O231  1  0.74079788  0.42549357  0.53670904  1
  O  O232  1  0.72986413  0.75805228  0.01590661  1
  O  O233  1  0.72753161  0.76123010  0.52366938  1
  O  O234  1  0.08086036  0.25802360  0.02338461  1
  O  O235  1  0.09699794  0.26412483  0.52328504  1
  O  O236  1  0.09655505  0.58396904  0.01354726  1
  O  O237  1  0.09683065  0.59362179  0.52779782  1
  O  O238  1  0.10458271  0.94080388  0.00538225  1
  O  O239  1  0.10072641  0.93923919  0.52264609  1
  O  O240  1  0.44217797  0.26481845  0.01870933  1
  O  O241  1  0.43127693  0.26185196  0.52825065  1
  O  O242  1  0.43465119  0.59389358  0.02941216  1
  O  O243  1  0.42959613  0.59268186  0.51625822  1
  O  O244  1  0.43175827  0.92648037  0.01403136  1
  O  O245  1  0.42581594  0.91559715  0.52187063  1
  O  O246  1  0.75936367  0.26335348  0.02511792  1
  O  O247  1  0.76682629  0.26451530  0.52463415  1
  O  O248  1  0.75010712  0.59479327  0.02361750  1
  O  O249  1  0.75395518  0.59484805  0.51543328  1
  O  O250  1  0.75048278  0.93302256  0.01532304  1
  O  O251  1  0.74755754  0.92457810  0.51556636  1
  O  O252  1  0.24089319  0.07922506  0.29384088  1
  O  O253  1  0.23481440  0.06063899  0.76313927  1
  O  O254  1  0.23586427  0.40390647  0.27617241  1
  O  O255  1  0.25389476  0.40870086  0.77395033  1
  O  O256  1  0.24613374  0.74336851  0.26112195  1
  O  O257  1  0.22815799  0.73798119  0.77106504  1
  O  O258  1  0.57048617  0.06883383  0.27596242  1
  O  O259  1  0.57821971  0.06938857  0.76051165  1
  O  O260  1  0.57381832  0.40408817  0.27038486  1
  O  O261  1  0.56974744  0.39972385  0.77997567  1
  O  O262  1  0.58010863  0.73484942  0.25744219  1
  O  O263  1  0.57353069  0.74605246  0.76870180  1
  O  O264  1  0.89769709  0.07152914  0.27663036  1
  O  O265  1  0.90839486  0.07288961  0.77113069  1
  O  O266  1  0.91576882  0.40982688  0.27614503  1
  O  O267  1  0.89082186  0.39377135  0.77211921  1
  O  O268  1  0.90678459  0.72775309  0.27500634  1
  O  O269  1  0.89403686  0.74481943  0.77617460  1
  O  O270  1  0.26786402  0.24770338  0.28029303  1
  O  O271  1  0.26989983  0.24521086  0.76059198  1
  O  O272  1  0.26721972  0.55733450  0.26844187  1
  O  O273  1  0.25988076  0.57326459  0.77654596  1
  O  O274  1  0.25432538  0.91927470  0.27734949  1
  O  O275  1  0.26352504  0.90210400  0.76607872  1
  O  O276  1  0.59875779  0.24069518  0.26205229  1
  O  O277  1  0.59211131  0.24554832  0.77558089  1
  O  O278  1  0.60508960  0.56028951  0.26823208  1
  O  O279  1  0.59310549  0.56113098  0.77342537  1
  O  O280  1  0.59598309  0.91564937  0.26992834  1
  O  O281  1  0.60088312  0.89886652  0.76811443  1
  O  O282  1  0.92676880  0.23042399  0.26864460  1
  O  O283  1  0.91819893  0.23703632  0.76530880  1
  O  O284  1  0.92961917  0.57106309  0.27639081  1
  O  O285  1  0.91406334  0.58308490  0.78461720  1
  O  O286  1  0.93106502  0.91863530  0.27078918  1
  O  O287  1  0.92272365  0.90879640  0.76681471  1
  O  O288  1  0.25954594  0.23603861  0.47150637  1
  O  O289  1  0.25818896  0.24595496  0.99014818  1
  O  O290  1  0.27187958  0.56908792  0.47510556  1
  O  O291  1  0.25976588  0.56369782  0.97689197  1
  O  O292  1  0.25953053  0.91256823  0.48184452  1
  O  O293  1  0.26758121  0.90971525  0.98290583  1
  O  O294  1  0.58885585  0.23695001  0.48881376  1
  O  O295  1  0.59548392  0.23645092  0.97799605  1
  O  O296  1  0.60193245  0.56871662  0.47519178  1
  O  O297  1  0.60409375  0.56793221  0.97661850  1
  O  O298  1  0.58774500  0.91003013  0.47947423  1
  O  O299  1  0.59821715  0.90363014  0.97827213  1
  O  O300  1  0.94143774  0.23325228  0.47826981  1
  O  O301  1  0.92170559  0.24136065  0.97722415  1
  O  O302  1  0.92896865  0.56502475  0.46821505  1
  O  O303  1  0.91628226  0.57858114  0.98206347  1
  O  O304  1  0.91974323  0.91360395  0.48396633  1
  O  O305  1  0.92360085  0.91249480  0.98462178  1
  O  O306  1  0.22911896  0.07676895  0.47445737  1
  O  O307  1  0.24047865  0.05998139  0.97845203  1
  O  O308  1  0.23809831  0.40256758  0.47136842  1
  O  O309  1  0.24632322  0.41492962  0.97942878  1
  O  O310  1  0.24854031  0.73455935  0.48600551  1
  O  O311  1  0.23470289  0.73346523  0.97452743  1
  O  O312  1  0.56198589  0.07037471  0.47779386  1
  O  O313  1  0.57048651  0.07273481  0.98482798  1
  O  O314  1  0.57883031  0.41782824  0.48402866  1
  O  O315  1  0.57252039  0.39784008  0.97037527  1
  O  O316  1  0.57446159  0.73734907  0.48355636  1
  O  O317  1  0.57415657  0.74087514  0.97915057  1
  O  O318  1  0.90664224  0.07581171  0.46528360  1
  O  O319  1  0.90196129  0.08444492  0.98429385  1
  O  O320  1  0.91122184  0.39566567  0.47686577  1
  O  O321  1  0.89688206  0.39430564  0.97875040  1
  O  O322  1  0.89553062  0.72936983  0.47486264  1
  O  O323  1  0.89754218  0.73596061  0.97195005  1
  O  O324  1  0.09552299  0.25993238  0.22966952  1
  O  O325  1  0.08371032  0.25227356  0.72719979  1
  O  O326  1  0.09745115  0.59096501  0.23121961  1
  O  O327  1  0.09829892  0.59857917  0.72382828  1
  O  O328  1  0.09623976  0.95044879  0.23040904  1
  O  O329  1  0.10250108  0.93651725  0.72182843  1
  O  O330  1  0.43175985  0.27683910  0.23193244  1
  O  O331  1  0.43111182  0.26437969  0.72764652  1
  O  O332  1  0.44032127  0.58716797  0.21992980  1
  O  O333  1  0.43081693  0.58414482  0.73088661  1
  O  O334  1  0.42910875  0.92661921  0.24585458  1
  O  O335  1  0.42216218  0.92232865  0.72480662  1
  O  O336  1  0.76014184  0.26355259  0.21734220  1
  O  O337  1  0.76311157  0.26471650  0.72849537  1
  O  O338  1  0.75579754  0.59068936  0.23018810  1
  O  O339  1  0.74840888  0.58414052  0.72196217  1
  O  O340  1  0.75722376  0.93897056  0.24130567  1
  O  O341  1  0.75500076  0.92398021  0.72669503  1
  O  O342  1  0.05363845  0.10856414  0.23579980  1
  O  O343  1  0.07276218  0.09121873  0.71819668  1
  O  O344  1  0.07782188  0.42987056  0.23537470  1
  O  O345  1  0.06338837  0.43342775  0.72896535  1
  O  O346  1  0.06925865  0.75543072  0.23780564  1
  O  O347  1  0.07956727  0.76768408  0.72563720  1
  O  O348  1  0.40025481  0.10562144  0.24307608  1
  O  O349  1  0.39424996  0.09315249  0.72926742  1
  O  O350  1  0.40543149  0.43565760  0.22521498  1
  O  O351  1  0.41461266  0.42167671  0.72259584  1
  O  O352  1  0.41981736  0.74877091  0.22762049  1
  O  O353  1  0.40571208  0.76780360  0.72559557  1
  O  O354  1  0.73188726  0.10397933  0.22730489  1
  O  O355  1  0.74124387  0.08940127  0.73444789  1
  O  O356  1  0.73131994  0.42296920  0.22330383  1
  O  O357  1  0.72880044  0.42317982  0.72422798  1
  O  O358  1  0.73668591  0.75198077  0.23482978  1
  O  O359  1  0.73402682  0.76937654  0.72965633  1
