# generated using pymatgen
data_BaLaInIrO6
_symmetry_space_group_name_H-M   'P 1'
_cell_length_a   17.52044184
_cell_length_b   17.54064150
_cell_length_c   16.47309378
_cell_angle_alpha   89.99872202
_cell_angle_beta   90.00440090
_cell_angle_gamma   89.94929266
_symmetry_Int_Tables_number   1
_chemical_formula_structural   BaLaInIrO6
_chemical_formula_sum   'Ba36 La36 In36 Ir36 O216'
_cell_volume   5062.50570968
_cell_formula_units_Z   36
loop_
 _symmetry_equiv_pos_site_id
 _symmetry_equiv_pos_as_xyz
  1  'x, y, z'
loop_
 _atom_site_type_symbol
 _atom_site_label
 _atom_site_symmetry_multiplicity
 _atom_site_fract_x
 _atom_site_fract_y
 _atom_site_fract_z
 _atom_site_occupancy
  Ba  Ba0  1  0.83458029  0.67304730  0.12548563  1
  Ba  Ba1  1  0.83320320  0.32396514  0.37741126  1
  Ba  Ba2  1  0.83600003  0.99097984  0.37809025  1
  Ba  Ba3  1  0.17008685  0.65268083  0.37428755  1
  Ba  Ba4  1  0.50080231  0.32560296  0.37631213  1
  Ba  Ba5  1  0.16269089  0.67516906  0.12638976  1
  Ba  Ba6  1  0.49834385  0.65527895  0.37391043  1
  Ba  Ba7  1  0.00128527  0.48795797  0.37765139  1
  Ba  Ba8  1  0.33256253  0.82529983  0.86913447  1
  Ba  Ba9  1  0.16861207  0.99085810  0.37774887  1
  Ba  Ba10  1  0.16471873  0.01218382  0.62436840  1
  Ba  Ba11  1  0.33298587  0.17311726  0.12244683  1
  Ba  Ba12  1  0.50192282  0.99219651  0.37471216  1
  Ba  Ba13  1  0.83422214  0.34097418  0.12520985  1
  Ba  Ba14  1  0.49959217  0.67254820  0.62239704  1
  Ba  Ba15  1  0.83420929  0.65941364  0.87439466  1
  Ba  Ba16  1  1.00175601  0.83906421  0.12279993  1
  Ba  Ba17  1  0.16878718  0.99207915  0.87334138  1
  Ba  Ba18  1  0.16896968  0.66001653  0.87932555  1
  Ba  Ba19  1  -0.00611248  0.15927270  0.87692163  1
  Ba  Ba20  1  0.83178352  0.32662353  0.87888451  1
  Ba  Ba21  1  0.83080792  0.01778202  0.62414660  1
  Ba  Ba22  1  0.66097682  0.81826684  0.87235847  1
  Ba  Ba23  1  0.17111039  0.32446367  0.37333366  1
  Ba  Ba24  1  0.33217810  0.82736631  0.37673638  1
  Ba  Ba25  1  0.67152713  0.84125120  0.12447752  1
  Ba  Ba26  1  0.33538909  0.16099175  0.36981934  1
  Ba  Ba27  1  1.00021924  0.50643884  0.12739102  1
  Ba  Ba28  1  0.33594983  0.49366555  0.87637392  1
  Ba  Ba29  1  0.49985679  0.00994557  0.62474135  1
  Ba  Ba30  1  0.50314340  0.98853574  0.87207463  1
  Ba  Ba31  1  0.33266015  0.49077243  0.37906501  1
  Ba  Ba32  1  0.66188479  0.82483147  0.37573979  1
  Ba  Ba33  1  0.33020602  0.83675690  0.12251372  1
  Ba  Ba34  1  0.49903713  0.34013249  0.12416279  1
  Ba  Ba35  1  0.82862724  0.67727762  0.62325678  1
  La  La36  1  0.66549374  0.15363553  0.87244640  1
  La  La37  1  0.33277834  0.51078926  0.12804978  1
  La  La38  1  1.00364534  0.18786862  0.62248939  1
  La  La39  1  0.67016245  0.17982951  0.12542600  1
  La  La40  1  0.17025197  0.34594747  0.62030198  1
  La  La41  1  0.50168635  0.65423845  0.87648485  1
  La  La42  1  0.66342704  0.48706900  0.87377639  1
  La  La43  1  0.16203852  0.67872871  0.62094578  1
  La  La44  1  1.00410016  0.18068783  0.13200972  1
  La  La45  1  0.33679229  0.17313438  0.62112411  1
  La  La46  1  0.82970332  0.01741490  0.12230864  1
  La  La47  1  1.00321911  0.51228563  0.62250683  1
  La  La48  1  0.66773408  0.51391758  0.62519893  1
  La  La49  1  0.16334451  0.00845740  0.13097201  1
  La  La50  1  0.83915782  0.98443134  0.87531228  1
  La  La51  1  0.33328545  0.84723300  0.62362886  1
  La  La52  1  0.66077105  0.48987164  0.37338580  1
  La  La53  1  -0.00413726  0.81537249  0.37778282  1
  La  La54  1  0.65778825  0.15280548  0.37991206  1
  La  La55  1  0.49528036  0.34986058  0.62476278  1
  La  La56  1  0.67055001  0.18550783  0.62440635  1
  La  La57  1  0.67445956  0.51324876  0.12559421  1
  La  La58  1  -0.00151521  0.15893849  0.37683412  1
  La  La59  1  0.32911320  0.15509328  0.87502550  1
  La  La60  1  0.49511225  0.67904706  0.12503168  1
  La  La61  1  0.33431049  0.51331171  0.62481412  1
  La  La62  1  0.67303716  0.85548631  0.62271808  1
  La  La63  1  0.49406614  0.00706159  0.12442980  1
  La  La64  1  0.50735620  0.31830254  0.87336923  1
  La  La65  1  -0.00168949  0.48707350  0.87590504  1
  La  La66  1  0.83736407  0.65679286  0.37226866  1
  La  La67  1  -0.00555222  0.81902465  0.87315668  1
  La  La68  1  0.17327877  0.32452957  0.87601458  1
  La  La69  1  0.16332276  0.34844465  0.12829753  1
  La  La70  1  1.00140161  0.84992965  0.62443756  1
  La  La71  1  0.83044513  0.34430963  0.62666348  1
  In  In72  1  0.66633717  0.00079939  -0.00209578  1
  In  In73  1  0.00308125  0.33100653  -0.00101073  1
  In  In74  1  0.83231697  0.83354482  0.00055949  1
  In  In75  1  0.33284408  0.33369273  0.24699660  1
  In  In76  1  0.16471210  0.16741057  0.00114093  1
  In  In77  1  0.83293012  0.49849223  -0.00212257  1
  In  In78  1  0.33315281  0.00473841  0.49919948  1
  In  In79  1  0.50143486  0.83257839  0.50256491  1
  In  In80  1  0.33386625  0.00312514  0.74872777  1
  In  In81  1  0.16413845  0.83699539  -0.00116701  1
  In  In82  1  0.83013026  0.83218094  0.74762963  1
  In  In83  1  0.16574347  0.49973516  0.75167515  1
  In  In84  1  0.66747655  0.66762144  0.49849420  1
  In  In85  1  0.50256943  0.49932417  0.24460472  1
  In  In86  1  0.33136171  0.66695361  0.50203451  1
  In  In87  1  0.83178810  0.16850343  0.25368653  1
  In  In88  1  0.16515885  0.17199991  0.74914545  1
  In  In89  1  -0.00209665  0.00358728  0.75057431  1
  In  In90  1  0.50112686  0.16646570  -0.00438134  1
  In  In91  1  0.33233381  0.66661839  0.25005643  1
  In  In92  1  -0.00187951  -0.00169952  0.25212281  1
  In  In93  1  0.83508426  0.83450508  0.25132173  1
  In  In94  1  0.33652314  0.33401220  0.75282335  1
  In  In95  1  0.83359346  0.49727667  0.25198044  1
  In  In96  1  0.00114896  0.66380700  -0.00085769  1
  In  In97  1  0.33259663  -0.00242312  0.24730035  1
  In  In98  1  0.50082830  0.82921517  0.74553511  1
  In  In99  1  -0.00045071  0.00321602  0.50009504  1
  In  In100  1  0.83303381  0.17090485  0.75140775  1
  In  In101  1  0.83242295  0.49865208  0.50086927  1
  In  In102  1  0.83430348  0.50007618  0.75022039  1
  In  In103  1  0.33339073  0.66505468  -0.00187585  1
  In  In104  1  0.50334955  0.16720634  0.24838726  1
  In  In105  1  0.66698514  0.00155883  0.24640385  1
  In  In106  1  0.49970327  0.83226954  -0.00119891  1
  In  In107  1  0.16428934  0.83207741  0.74775703  1
  Ir  Ir108  1  0.33249932  0.33076911  0.50469550  1
  Ir  Ir109  1  0.16272548  0.83408413  0.25320222  1
  Ir  Ir110  1  0.66224005  0.33554291  0.74869129  1
  Ir  Ir111  1  0.50411908  0.17244001  0.74753339  1
  Ir  Ir112  1  0.83152276  0.16754893  0.00176173  1
  Ir  Ir113  1  0.66510871  0.33287512  -0.00212345  1
  Ir  Ir114  1  0.66360301  0.66015033  0.75156970  1
  Ir  Ir115  1  0.16838538  0.49560185  0.00151582  1
  Ir  Ir116  1  0.00408952  0.33027768  0.25494100  1
  Ir  Ir117  1  0.66237455  0.65869279  -0.00115767  1
  Ir  Ir118  1  0.66743807  0.33447053  0.25088748  1
  Ir  Ir119  1  0.66839918  0.00756494  0.74673250  1
  Ir  Ir120  1  0.00225920  0.66470890  0.25818916  1
  Ir  Ir121  1  0.16701413  0.17435772  0.50009273  1
  Ir  Ir122  1  0.50011531  0.49941624  0.75035883  1
  Ir  Ir123  1  0.33262695  0.00198083  0.00015574  1
  Ir  Ir124  1  -0.00131819  0.66621518  0.50221850  1
  Ir  Ir125  1  0.50098959  0.49284685  0.50451461  1
  Ir  Ir126  1  0.50416064  0.49648986  -0.00145625  1
  Ir  Ir127  1  0.83402005  0.83228427  0.50009908  1
  Ir  Ir128  1  -0.00370076  0.00393636  0.00185999  1
  Ir  Ir129  1  0.50387754  0.83027313  0.24770281  1
  Ir  Ir130  1  0.00145983  0.66512628  0.74275101  1
  Ir  Ir131  1  0.50583880  0.17254247  0.50611713  1
  Ir  Ir132  1  0.66471227  0.33460172  0.50531090  1
  Ir  Ir133  1  0.67023362  0.00646846  0.50409369  1
  Ir  Ir134  1  0.66677122  0.66511425  0.24795689  1
  Ir  Ir135  1  0.33227118  0.66224351  0.74646665  1
  Ir  Ir136  1  0.16285534  0.82962510  0.50131018  1
  Ir  Ir137  1  0.00154009  0.33758067  0.74490813  1
  Ir  Ir138  1  0.33625022  0.33724202  -0.00257880  1
  Ir  Ir139  1  0.83188148  0.17371926  0.50145838  1
  Ir  Ir140  1  0.16715618  0.49486154  0.50307501  1
  Ir  Ir141  1  -0.00044309  0.33217099  0.50163065  1
  Ir  Ir142  1  0.16354163  0.16644650  0.25000191  1
  Ir  Ir143  1  0.16541099  0.49635747  0.25159051  1
  O  O144  1  0.30206617  0.33287204  0.11458587  1
  O  O145  1  0.30792397  0.31912067  0.62456759  1
  O  O146  1  0.31438793  0.64959947  0.12483065  1
  O  O147  1  0.30066313  0.65037823  0.62785167  1
  O  O148  1  0.30052318  0.99863032  0.11969852  1
  O  O149  1  0.31513908  1.02080249  0.62273222  1
  O  O150  1  0.64516205  0.31557648  0.12503123  1
  O  O151  1  0.63194093  0.32089872  0.62745153  1
  O  O152  1  0.63366901  0.65330067  0.12304341  1
  O  O153  1  0.64630447  0.65143430  0.63181318  1
  O  O154  1  0.62838130  1.00373321  0.12224918  1
  O  O155  1  0.64791393  0.99784630  0.62520018  1
  O  O156  1  0.98527929  0.32522403  0.13423384  1
  O  O157  1  0.96718544  0.32856134  0.62337102  1
  O  O158  1  0.98588912  0.66322162  0.13651221  1
  O  O159  1  0.97582173  0.64920010  0.62272445  1
  O  O160  1  0.96565461  0.99758537  0.12042811  1
  O  O161  1  0.97637057  0.98901175  0.62191446  1
  O  O162  1  0.18366859  0.15312543  0.12956606  1
  O  O163  1  0.19797939  0.17791550  0.61929871  1
  O  O164  1  0.19555864  0.48866694  0.12552697  1
  O  O165  1  0.19464656  0.48607741  0.62230386  1
  O  O166  1  0.17697207  0.83735905  0.13244301  1
  O  O167  1  0.19388106  0.81777334  0.61943074  1
  O  O168  1  0.53370209  0.15880962  0.12019771  1
  O  O169  1  0.53596476  0.16943750  0.62711860  1
  O  O170  1  0.53883512  0.49096872  0.11545056  1
  O  O171  1  0.53111293  0.48857987  0.62890402  1
  O  O172  1  0.52367345  0.82053957  0.12838982  1
  O  O173  1  0.54157810  0.82580886  0.62641603  1
  O  O174  1  0.86542933  0.16065195  0.12085914  1
  O  O175  1  0.86305400  0.17859181  0.62138434  1
  O  O176  1  0.84715426  0.50029040  0.12560338  1
  O  O177  1  0.86521100  0.48584568  0.62631239  1
  O  O178  1  0.85140350  0.82597849  0.12568063  1
  O  O179  1  0.86235369  0.83419228  0.61968121  1
  O  O180  1  0.13424124  0.17198690  0.37492962  1
  O  O181  1  0.14092729  0.18884444  0.87650898  1
  O  O182  1  0.14671709  0.49683720  0.37617313  1
  O  O183  1  0.13661180  0.49685534  0.88038911  1
  O  O184  1  0.13335967  0.83550611  0.37823898  1
  O  O185  1  0.13190012  0.83646040  0.87172710  1
  O  O186  1  0.48816913  0.17153711  0.38642902  1
  O  O187  1  0.46855216  0.18042890  0.86675696  1
  O  O188  1  0.48711337  0.49422535  0.38209927  1
  O  O189  1  0.48140871  0.51438444  0.87424739  1
  O  O190  1  0.48514657  0.83468659  0.36852826  1
  O  O191  1  0.48441430  0.82317746  0.87083995  1
  O  O192  1  0.79749339  0.17109588  0.38268747  1
  O  O193  1  0.80201687  0.17434097  0.88058156  1
  O  O194  1  0.79987300  0.50740734  0.37575664  1
  O  O195  1  0.80017165  0.49618601  0.87279367  1
  O  O196  1  0.81220617  0.82616236  0.38206598  1
  O  O197  1  0.80887814  0.84492331  0.87395760  1
  O  O198  1  0.02119968  0.02285257  0.37846743  1
  O  O199  1  0.02068619  0.00943314  0.88346341  1
  O  O200  1  0.02361740  0.32660295  0.37965092  1
  O  O201  1  0.03517021  0.34423494  0.86569620  1
  O  O202  1  0.02384074  0.67685170  0.38188805  1
  O  O203  1  0.02233105  0.67747639  0.86071303  1
  O  O204  1  0.34834602  0.00106076  0.37390850  1
  O  O205  1  0.35572327  0.01080572  0.87934429  1
  O  O206  1  0.34852959  0.33659426  0.38278481  1
  O  O207  1  0.37154583  0.34344869  0.87945087  1
  O  O208  1  0.34641720  0.66291598  0.37615391  1
  O  O209  1  0.36387867  0.66568268  0.86699178  1
  O  O210  1  0.68861354  0.01330895  0.38352725  1
  O  O211  1  0.70148091  0.01471183  0.86538012  1
  O  O212  1  0.68650632  0.35500235  0.37873835  1
  O  O213  1  0.68592256  0.35003079  0.87284978  1
  O  O214  1  0.69789357  0.66386651  0.36812712  1
  O  O215  1  0.68501779  0.65510886  0.87579010  1
  O  O216  1  0.06136411  0.09755719  0.02929140  1
  O  O217  1  0.07189780  0.11041254  0.52247587  1
  O  O218  1  0.08339195  0.42305843  0.02138480  1
  O  O219  1  0.06967873  0.42665972  0.52932200  1
  O  O220  1  0.07354990  0.75799277  0.00852046  1
  O  O221  1  0.06633776  0.76141366  0.52760964  1
  O  O222  1  0.40964904  0.08593924  0.01877546  1
  O  O223  1  0.41137411  0.10760309  0.52174154  1
  O  O224  1  0.40421202  0.43349806  0.02557799  1
  O  O225  1  0.40261386  0.42448509  0.53303570  1
  O  O226  1  0.41598205  0.74933949  0.02411934  1
  O  O227  1  0.39946799  0.76290772  0.52738415  1
  O  O228  1  0.74006383  0.10249073  0.02544942  1
  O  O229  1  0.73444020  0.10907652  0.52444637  1
  O  O230  1  0.72951622  0.42600661  0.02188530  1
  O  O231  1  0.73331590  0.42464859  0.53263508  1
  O  O232  1  0.73137696  0.74993578  0.01129047  1
  O  O233  1  0.73833863  0.76907247  0.52538906  1
  O  O234  1  0.09763541  0.26329194  0.03111735  1
  O  O235  1  0.09550519  0.26622897  0.52842749  1
  O  O236  1  0.09674010  0.58335312  0.01723770  1
  O  O237  1  0.09492463  0.59182192  0.52814293  1
  O  O238  1  0.09271727  0.94267145  0.02496063  1
  O  O239  1  0.09204703  0.91763893  0.52089359  1
  O  O240  1  0.42582325  0.26573210  0.01185550  1
  O  O241  1  0.43155414  0.26409343  0.53210918  1
  O  O242  1  0.43823462  0.58801124  0.02159187  1
  O  O243  1  0.42509718  0.57857722  0.52177866  1
  O  O244  1  0.42331984  0.93086968  0.02382844  1
  O  O245  1  0.41950115  0.92096931  0.52445603  1
  O  O246  1  0.75698411  0.25839013  0.02483431  1
  O  O247  1  0.76217702  0.26894719  0.52936300  1
  O  O248  1  0.75121747  0.58963942  0.02007532  1
  O  O249  1  0.75449369  0.58831502  0.52279155  1
  O  O250  1  0.77063536  0.94021786  0.01847508  1
  O  O251  1  0.76206836  0.92714596  0.52456932  1
  O  O252  1  0.23180065  0.07512930  0.26232119  1
  O  O253  1  0.24466244  0.08312540  0.77391175  1
  O  O254  1  0.23389144  0.40559882  0.25709981  1
  O  O255  1  0.22984633  0.39667630  0.76663570  1
  O  O256  1  0.23457374  0.74503826  0.26428029  1
  O  O257  1  0.23927117  0.72883227  0.75962039  1
  O  O258  1  0.58280889  0.08181330  0.27877240  1
  O  O259  1  0.57633401  0.08133543  0.77261164  1
  O  O260  1  0.57903669  0.40578727  0.26696475  1
  O  O261  1  0.56518162  0.40273098  0.77368376  1
  O  O262  1  0.57203835  0.73229483  0.26160621  1
  O  O263  1  0.56773411  0.72090251  0.77137694  1
  O  O264  1  0.90732275  0.07709248  0.26823816  1
  O  O265  1  0.89520924  0.06944938  0.77407876  1
  O  O266  1  0.91393689  0.40219081  0.26945240  1
  O  O267  1  0.91259377  0.40503820  0.77183259  1
  O  O268  1  0.91041309  0.73325130  0.28056399  1
  O  O269  1  0.91268742  0.73773019  0.76264482  1
  O  O270  1  0.25240750  0.23756773  0.26064407  1
  O  O271  1  0.26673205  0.24003003  0.78116616  1
  O  O272  1  0.25699163  0.56418840  0.26009024  1
  O  O273  1  0.26678213  0.56870540  0.76202145  1
  O  O274  1  0.25325605  0.90262603  0.26437072  1
  O  O275  1  0.25991633  0.90541054  0.75059714  1
  O  O276  1  0.60489618  0.24022546  0.27230325  1
  O  O277  1  0.59853426  0.23965238  0.77725416  1
  O  O278  1  0.60249832  0.56966576  0.26889829  1
  O  O279  1  0.60058943  0.56050747  0.77013234  1
  O  O280  1  0.59088067  0.90344531  0.26251736  1
  O  O281  1  0.60051976  0.91553644  0.76035528  1
  O  O282  1  0.93740681  0.23624516  0.27042713  1
  O  O283  1  0.93375439  0.24551256  0.76114476  1
  O  O284  1  0.92461779  0.58060442  0.27792385  1
  O  O285  1  0.93941034  0.56789634  0.76949175  1
  O  O286  1  0.93647197  0.89741411  0.28046487  1
  O  O287  1  0.92669174  0.90383770  0.77679473  1
  O  O288  1  0.26500305  0.23755573  0.48231967  1
  O  O289  1  0.26757674  0.24626587  0.97018852  1
  O  O290  1  0.25800642  0.56371288  0.49351085  1
  O  O291  1  0.25850911  0.56502238  0.98847700  1
  O  O292  1  0.25333082  0.90090254  0.49424954  1
  O  O293  1  0.26048379  0.91638182  0.98083377  1
  O  O294  1  0.60423366  0.23631327  0.48393066  1
  O  O295  1  0.59765890  0.24362195  0.96726335  1
  O  O296  1  0.59792963  0.55608101  0.48607186  1
  O  O297  1  0.59932701  0.56011818  0.97496748  1
  O  O298  1  0.60079987  0.91469060  0.49186291  1
  O  O299  1  0.59376806  0.90527234  0.98207120  1
  O  O300  1  0.93342656  0.23522103  0.47935431  1
  O  O301  1  0.92244925  0.23771871  0.98863699  1
  O  O302  1  0.92582068  0.57868171  0.47968958  1
  O  O303  1  0.93142716  0.56953887  0.97074693  1
  O  O304  1  0.93023885  0.89606619  0.47930515  1
  O  O305  1  0.93439961  0.91037192  0.97213845  1
  O  O306  1  0.23485242  0.08512969  0.48233063  1
  O  O307  1  0.24839510  0.08102443  0.97773775  1
  O  O308  1  0.23358437  0.39657658  0.49202813  1
  O  O309  1  0.23721428  0.40040012  0.97677551  1
  O  O310  1  0.22817429  0.73695432  0.48927768  1
  O  O311  1  0.24592769  0.74713935  0.98554377  1
  O  O312  1  0.57836879  0.07984017  0.48181711  1
  O  O313  1  0.58269838  0.08292309  0.96250028  1
  O  O314  1  0.56749685  0.39761196  0.49370996  1
  O  O315  1  0.57053359  0.40176712  0.96932019  1
  O  O316  1  0.57242799  0.73567120  0.48045505  1
  O  O317  1  0.56796677  0.72097260  0.98235223  1
  O  O318  1  0.90357509  0.08651713  0.48094228  1
  O  O319  1  0.89446109  0.06756044  0.97919291  1
  O  O320  1  0.90715812  0.40029165  0.48637753  1
  O  O321  1  0.91786678  0.41150423  0.97779929  1
  O  O322  1  0.90246903  0.73530529  0.47453821  1
  O  O323  1  0.91328821  0.74624354  0.97435627  1
  O  O324  1  0.09643136  0.26018074  0.22425978  1
  O  O325  1  0.09422638  0.27270327  0.71722927  1
  O  O326  1  0.09289071  0.58912832  0.23746440  1
  O  O327  1  0.09403935  0.59614853  0.71935139  1
  O  O328  1  0.09997101  0.93192512  0.23261609  1
  O  O329  1  0.08488971  0.92127358  0.72340976  1
  O  O330  1  0.42341259  0.25574659  0.23623807  1
  O  O331  1  0.43966944  0.26648822  0.72508383  1
  O  O332  1  0.43136329  0.59317215  0.22178541  1
  O  O333  1  0.42696592  0.58997809  0.72732526  1
  O  O334  1  0.43477289  0.92095325  0.22438829  1
  O  O335  1  0.42071531  0.91973048  0.72544304  1
  O  O336  1  0.75702695  0.26395656  0.23308439  1
  O  O337  1  0.75727689  0.26924817  0.72417953  1
  O  O338  1  0.75368517  0.59376370  0.23042483  1
  O  O339  1  0.75514038  0.59202470  0.73092089  1
  O  O340  1  0.76765869  0.93559932  0.22834295  1
  O  O341  1  0.75527511  0.93270327  0.72813628  1
  O  O342  1  0.07069694  0.10010577  0.22805563  1
  O  O343  1  0.06506616  0.10546031  0.72306165  1
  O  O344  1  0.07666146  0.42055975  0.23040996  1
  O  O345  1  0.06392160  0.43259843  0.72195895  1
  O  O346  1  0.06803235  0.76412720  0.24435566  1
  O  O347  1  0.06743296  0.75596670  0.71280639  1
  O  O348  1  0.41776961  0.08148644  0.22291805  1
  O  O349  1  0.40919871  0.10939449  0.72851985  1
  O  O350  1  0.40178009  0.43205133  0.22597769  1
  O  O351  1  0.40604481  0.43296743  0.72223121  1
  O  O352  1  0.41573388  0.75768232  0.23123228  1
  O  O353  1  0.39427451  0.75638905  0.71975268  1
  O  O354  1  0.74109999  0.09724641  0.21502950  1
  O  O355  1  0.72846889  0.10661302  0.72839242  1
  O  O356  1  0.73030530  0.42963998  0.22988371  1
  O  O357  1  0.73151001  0.42591439  0.72020120  1
  O  O358  1  0.73768159  0.75350494  0.23533309  1
  O  O359  1  0.72722141  0.75865236  0.72805726  1
