# generated using pymatgen
data_BaLaInIrO6
_symmetry_space_group_name_H-M   'P 1'
_cell_length_a   17.52658662
_cell_length_b   17.55304239
_cell_length_c   16.47969012
_cell_angle_alpha   89.97438226
_cell_angle_beta   89.97676065
_cell_angle_gamma   90.02173845
_symmetry_Int_Tables_number   1
_chemical_formula_structural   BaLaInIrO6
_chemical_formula_sum   'Ba36 La36 In36 Ir36 O216'
_cell_volume   5069.89162439
_cell_formula_units_Z   36
loop_
 _symmetry_equiv_pos_site_id
 _symmetry_equiv_pos_as_xyz
  1  'x, y, z'
loop_
 _atom_site_type_symbol
 _atom_site_label
 _atom_site_symmetry_multiplicity
 _atom_site_fract_x
 _atom_site_fract_y
 _atom_site_fract_z
 _atom_site_occupancy
  Ba  Ba0  1  0.83060895  0.67327009  0.12651598  1
  Ba  Ba1  1  0.49643804  0.65817556  0.37686768  1
  Ba  Ba2  1  0.33454907  0.15520184  0.37439259  1
  Ba  Ba3  1  0.66883151  0.49326538  0.87400183  1
  Ba  Ba4  1  0.67251221  0.17598742  0.62449928  1
  Ba  Ba5  1  0.83547431  0.00635974  0.12536410  1
  Ba  Ba6  1  0.83309671  0.67116816  0.62106579  1
  Ba  Ba7  1  0.16667832  0.32378800  0.37634301  1
  Ba  Ba8  1  1.00117322  0.50762381  0.62141884  1
  Ba  Ba9  1  0.83086290  0.01167890  0.62356855  1
  Ba  Ba10  1  0.16825682  0.32859724  0.87369856  1
  Ba  Ba11  1  0.50192115  0.65475547  0.87525429  1
  Ba  Ba12  1  0.66479750  0.50606779  0.12631935  1
  Ba  Ba13  1  0.50499232  0.32501269  0.37381587  1
  Ba  Ba14  1  0.49884151  0.34656604  0.12574785  1
  Ba  Ba15  1  0.83703120  0.32338578  0.37542846  1
  Ba  Ba16  1  0.99827065  0.17582403  0.62575686  1
  Ba  Ba17  1  1.00376149  0.84370273  0.12432099  1
  Ba  Ba18  1  0.33105055  0.83695840  0.12103392  1
  Ba  Ba19  1  0.49794909  0.99200238  0.37445580  1
  Ba  Ba20  1  0.66740979  0.82420627  0.87281731  1
  Ba  Ba21  1  0.16728387  0.65728725  0.87790462  1
  Ba  Ba22  1  0.83279080  0.33974413  0.12476652  1
  Ba  Ba23  1  0.33807506  0.17684801  0.62291288  1
  Ba  Ba24  1  0.33458520  0.17733535  0.12707256  1
  Ba  Ba25  1  0.16293784  0.67739447  0.12443819  1
  Ba  Ba26  1  -0.00241023  0.16188125  0.87147176  1
  Ba  Ba27  1  0.83317243  0.33786518  0.62623597  1
  Ba  Ba28  1  0.00246901  0.82936892  0.37388147  1
  Ba  Ba29  1  -0.00074180  0.49312139  0.87269386  1
  Ba  Ba30  1  0.66756940  0.50574017  0.62470427  1
  Ba  Ba31  1  0.83601359  0.32446533  0.87728765  1
  Ba  Ba32  1  -0.00518635  0.15745330  0.38056013  1
  Ba  Ba33  1  0.50009139  0.34992315  0.61964624  1
  Ba  Ba34  1  0.16368798  0.67585563  0.62215704  1
  Ba  Ba35  1  0.00241541  0.49464541  0.37606954  1
  La  La36  1  0.50215268  0.32150893  0.87165635  1
  La  La37  1  0.15899016  0.34886267  0.62375666  1
  La  La38  1  0.99854036  0.17675175  0.12497632  1
  La  La39  1  0.66951930  0.84505730  0.62128304  1
  La  La40  1  0.16714059  0.98846622  0.87580755  1
  La  La41  1  -0.00906369  0.81750371  0.87515552  1
  La  La42  1  0.32452634  0.15475157  0.87856102  1
  La  La43  1  0.34083617  0.51469702  0.12551013  1
  La  La44  1  0.49508036  0.67512331  0.12178902  1
  La  La45  1  0.33103153  0.48338114  0.37422507  1
  La  La46  1  0.33177778  0.81474335  0.87155756  1
  La  La47  1  0.15717365  0.01485400  0.12717458  1
  La  La48  1  1.00360805  0.51317855  0.12459470  1
  La  La49  1  0.32627113  0.48418135  0.87597012  1
  La  La50  1  0.83257514  0.65064290  0.37530263  1
  La  La51  1  0.16314796  0.01320108  0.62432884  1
  La  La52  1  0.16394622  0.34691589  0.12906704  1
  La  La53  1  0.67321480  0.17970662  0.13028585  1
  La  La54  1  0.33378830  0.84597144  0.62603730  1
  La  La55  1  0.66670216  0.15843379  0.87600438  1
  La  La56  1  0.66054411  0.14770084  0.37718322  1
  La  La57  1  0.17502609  0.64867906  0.37340583  1
  La  La58  1  0.66165285  0.48552045  0.37765225  1
  La  La59  1  0.33995414  0.51717132  0.62646735  1
  La  La60  1  0.83565087  0.98769765  0.37865024  1
  La  La61  1  0.32718793  0.81882441  0.37801705  1
  La  La62  1  0.50631104  0.98865223  0.87851852  1
  La  La63  1  0.49739844  0.01383024  0.12530067  1
  La  La64  1  1.00416986  0.84590889  0.62251744  1
  La  La65  1  0.67049246  0.84495545  0.12704431  1
  La  La66  1  0.49590077  0.68079261  0.62486247  1
  La  La67  1  0.83680333  0.99211805  0.86978293  1
  La  La68  1  0.49555557  0.01188565  0.62196528  1
  La  La69  1  0.66054463  0.82179347  0.37636886  1
  La  La70  1  0.83717068  0.64728017  0.87230302  1
  La  La71  1  0.16406789  0.99858122  0.37583318  1
  In  In72  1  0.33179468  -0.00564383  0.24634229  1
  In  In73  1  0.16793462  0.16716433  0.75175704  1
  In  In74  1  0.16678316  0.83636845  -0.00362859  1
  In  In75  1  0.66326112  0.66615262  0.49945761  1
  In  In76  1  0.66491921  0.00000732  0.75007664  1
  In  In77  1  0.00040477  0.67089221  0.49529519  1
  In  In78  1  0.33531230  0.33309848  0.74667995  1
  In  In79  1  0.66621506  0.33314500  0.74982294  1
  In  In80  1  0.00009748  0.33379228  0.24912593  1
  In  In81  1  -0.00308885  0.00361007  0.25206637  1
  In  In82  1  0.49870096  0.16739642  -0.00044322  1
  In  In83  1  0.50329601  0.83299665  0.00077587  1
  In  In84  1  0.16899411  0.16748244  0.50277238  1
  In  In85  1  0.66372565  0.66686353  0.74857328  1
  In  In86  1  -0.00038758  0.33322618  0.50025586  1
  In  In87  1  0.83217347  0.83243309  0.74539306  1
  In  In88  1  0.50019983  0.50033872  0.25276881  1
  In  In89  1  0.50168673  0.16856117  0.24847788  1
  In  In90  1  0.50140133  0.16880064  0.50012450  1
  In  In91  1  0.16873132  0.83549115  0.25082930  1
  In  In92  1  0.00117861  0.00302600  -0.00440363  1
  In  In93  1  0.33406792  -0.00260435  0.00090311  1
  In  In94  1  0.16565361  0.83351285  0.75015032  1
  In  In95  1  0.16998496  0.50274145  0.74895149  1
  In  In96  1  0.16640726  0.16781781  0.25098940  1
  In  In97  1  0.49834951  0.16605030  0.75173262  1
  In  In98  1  0.00194179  0.33240063  0.00074033  1
  In  In99  1  0.83256600  0.49895399  0.00454916  1
  In  In100  1  -0.00123929  0.67025261  0.25227033  1
  In  In101  1  0.49972262  0.83300639  0.25069935  1
  In  In102  1  0.66489181  0.66640604  0.25172283  1
  In  In103  1  0.33522314  -0.00234267  0.75333548  1
  In  In104  1  0.83098102  0.83288209  0.00067826  1
  In  In105  1  0.16883702  0.50119516  0.00391004  1
  In  In106  1  0.66457267  0.33323263  -0.00042215  1
  In  In107  1  -0.00134249  0.66868120  0.74610219  1
  Ir  Ir108  1  0.66640574  -0.00531817  0.49582278  1
  Ir  Ir109  1  0.83448409  0.49947651  0.74585237  1
  Ir  Ir110  1  0.49434283  0.50149387  -0.00348554  1
  Ir  Ir111  1  0.16918471  0.16966047  0.00067148  1
  Ir  Ir112  1  0.17618157  0.50096168  0.49632795  1
  Ir  Ir113  1  0.33305767  0.66431664  0.24988014  1
  Ir  Ir114  1  0.33257862  0.66873102  0.50047683  1
  Ir  Ir115  1  0.83314839  0.50017934  0.25398469  1
  Ir  Ir116  1  0.82975899  0.49949243  0.49801579  1
  Ir  Ir117  1  0.49698656  0.83414735  0.50313382  1
  Ir  Ir118  1  0.66333380  0.66518938  0.00068260  1
  Ir  Ir119  1  0.00281266  0.00024996  0.74752462  1
  Ir  Ir120  1  0.82816694  0.16249100  0.25199153  1
  Ir  Ir121  1  0.67002980  0.33328370  0.49571758  1
  Ir  Ir122  1  0.33512615  0.33603416  0.00339682  1
  Ir  Ir123  1  0.82718402  0.83522375  0.25330343  1
  Ir  Ir124  1  0.49469895  0.50353579  0.74985412  1
  Ir  Ir125  1  0.66728973  0.00094253  0.00256857  1
  Ir  Ir126  1  0.82724913  0.16299309  0.49704267  1
  Ir  Ir127  1  0.83058974  0.83535720  0.49670931  1
  Ir  Ir128  1  0.83354108  0.16553225  0.75093502  1
  Ir  Ir129  1  0.67225408  0.33083063  0.25360228  1
  Ir  Ir130  1  0.33691277  0.66719711  0.74848803  1
  Ir  Ir131  1  -0.00149618  -0.00325752  0.50400362  1
  Ir  Ir132  1  0.66979430  -0.00238709  0.25015012  1
  Ir  Ir133  1  0.82991038  0.16008712  0.00172300  1
  Ir  Ir134  1  0.33170066  -0.00907944  0.50274784  1
  Ir  Ir135  1  0.17025933  0.83647214  0.50258660  1
  Ir  Ir136  1  0.33156320  0.33705731  0.24943222  1
  Ir  Ir137  1  0.17258799  0.50051947  0.24906580  1
  Ir  Ir138  1  -0.00362300  0.66682332  -0.00077721  1
  Ir  Ir139  1  0.33637738  0.66436142  -0.00154264  1
  Ir  Ir140  1  -0.00019582  0.33470325  0.74722283  1
  Ir  Ir141  1  0.49639914  0.50208315  0.50186309  1
  Ir  Ir142  1  0.33177709  0.33804692  0.49797751  1
  Ir  Ir143  1  0.49705803  0.83383630  0.74546533  1
  O  O144  1  0.30188751  0.33415610  0.12692650  1
  O  O145  1  0.29911276  0.33447095  0.61613224  1
  O  O146  1  0.31201062  0.65045015  0.12399141  1
  O  O147  1  0.31162604  0.65438959  0.62424940  1
  O  O148  1  0.28998963  0.99169105  0.12163885  1
  O  O149  1  0.30189260  0.98545079  0.62213728  1
  O  O150  1  0.64887254  0.31924463  0.13273895  1
  O  O151  1  0.65050938  0.33199367  0.61723173  1
  O  O152  1  0.63227205  0.66145808  0.12200328  1
  O  O153  1  0.63128758  0.66247538  0.62247496  1
  O  O154  1  0.63463206  0.98757852  0.12701246  1
  O  O155  1  0.63424717  0.98758092  0.61770488  1
  O  O156  1  0.98032790  0.31326129  0.12580353  1
  O  O157  1  0.98483606  0.33981674  0.62811406  1
  O  O158  1  0.98099289  0.65591025  0.12281100  1
  O  O159  1  0.98418221  0.67338209  0.61842973  1
  O  O160  1  0.98716598  1.00069293  0.12354024  1
  O  O161  1  0.97632816  0.98371916  0.62676755  1
  O  O162  1  0.18798208  0.15350446  0.11873385  1
  O  O163  1  0.19135505  0.14864479  0.62613238  1
  O  O164  1  0.20453597  0.49475513  0.13087732  1
  O  O165  1  0.20248071  0.49273642  0.61711583  1
  O  O166  1  0.17933699  0.83370234  0.12199862  1
  O  O167  1  0.19591437  0.82930225  0.62183685  1
  O  O168  1  0.53694445  0.15966212  0.12527613  1
  O  O169  1  0.52284861  0.15120566  0.62257072  1
  O  O170  1  0.51267060  0.50373630  0.11865394  1
  O  O171  1  0.51814513  0.50695780  0.62559456  1
  O  O172  1  0.53570210  0.81321729  0.12536634  1
  O  O173  1  0.53181127  0.82314918  0.62445350  1
  O  O174  1  0.86004030  0.15918368  0.12729793  1
  O  O175  1  0.85131799  0.16451746  0.62607327  1
  O  O176  1  0.86478083  0.50489414  0.13461359  1
  O  O177  1  0.85336372  0.50046069  0.62089623  1
  O  O178  1  0.85257777  0.83164744  0.13293078  1
  O  O179  1  0.86721960  0.82925260  0.61530731  1
  O  O180  1  0.14843390  0.15569197  0.37915225  1
  O  O181  1  0.14885860  0.17557172  0.88242268  1
  O  O182  1  0.15089872  0.50974124  0.37257799  1
  O  O183  1  0.15605700  0.49886139  0.87776384  1
  O  O184  1  0.15366167  0.85371883  0.38447251  1
  O  O185  1  0.12841270  0.84585992  0.87323463  1
  O  O186  1  0.48846962  0.16400293  0.37521285  1
  O  O187  1  0.45892105  0.17858761  0.87650892  1
  O  O188  1  0.46756447  0.49884411  0.38224403  1
  O  O189  1  0.46180778  0.50209316  0.87219154  1
  O  O190  1  0.46414860  0.83784243  0.38388834  1
  O  O191  1  0.46677179  0.84633620  0.86662741  1
  O  O192  1  0.79599490  0.16391701  0.37382555  1
  O  O193  1  0.80286679  0.16167943  0.87798981  1
  O  O194  1  0.80003397  0.50460581  0.37646047  1
  O  O195  1  0.82136126  0.50820754  0.86841185  1
  O  O196  1  0.79531921  0.84766254  0.37561683  1
  O  O197  1  0.81370463  0.85469637  0.87398292  1
  O  O198  1  0.02622116  0.00125260  0.38321545  1
  O  O199  1  0.03175445  0.00766630  0.86634619  1
  O  O200  1  0.01391549  0.33231053  0.37462992  1
  O  O201  1  0.01624222  0.33026450  0.86864719  1
  O  O202  1  0.03694922  0.66736831  0.37545304  1
  O  O203  1  0.01510084  0.67242176  0.87855334  1
  O  O204  1  0.34818107  -0.00802851  0.38353969  1
  O  O205  1  0.37333054  0.01654470  0.87651429  1
  O  O206  1  0.35795335  0.34754641  0.37292827  1
  O  O207  1  0.36429429  0.34725724  0.88315951  1
  O  O208  1  0.35136802  0.68169396  0.37590074  1
  O  O209  1  0.35749518  0.67945176  0.87382311  1
  O  O210  1  0.69979784  0.00641486  0.37203564  1
  O  O211  1  0.70049447  0.00930178  0.88400508  1
  O  O212  1  0.69043879  0.34785984  0.37444605  1
  O  O213  1  0.68590441  0.33774322  0.87444799  1
  O  O214  1  0.69963019  0.68433730  0.37760757  1
  O  O215  1  0.69651518  0.66874203  0.87901844  1
  O  O216  1  0.07212586  0.10819319  0.02066278  1
  O  O217  1  0.07305992  0.08107761  0.52518910  1
  O  O218  1  0.07824707  0.42583268  0.03835319  1
  O  O219  1  0.08998284  0.42546693  0.51805123  1
  O  O220  1  0.06591842  0.75755947  0.00751023  1
  O  O221  1  0.07267198  0.77573452  0.51922526  1
  O  O222  1  0.41423085  0.08724262  0.03115633  1
  O  O223  1  0.40530996  0.07937767  0.51841646  1
  O  O224  1  0.39534067  0.43799463  0.02007746  1
  O  O225  1  0.39745565  0.43664905  0.52274083  1
  O  O226  1  0.41047231  0.75149577  0.01613337  1
  O  O227  1  0.40188213  0.76374902  0.53041984  1
  O  O228  1  0.73189001  0.09486484  0.02715036  1
  O  O229  1  0.73393434  0.09146239  0.51018583  1
  O  O230  1  0.73996064  0.42445759  0.01835917  1
  O  O231  1  0.73684525  0.42879329  0.51138908  1
  O  O232  1  0.72921723  0.75896506  0.02471750  1
  O  O233  1  0.73746440  0.76971788  0.52230733  1
  O  O234  1  0.10632008  0.26403502  0.02653899  1
  O  O235  1  0.09767475  0.26361024  0.52657718  1
  O  O236  1  0.08341406  0.59064535  0.02061754  1
  O  O237  1  0.10314355  0.58865112  0.50933908  1
  O  O238  1  0.10897971  0.94648533  0.01064841  1
  O  O239  1  0.09946622  0.92925224  0.52919647  1
  O  O240  1  0.42497462  0.26899493  0.01870946  1
  O  O241  1  0.42093852  0.26631078  0.51353655  1
  O  O242  1  0.42916773  0.59579907  0.02439506  1
  O  O243  1  0.42741971  0.59815048  0.52813344  1
  O  O244  1  0.43598821  0.92927405  0.02698185  1
  O  O245  1  0.42740912  0.92450614  0.53292528  1
  O  O246  1  0.75634167  0.24576527  0.02203421  1
  O  O247  1  0.76075993  0.26153653  0.51434362  1
  O  O248  1  0.75321144  0.59612599  0.01378767  1
  O  O249  1  0.75893952  0.58867201  0.50905827  1
  O  O250  1  0.74932736  0.92405442  0.02690515  1
  O  O251  1  0.75666791  0.92305827  0.52163099  1
  O  O252  1  0.23140687  0.06338783  0.26850418  1
  O  O253  1  0.23665021  0.06640609  0.77952133  1
  O  O254  1  0.24085924  0.40850966  0.27149543  1
  O  O255  1  0.24516802  0.40911854  0.76549396  1
  O  O256  1  0.23806720  0.72853718  0.27315796  1
  O  O257  1  0.24516897  0.73647941  0.76886598  1
  O  O258  1  0.58397718  0.06933857  0.26796188  1
  O  O259  1  0.57510645  0.07207144  0.78695287  1
  O  O260  1  0.58370107  0.40680237  0.26668540  1
  O  O261  1  0.55854186  0.40738641  0.77001192  1
  O  O262  1  0.57768794  0.74643242  0.28190741  1
  O  O263  1  0.56462253  0.74439550  0.76460381  1
  O  O264  1  0.89259183  0.06997418  0.27835575  1
  O  O265  1  0.90449710  0.06596140  0.77000431  1
  O  O266  1  0.90707322  0.41509462  0.26462326  1
  O  O267  1  0.90827787  0.40773310  0.76672077  1
  O  O268  1  0.89248227  0.74181013  0.27701238  1
  O  O269  1  0.89982690  0.73746864  0.78085156  1
  O  O270  1  0.26445023  0.24531896  0.26666457  1
  O  O271  1  0.26999102  0.23240656  0.77423750  1
  O  O272  1  0.26701956  0.56909732  0.27732967  1
  O  O273  1  0.27703542  0.57051645  0.76899086  1
  O  O274  1  0.27562291  0.88899707  0.27152427  1
  O  O275  1  0.26872027  0.89706690  0.77321836  1
  O  O276  1  0.60780730  0.23638696  0.27311530  1
  O  O277  1  0.59624696  0.23588183  0.77866781  1
  O  O278  1  0.59630944  0.56865853  0.27851786  1
  O  O279  1  0.58681331  0.56986997  0.76600689  1
  O  O280  1  0.60612581  0.90381553  0.27222715  1
  O  O281  1  0.58197817  0.90782175  0.77026897  1
  O  O282  1  0.92000403  0.23020042  0.26295854  1
  O  O283  1  0.92482564  0.24042936  0.76204219  1
  O  O284  1  0.91790275  0.57748990  0.27630085  1
  O  O285  1  0.91963270  0.57438007  0.76144671  1
  O  O286  1  0.91532645  0.90893175  0.27328135  1
  O  O287  1  0.93606031  0.90762793  0.77076439  1
  O  O288  1  0.26576442  0.24583866  0.47979553  1
  O  O289  1  0.27114090  0.23587071  0.98117873  1
  O  O290  1  0.26818460  0.57428924  0.47030990  1
  O  O291  1  0.27134113  0.57044377  0.98122284  1
  O  O292  1  0.27350609  0.89061228  0.48920128  1
  O  O293  1  0.26601499  0.90334558  0.95735341  1
  O  O294  1  0.60476750  0.23995291  0.47605735  1
  O  O295  1  0.59228509  0.23887189  0.96951585  1
  O  O296  1  0.59013948  0.56705955  0.47397978  1
  O  O297  1  0.59121234  0.56972991  0.98057653  1
  O  O298  1  0.59646679  0.89922482  0.47662491  1
  O  O299  1  0.59542908  0.91407486  0.97642099  1
  O  O300  1  0.91733002  0.23508470  0.48980120  1
  O  O301  1  0.92177258  0.22888490  0.99008575  1
  O  O302  1  0.91445916  0.57744325  0.47735049  1
  O  O303  1  0.92323086  0.58091128  0.98356142  1
  O  O304  1  0.92040014  0.90945210  0.47617531  1
  O  O305  1  0.93157450  0.90384060  0.97486997  1
  O  O306  1  0.23683105  0.05531341  0.48519915  1
  O  O307  1  0.23534665  0.07620233  0.97087018  1
  O  O308  1  0.24696141  0.41267225  0.47170846  1
  O  O309  1  0.24627776  0.40399563  0.98615818  1
  O  O310  1  0.23544385  0.73831494  0.47299979  1
  O  O311  1  0.24949956  0.73982105  0.98064490  1
  O  O312  1  0.58080251  0.06855956  0.47903386  1
  O  O313  1  0.57802947  0.06993738  0.97328747  1
  O  O314  1  0.57663313  0.41150559  0.47559807  1
  O  O315  1  0.55756216  0.40627538  0.97693703  1
  O  O316  1  0.56876795  0.74704346  0.48090718  1
  O  O317  1  0.57646164  0.73544181  0.98082239  1
  O  O318  1  0.89823051  0.06604631  0.47799255  1
  O  O319  1  0.89554750  0.06774722  0.97450293  1
  O  O320  1  0.90624940  0.41538679  0.48653695  1
  O  O321  1  0.91395626  0.41215955  0.98905463  1
  O  O322  1  0.89531861  0.74354651  0.46802968  1
  O  O323  1  0.90362384  0.73550761  0.97450212  1
  O  O324  1  0.10117295  0.26667974  0.22493130  1
  O  O325  1  0.09439269  0.26652007  0.72639705  1
  O  O326  1  0.09602942  0.58534397  0.23148172  1
  O  O327  1  0.09402395  0.59388099  0.73534838  1
  O  O328  1  0.10364895  0.94100539  0.24276984  1
  O  O329  1  0.09834489  0.93720320  0.72499521  1
  O  O330  1  0.42273587  0.26713399  0.23516617  1
  O  O331  1  0.43596110  0.27093918  0.73494924  1
  O  O332  1  0.42683004  0.59736186  0.22570624  1
  O  O333  1  0.43202321  0.60167050  0.72241171  1
  O  O334  1  0.43709505  0.93012661  0.22024986  1
  O  O335  1  0.43002785  0.92148900  0.71502706  1
  O  O336  1  0.75960326  0.25395120  0.22816403  1
  O  O337  1  0.76249218  0.25351870  0.73887396  1
  O  O338  1  0.76251275  0.58997917  0.24225256  1
  O  O339  1  0.76311553  0.59020351  0.73809117  1
  O  O340  1  0.75816276  0.92617842  0.22953796  1
  O  O341  1  0.75273199  0.92311927  0.72622867  1
  O  O342  1  0.06310562  0.10399527  0.22723649  1
  O  O343  1  0.07211124  0.08852611  0.72833032  1
  O  O344  1  0.07944532  0.43283385  0.22091965  1
  O  O345  1  0.07675645  0.41940266  0.72947364  1
  O  O346  1  0.07206962  0.76336025  0.23768816  1
  O  O347  1  0.06075614  0.77474962  0.73236599  1
  O  O348  1  0.41295749  0.08634049  0.23000128  1
  O  O349  1  0.41384116  0.08277668  0.71956663  1
  O  O350  1  0.39730240  0.43340220  0.23235510  1
  O  O351  1  0.39967594  0.44265825  0.73037083  1
  O  O352  1  0.40661484  0.75068375  0.22735713  1
  O  O353  1  0.40382475  0.76361863  0.72021677  1
  O  O354  1  0.73248439  0.09655882  0.22925888  1
  O  O355  1  0.74390006  0.09537940  0.74131696  1
  O  O356  1  0.74160584  0.42694854  0.23534693  1
  O  O357  1  0.74701832  0.42699920  0.73476065  1
  O  O358  1  0.73495635  0.76893867  0.22814505  1
  O  O359  1  0.73226735  0.76391992  0.71959627  1
