# generated using pymatgen
data_BaLaInIrO6
_symmetry_space_group_name_H-M   'P 1'
_cell_length_a   17.51457145
_cell_length_b   17.54366850
_cell_length_c   16.49510390
_cell_angle_alpha   90.01911579
_cell_angle_beta   89.98485906
_cell_angle_gamma   89.97161020
_symmetry_Int_Tables_number   1
_chemical_formula_structural   BaLaInIrO6
_chemical_formula_sum   'Ba36 La36 In36 Ir36 O216'
_cell_volume   5068.44677732
_cell_formula_units_Z   36
loop_
 _symmetry_equiv_pos_site_id
 _symmetry_equiv_pos_as_xyz
  1  'x, y, z'
loop_
 _atom_site_type_symbol
 _atom_site_label
 _atom_site_symmetry_multiplicity
 _atom_site_fract_x
 _atom_site_fract_y
 _atom_site_fract_z
 _atom_site_occupancy
  Ba  Ba0  1  0.50148088  0.33750772  0.12814434  1
  Ba  Ba1  1  0.49892092  0.67321536  0.12743690  1
  Ba  Ba2  1  0.82982449  0.34548086  0.12885858  1
  Ba  Ba3  1  0.66479130  0.82385427  0.87449168  1
  Ba  Ba4  1  0.66765630  0.84067358  0.12473511  1
  Ba  Ba5  1  0.16909320  0.98821800  0.87489224  1
  Ba  Ba6  1  0.83506821  0.99685646  0.36980936  1
  Ba  Ba7  1  0.83079471  0.00882721  0.12340819  1
  Ba  Ba8  1  -0.00153168  0.82440712  0.37893098  1
  Ba  Ba9  1  0.16580563  0.65659378  0.87137220  1
  Ba  Ba10  1  0.66539288  0.16266325  0.37848713  1
  Ba  Ba11  1  0.33525487  0.49426200  0.87532698  1
  Ba  Ba12  1  0.16012097  0.34609262  0.12736883  1
  Ba  Ba13  1  0.17019861  0.32615385  0.87508370  1
  Ba  Ba14  1  0.83191631  0.34407068  0.62710551  1
  Ba  Ba15  1  0.66616626  0.17603186  0.62808141  1
  Ba  Ba16  1  0.82958670  0.67640140  0.62413216  1
  Ba  Ba17  1  0.33404991  0.17291919  0.62829452  1
  Ba  Ba18  1  0.49956914  0.67469178  0.62378742  1
  Ba  Ba19  1  0.33576411  0.83952934  0.12374325  1
  Ba  Ba20  1  0.49847633  0.32488347  0.37557936  1
  Ba  Ba21  1  0.33303616  0.50587787  0.62790035  1
  Ba  Ba22  1  0.16970459  0.99076964  0.37415405  1
  Ba  Ba23  1  0.33175353  0.50669024  0.12176320  1
  Ba  Ba24  1  0.66922271  0.49535172  0.37690494  1
  Ba  Ba25  1  0.33332845  0.82468505  0.87117007  1
  Ba  Ba26  1  0.33183594  0.82657945  0.37816719  1
  Ba  Ba27  1  0.83229878  0.00799539  0.62053601  1
  Ba  Ba28  1  0.66844050  0.51099530  0.62544149  1
  Ba  Ba29  1  0.83263128  0.67438620  0.12256356  1
  Ba  Ba30  1  0.33403652  0.84281035  0.62546842  1
  Ba  Ba31  1  0.49697230  0.01402343  0.63069868  1
  Ba  Ba32  1  -0.00054323  0.15938185  0.37412600  1
  Ba  Ba33  1  0.66778180  0.17522971  0.12360357  1
  Ba  Ba34  1  0.49954479  0.32519513  0.87631286  1
  Ba  Ba35  1  0.16967246  0.00699457  0.62312982  1
  La  La36  1  -0.01044541  0.48671317  0.37240684  1
  La  La37  1  0.84034808  0.64984548  0.87176063  1
  La  La38  1  0.83554495  0.98075843  0.87178452  1
  La  La39  1  0.16241460  0.34843028  0.62669242  1
  La  La40  1  0.50742572  0.98827880  0.37973395  1
  La  La41  1  0.16489020  0.01195184  0.12203320  1
  La  La42  1  0.17387031  0.31441443  0.38071967  1
  La  La43  1  0.83316501  0.31569478  0.37762574  1
  La  La44  1  0.49969953  0.65544603  0.37571571  1
  La  La45  1  0.66287637  0.15132327  0.87075389  1
  La  La46  1  0.50237987  0.98356756  0.87156692  1
  La  La47  1  -0.00470557  0.48221296  0.87315556  1
  La  La48  1  1.00775329  0.52139193  0.12499497  1
  La  La49  1  0.16994322  0.65342391  0.37666038  1
  La  La50  1  0.67134700  0.51511848  0.12596419  1
  La  La51  1  1.00356132  0.17815109  0.13204701  1
  La  La52  1  1.00308501  0.85098625  0.62424296  1
  La  La53  1  0.34105814  0.17636651  0.12075880  1
  La  La54  1  -0.00513378  0.81581881  0.87148386  1
  La  La55  1  0.16049002  0.68522649  0.62951965  1
  La  La56  1  0.66623885  0.48756318  0.87591516  1
  La  La57  1  1.00773187  0.18150331  0.62366713  1
  La  La58  1  0.50002336  0.65370475  0.87315412  1
  La  La59  1  0.33328992  0.48588082  0.37492312  1
  La  La60  1  0.67123290  0.85068293  0.62538403  1
  La  La61  1  0.33413068  0.15360092  0.87454241  1
  La  La62  1  0.82780349  0.66211269  0.36998668  1
  La  La63  1  0.83772416  0.31747965  0.87272233  1
  La  La64  1  -0.00552753  0.15144567  0.87228455  1
  La  La65  1  0.16563500  0.67604835  0.12244512  1
  La  La66  1  1.00443443  0.51992498  0.62552783  1
  La  La67  1  0.32941153  0.14850081  0.37746957  1
  La  La68  1  0.49705179  0.01002719  0.12361081  1
  La  La69  1  0.66491375  0.82317105  0.37365283  1
  La  La70  1  1.00704879  0.84533133  0.12452723  1
  La  La71  1  0.49890457  0.33991616  0.62060986  1
  In  In72  1  0.33042891  0.66572296  0.74844476  1
  In  In73  1  0.50237492  0.83038709  0.74629579  1
  In  In74  1  0.49925670  0.16307842  0.25265666  1
  In  In75  1  0.50283346  0.49836480  0.00242142  1
  In  In76  1  0.33067117  0.66442168  0.50164426  1
  In  In77  1  0.66726472  0.33514620  0.50398162  1
  In  In78  1  0.16408726  0.16794830  0.75262941  1
  In  In79  1  0.83324659  0.83037232  0.49992078  1
  In  In80  1  0.49867994  0.49981306  0.24953554  1
  In  In81  1  0.17099727  0.16564937  0.24944590  1
  In  In82  1  -0.00126946  -0.00127092  -0.00258191  1
  In  In83  1  0.16249123  0.49877338  0.25674974  1
  In  In84  1  0.50279312  0.49786476  0.75052177  1
  In  In85  1  0.16791609  0.83162187  0.24858770  1
  In  In86  1  0.50066641  0.83019531  0.00116371  1
  In  In87  1  -0.00327160  0.33279023  0.00181865  1
  In  In88  1  0.83593890  0.82980485  -0.00148563  1
  In  In89  1  0.66458117  -0.00005657  0.24927683  1
  In  In90  1  0.16535360  0.83275719  0.49955419  1
  In  In91  1  0.33169415  0.33137435  -0.00167031  1
  In  In92  1  0.83577667  0.83215453  0.24843390  1
  In  In93  1  0.33330357  -0.00004466  0.75141197  1
  In  In94  1  0.66722661  0.00017963  -0.00240511  1
  In  In95  1  0.66804535  0.33581967  0.25176131  1
  In  In96  1  0.16592422  0.16725876  0.00056739  1
  In  In97  1  0.00131872  0.00288511  0.49982758  1
  In  In98  1  0.49897778  0.50026283  0.50181526  1
  In  In99  1  0.83565397  0.50299209  0.50180127  1
  In  In100  1  0.83469673  0.16458175  0.74758195  1
  In  In101  1  0.33211756  0.66490793  0.25244432  1
  In  In102  1  0.00240076  -0.00088400  0.24695401  1
  In  In103  1  0.83347297  0.16896064  0.24458314  1
  In  In104  1  0.00067477  0.33622842  0.49896248  1
  In  In105  1  0.32905023  0.32959844  0.25108412  1
  In  In106  1  0.16321336  0.50259298  -0.00208054  1
  In  In107  1  0.83499535  0.49759246  0.00068327  1
  Ir  Ir108  1  0.67028914  0.33476639  0.75607129  1
  Ir  Ir109  1  0.00149524  0.66640648  0.25103975  1
  Ir  Ir110  1  0.16071079  0.49786570  0.74452119  1
  Ir  Ir111  1  0.33133116  0.66845770  -0.00121115  1
  Ir  Ir112  1  0.83507000  0.16636393  0.50257612  1
  Ir  Ir113  1  0.33216718  0.33095472  0.74648078  1
  Ir  Ir114  1  0.66493958  0.67374864  0.50142723  1
  Ir  Ir115  1  0.50064501  0.83392057  0.25419655  1
  Ir  Ir116  1  0.33356594  -0.00080202  0.00360188  1
  Ir  Ir117  1  -0.00083586  0.33543337  0.74889428  1
  Ir  Ir118  1  0.15888196  0.83338483  0.75256205  1
  Ir  Ir119  1  0.49464836  0.16677232  0.50347446  1
  Ir  Ir120  1  0.50400203  0.83678290  0.49701422  1
  Ir  Ir121  1  0.83362613  0.83113738  0.74864359  1
  Ir  Ir122  1  0.67339812  0.66672978  0.75312194  1
  Ir  Ir123  1  0.67124875  0.33170057  -0.00379977  1
  Ir  Ir124  1  0.32809726  0.33035162  0.50438056  1
  Ir  Ir125  1  0.16111629  0.49998396  0.50190410  1
  Ir  Ir126  1  0.66912318  0.00030089  0.74800429  1
  Ir  Ir127  1  0.66514138  0.00193535  0.50179369  1
  Ir  Ir128  1  0.50094348  0.16312275  -0.00651396  1
  Ir  Ir129  1  0.66998656  0.66384569  -0.00354407  1
  Ir  Ir130  1  0.16751821  0.83178898  -0.00116643  1
  Ir  Ir131  1  0.33954175  0.00208568  0.49708190  1
  Ir  Ir132  1  0.16976665  0.16818168  0.50296137  1
  Ir  Ir133  1  -0.00233118  0.66604324  0.74882044  1
  Ir  Ir134  1  -0.00231910  -0.00147698  0.75201906  1
  Ir  Ir135  1  0.66591857  0.66869807  0.25283202  1
  Ir  Ir136  1  0.00297213  0.66277213  0.49987936  1
  Ir  Ir137  1  0.33761740  -0.00295717  0.24652194  1
  Ir  Ir138  1  0.83142620  0.16846987  -0.00837275  1
  Ir  Ir139  1  0.50115840  0.17150323  0.75297186  1
  Ir  Ir140  1  0.83800151  0.50576868  0.24990592  1
  Ir  Ir141  1  -0.00168435  0.33830112  0.25283905  1
  Ir  Ir142  1  0.00051352  0.66855088  -0.00348722  1
  Ir  Ir143  1  0.83483618  0.50041565  0.75332079  1
  O  O144  1  0.30689783  0.31332423  0.12474582  1
  O  O145  1  0.29918882  0.32524917  0.62482388  1
  O  O146  1  0.30209586  0.66644735  0.11997652  1
  O  O147  1  0.29469247  0.66433697  0.62513951  1
  O  O148  1  0.30230911  0.99451102  0.12592899  1
  O  O149  1  0.32228249  1.00326360  0.61912808  1
  O  O150  1  0.65314089  0.32896242  0.11540752  1
  O  O151  1  0.63823471  0.33094640  0.63674892  1
  O  O152  1  0.64668125  0.65120270  0.12309253  1
  O  O153  1  0.64720779  0.66500968  0.62749032  1
  O  O154  1  0.63315825  1.00146931  0.12163889  1
  O  O155  1  0.64429150  0.99095482  0.62392565  1
  O  O156  1  0.97662841  0.32279736  0.13333265  1
  O  O157  1  0.98133479  0.32184663  0.62864477  1
  O  O158  1  0.97956608  0.65567651  0.12474135  1
  O  O159  1  0.97688819  0.65398346  0.62435664  1
  O  O160  1  0.97612839  0.97854268  0.11927794  1
  O  O161  1  0.98038121  0.99054574  0.63343717  1
  O  O162  1  0.20515474  0.15710857  0.12506179  1
  O  O163  1  0.18196384  0.16921395  0.62320003  1
  O  O164  1  0.17649485  0.50760015  0.12831597  1
  O  O165  1  0.18604049  0.48643742  0.62229612  1
  O  O166  1  0.18534533  0.81405042  0.11768756  1
  O  O167  1  0.17952172  0.82460424  0.63165338  1
  O  O168  1  0.51957594  0.14927294  0.11332932  1
  O  O169  1  0.51926385  0.17257080  0.62977224  1
  O  O170  1  0.53731191  0.50088559  0.12413322  1
  O  O171  1  0.52025076  0.48065370  0.62762333  1
  O  O172  1  0.51924147  0.83059091  0.13330815  1
  O  O173  1  0.53531118  0.83202548  0.61643429  1
  O  O174  1  0.86488801  0.16878576  0.10981814  1
  O  O175  1  0.86782905  0.16567776  0.62356036  1
  O  O176  1  0.86869076  0.50128352  0.12913693  1
  O  O177  1  0.86643907  0.50024633  0.63279916  1
  O  O178  1  0.87009764  0.82569667  0.12161783  1
  O  O179  1  0.86373861  0.82811736  0.62990244  1
  O  O180  1  0.14988764  0.16780091  0.38287075  1
  O  O181  1  0.12790683  0.16905985  0.87548375  1
  O  O182  1  0.12527080  0.51366065  0.38523670  1
  O  O183  1  0.13052869  0.50091935  0.86450634  1
  O  O184  1  0.14938025  0.83449633  0.37393042  1
  O  O185  1  0.13258206  0.83630272  0.87532747  1
  O  O186  1  0.46692730  0.16658108  0.38371548  1
  O  O187  1  0.47027175  0.17219556  0.87329192  1
  O  O188  1  0.46783309  0.51445767  0.37763716  1
  O  O189  1  0.48971137  0.51334535  0.87656158  1
  O  O190  1  0.47808498  0.84911313  0.37584500  1
  O  O191  1  0.48554117  0.84149146  0.87425982  1
  O  O192  1  0.81801999  0.17368016  0.38173528  1
  O  O193  1  0.80156871  0.17708465  0.87314011  1
  O  O194  1  0.82222185  0.52144286  0.36996863  1
  O  O195  1  0.80613497  0.50938827  0.87251389  1
  O  O196  1  0.80345815  0.82216793  0.37619646  1
  O  O197  1  0.81392813  0.83888312  0.86681225  1
  O  O198  1  0.02146109  0.00542015  0.37446927  1
  O  O199  1  0.02141677  0.01318871  0.86965221  1
  O  O200  1  0.03494975  0.34766320  0.37174485  1
  O  O201  1  0.01990240  0.34486601  0.86806594  1
  O  O202  1  0.03351237  0.66802912  0.37532841  1
  O  O203  1  0.02037931  0.67963741  0.87233699  1
  O  O204  1  0.36877690  0.00749320  0.36904629  1
  O  O205  1  0.36420839  0.00891020  0.88437277  1
  O  O206  1  0.34618535  0.34342235  0.38624360  1
  O  O207  1  0.34957586  0.33778816  0.86497350  1
  O  O208  1  0.36400308  0.67279870  0.37841334  1
  O  O209  1  0.35994187  0.66824840  0.87806813  1
  O  O210  1  0.68079071  0.00291568  0.38370724  1
  O  O211  1  0.69884145  0.00746963  0.86676255  1
  O  O212  1  0.69975464  0.33565945  0.37941257  1
  O  O213  1  0.70369303  0.34451117  0.87601111  1
  O  O214  1  0.69251470  0.68400011  0.37723658  1
  O  O215  1  0.70448929  0.67006148  0.87482282  1
  O  O216  1  0.06921628  0.09342599  0.03110796  1
  O  O217  1  0.07337883  0.10380075  0.52645956  1
  O  O218  1  0.05639579  0.43992011  0.01520971  1
  O  O219  1  0.06854955  0.43548594  0.53001112  1
  O  O220  1  0.06670272  0.76772505  0.01761377  1
  O  O221  1  0.06296615  0.75721475  0.52895607  1
  O  O222  1  0.40221617  0.09530020  0.02074989  1
  O  O223  1  0.40343912  0.09767409  0.51170383  1
  O  O224  1  0.41319486  0.41925675  0.01582450  1
  O  O225  1  0.39878624  0.41754636  0.52046515  1
  O  O226  1  0.40327444  0.75530257  0.01292834  1
  O  O227  1  0.41491332  0.76746098  0.51600228  1
  O  O228  1  0.73932964  0.10248741  0.00669789  1
  O  O229  1  0.73745259  0.09320491  0.52056845  1
  O  O230  1  0.73192309  0.42968732  0.01888335  1
  O  O231  1  0.74459371  0.42866722  0.51993637  1
  O  O232  1  0.73726792  0.75422629  0.01465539  1
  O  O233  1  0.72897140  0.76700748  0.52425748  1
  O  O234  1  0.08453432  0.25524664  0.02859622  1
  O  O235  1  0.10137754  0.26345990  0.51942443  1
  O  O236  1  0.09286324  0.60374800  0.02218505  1
  O  O237  1  0.10279785  0.59950890  0.52771514  1
  O  O238  1  0.10278219  0.92429945  0.02388249  1
  O  O239  1  0.08761656  0.92072685  0.52553014  1
  O  O240  1  0.42942645  0.24807995  0.01849632  1
  O  O241  1  0.42623768  0.26463659  0.52604506  1
  O  O242  1  0.42156638  0.59766863  0.01195340  1
  O  O243  1  0.42273075  0.59108889  0.52182036  1
  O  O244  1  0.42790910  0.93565350  0.02174747  1
  O  O245  1  0.43653285  0.93368315  0.51375005  1
  O  O246  1  0.76898472  0.26645051  0.00840987  1
  O  O247  1  0.76354274  0.25391302  0.51756478  1
  O  O248  1  0.75875465  0.59189608  0.01579106  1
  O  O249  1  0.75840966  0.60384487  0.50571051  1
  O  O250  1  0.76538859  0.92869568  0.00378684  1
  O  O251  1  0.74964009  0.92565875  0.51921139  1
  O  O252  1  0.25125518  0.06908929  0.26938724  1
  O  O253  1  0.24632630  0.08010607  0.77339647  1
  O  O254  1  0.22729606  0.39910705  0.28148807  1
  O  O255  1  0.22848551  0.39711421  0.75371887  1
  O  O256  1  0.22692002  0.72588001  0.26407365  1
  O  O257  1  0.22890668  0.74325962  0.76362117  1
  O  O258  1  0.55968777  0.06048181  0.26909311  1
  O  O259  1  0.57471453  0.07346157  0.77838211  1
  O  O260  1  0.57742435  0.41145694  0.26942469  1
  O  O261  1  0.58643418  0.40862969  0.77935998  1
  O  O262  1  0.57002305  0.73931724  0.28119922  1
  O  O263  1  0.57671845  0.72812760  0.77351944  1
  O  O264  1  0.91806143  0.08681321  0.25103641  1
  O  O265  1  0.90480777  0.06542247  0.77769480  1
  O  O266  1  0.90247100  0.40819109  0.27983746  1
  O  O267  1  0.90230110  0.40477613  0.77794524  1
  O  O268  1  0.90567351  0.72611997  0.27319399  1
  O  O269  1  0.90264218  0.73593252  0.77663478  1
  O  O270  1  0.25896370  0.23657109  0.28988400  1
  O  O271  1  0.26660401  0.23895897  0.77234683  1
  O  O272  1  0.25882329  0.56745657  0.28912874  1
  O  O273  1  0.25096964  0.56621998  0.76493613  1
  O  O274  1  0.26818612  0.90860276  0.26354127  1
  O  O275  1  0.24956398  0.90553672  0.76334644  1
  O  O276  1  0.59077950  0.24011043  0.26170262  1
  O  O277  1  0.60238154  0.23920074  0.77725372  1
  O  O278  1  0.59186602  0.58475465  0.27474048  1
  O  O279  1  0.60828775  0.57455117  0.77705733  1
  O  O280  1  0.59314771  0.89825265  0.27692612  1
  O  O281  1  0.59654649  0.91266127  0.76371587  1
  O  O282  1  0.92866007  0.25195524  0.27370080  1
  O  O283  1  0.93444363  0.23899111  0.77436385  1
  O  O284  1  0.93935257  0.56774926  0.26959310  1
  O  O285  1  0.93265186  0.56828462  0.77694329  1
  O  O286  1  0.92998193  0.90317583  0.26728130  1
  O  O287  1  0.93135868  0.89986375  0.77355294  1
  O  O288  1  0.26398864  0.23576465  0.47569566  1
  O  O289  1  0.26725895  0.22961460  0.97125508  1
  O  O290  1  0.25438535  0.56118022  0.47142583  1
  O  O291  1  0.25932283  0.58218222  0.98224993  1
  O  O292  1  0.26453415  0.91478704  0.48940349  1
  O  O293  1  0.26367848  0.90241395  0.98240761  1
  O  O294  1  0.58266894  0.23816599  0.49111888  1
  O  O295  1  0.60103864  0.23165614  0.97146036  1
  O  O296  1  0.59139042  0.58761626  0.47989033  1
  O  O297  1  0.60468790  0.57261791  0.97482514  1
  O  O298  1  0.59841482  0.90588720  0.47466637  1
  O  O299  1  0.58615126  0.91320074  0.97727176  1
  O  O300  1  0.92326716  0.23966653  0.48570185  1
  O  O301  1  0.92414912  0.23437424  0.96541503  1
  O  O302  1  0.94397522  0.56449962  0.48501380  1
  O  O303  1  0.93457123  0.57248420  0.97211675  1
  O  O304  1  0.92444666  0.90622272  0.49434298  1
  O  O305  1  0.93183663  0.90196871  0.96273993  1
  O  O306  1  0.24658098  0.07689965  0.47641363  1
  O  O307  1  0.24347029  0.06670137  0.98428393  1
  O  O308  1  0.22502740  0.39671268  0.48415714  1
  O  O309  1  0.23817198  0.41036625  0.98668451  1
  O  O310  1  0.22758422  0.72919604  0.48392105  1
  O  O311  1  0.23599465  0.73877483  0.98019176  1
  O  O312  1  0.56516556  0.07152700  0.48064301  1
  O  O313  1  0.56954180  0.07534796  0.96222422  1
  O  O314  1  0.57020249  0.40478927  0.48769074  1
  O  O315  1  0.58560647  0.40329379  0.97669458  1
  O  O316  1  0.57142817  0.74437416  0.46961592  1
  O  O317  1  0.57420731  0.72826244  0.97708610  1
  O  O318  1  0.90434830  0.07888942  0.48591154  1
  O  O319  1  0.89652233  0.07403572  0.96578575  1
  O  O320  1  0.90580599  0.40551381  0.46714866  1
  O  O321  1  0.89981339  0.40089161  0.96974408  1
  O  O322  1  0.90554004  0.72312946  0.47528070  1
  O  O323  1  0.90693656  0.73232901  0.96818812  1
  O  O324  1  0.08568759  0.26159006  0.23712453  1
  O  O325  1  0.09192589  0.26773874  0.72338500  1
  O  O326  1  0.09592759  0.60469972  0.23012237  1
  O  O327  1  0.09318592  0.59566770  0.72078279  1
  O  O328  1  0.10159789  0.92746752  0.21554975  1
  O  O329  1  0.08715700  0.92413340  0.72877000  1
  O  O330  1  0.41742885  0.24706371  0.22915613  1
  O  O331  1  0.43233471  0.26729948  0.72707423  1
  O  O332  1  0.42459173  0.59360547  0.23158490  1
  O  O333  1  0.42853280  0.59274660  0.74257216  1
  O  O334  1  0.43697626  0.93162286  0.22830645  1
  O  O335  1  0.43010326  0.93085064  0.74555947  1
  O  O336  1  0.76814688  0.26844723  0.24519781  1
  O  O337  1  0.76028320  0.26508931  0.73914153  1
  O  O338  1  0.76410054  0.59915011  0.23419423  1
  O  O339  1  0.77165072  0.60029176  0.74011921  1
  O  O340  1  0.75574323  0.92231940  0.23326944  1
  O  O341  1  0.76020288  0.92404474  0.72490610  1
  O  O342  1  0.08110694  0.09261144  0.21520335  1
  O  O343  1  0.05745254  0.09821798  0.73067866  1
  O  O344  1  0.05611965  0.43629962  0.23077921  1
  O  O345  1  0.06234009  0.43246025  0.72294586  1
  O  O346  1  0.06175370  0.76081358  0.22432613  1
  O  O347  1  0.06193389  0.76353687  0.72656317  1
  O  O348  1  0.40255444  0.08643419  0.21784618  1
  O  O349  1  0.41041567  0.10219514  0.74449238  1
  O  O350  1  0.39824265  0.42736858  0.24472892  1
  O  O351  1  0.40748192  0.41459568  0.72891797  1
  O  O352  1  0.41074924  0.76574353  0.24023570  1
  O  O353  1  0.40811629  0.75791623  0.73042660  1
  O  O354  1  0.73972926  0.09395960  0.23769037  1
  O  O355  1  0.73851896  0.09018434  0.73418657  1
  O  O356  1  0.74209709  0.44366538  0.22656458  1
  O  O357  1  0.73880492  0.43151666  0.73680420  1
  O  O358  1  0.73716031  0.75532239  0.23430365  1
  O  O359  1  0.73598175  0.76664215  0.72580522  1
