# generated using pymatgen
data_BaLaInIrO6
_symmetry_space_group_name_H-M   'P 1'
_cell_length_a   17.50594510
_cell_length_b   17.52931087
_cell_length_c   16.48664382
_cell_angle_alpha   89.97586005
_cell_angle_beta   89.98969895
_cell_angle_gamma   90.04346857
_symmetry_Int_Tables_number   1
_chemical_formula_structural   BaLaInIrO6
_chemical_formula_sum   'Ba36 La36 In36 Ir36 O216'
_cell_volume   5059.20747636
_cell_formula_units_Z   36
loop_
 _symmetry_equiv_pos_site_id
 _symmetry_equiv_pos_as_xyz
  1  'x, y, z'
loop_
 _atom_site_type_symbol
 _atom_site_label
 _atom_site_symmetry_multiplicity
 _atom_site_fract_x
 _atom_site_fract_y
 _atom_site_fract_z
 _atom_site_occupancy
  Ba  Ba0  1  0.50419166  0.33905071  0.62921363  1
  Ba  Ba1  1  0.16489053  0.00445572  0.62651659  1
  Ba  Ba2  1  0.17053208  0.65783404  0.87307704  1
  Ba  Ba3  1  -0.00541854  0.82223560  0.37371884  1
  Ba  Ba4  1  0.82607372  0.00675594  0.62381370  1
  Ba  Ba5  1  0.83043926  0.34440222  0.13250194  1
  Ba  Ba6  1  0.49765829  0.00371525  0.62431838  1
  Ba  Ba7  1  0.33668557  0.51227734  0.12415013  1
  Ba  Ba8  1  0.34154585  0.50522747  0.62705754  1
  Ba  Ba9  1  0.67090444  0.18191399  0.12643194  1
  Ba  Ba10  1  0.66334819  0.82533597  0.37396193  1
  Ba  Ba11  1  0.83349499  0.65703388  0.37373946  1
  Ba  Ba12  1  0.33141341  0.15651510  0.37356063  1
  Ba  Ba13  1  0.49925135  0.32776918  0.87514610  1
  Ba  Ba14  1  0.33185907  0.82780536  0.87186307  1
  Ba  Ba15  1  0.16807017  0.32893310  0.87406328  1
  Ba  Ba16  1  0.83195054  0.01302804  0.12829511  1
  Ba  Ba17  1  -0.00271925  0.82015690  0.87308921  1
  Ba  Ba18  1  0.50402075  0.66028629  0.87786159  1
  Ba  Ba19  1  0.66465871  0.49280899  0.87971046  1
  Ba  Ba20  1  1.00242428  0.50404524  0.61964942  1
  Ba  Ba21  1  0.33376794  0.16081507  0.87174983  1
  Ba  Ba22  1  0.66816879  0.48974564  0.37729478  1
  Ba  Ba23  1  0.66742459  0.50664884  0.62596251  1
  Ba  Ba24  1  0.83514646  0.32291535  0.37694460  1
  Ba  Ba25  1  0.33640215  0.17394618  0.62215662  1
  Ba  Ba26  1  0.66452527  0.82787121  0.87398391  1
  Ba  Ba27  1  0.66261933  0.83999918  0.62474667  1
  Ba  Ba28  1  0.49642570  0.67061276  0.62367439  1
  Ba  Ba29  1  0.50174102  0.98835419  0.37020710  1
  Ba  Ba30  1  0.83571728  0.65717917  0.87512067  1
  Ba  Ba31  1  0.49829365  0.99342998  0.87262980  1
  Ba  Ba32  1  0.16780978  0.34686531  0.12670366  1
  Ba  Ba33  1  0.16949496  0.67285976  0.62245677  1
  Ba  Ba34  1  0.99841986  0.18407359  0.12685597  1
  Ba  Ba35  1  0.66371948  0.15945801  0.87563515  1
  La  La36  1  0.50627553  0.65151678  0.37418468  1
  La  La37  1  0.83145383  0.98612863  0.37496710  1
  La  La38  1  0.15784649  0.01788172  0.12332734  1
  La  La39  1  0.67018893  0.51257332  0.13088670  1
  La  La40  1  0.34372562  0.84281275  0.62737820  1
  La  La41  1  0.16782186  0.67702953  0.12599599  1
  La  La42  1  1.00055950  0.84632842  0.62332809  1
  La  La43  1  0.49830569  0.01782221  0.12055876  1
  La  La44  1  0.33445130  0.48813569  0.87283321  1
  La  La45  1  0.66465792  0.15310525  0.36780395  1
  La  La46  1  0.83395002  0.98459828  0.87626777  1
  La  La47  1  1.00438997  0.51002184  0.12830627  1
  La  La48  1  0.16718662  0.34543625  0.62223450  1
  La  La49  1  -0.00852549  0.15136133  0.87446109  1
  La  La50  1  0.83368918  0.67600614  0.12811738  1
  La  La51  1  0.17123236  0.98525746  0.87840083  1
  La  La52  1  0.16732099  0.32311402  0.37518563  1
  La  La53  1  0.49628495  0.35193766  0.12593233  1
  La  La54  1  0.33376932  0.84506861  0.12430581  1
  La  La55  1  -0.00746653  0.15356942  0.37363519  1
  La  La56  1  0.33271495  0.82600566  0.37759001  1
  La  La57  1  0.00382137  0.49663645  0.88109621  1
  La  La58  1  0.49748305  0.68468101  0.12531534  1
  La  La59  1  1.00176134  0.18130319  0.62574285  1
  La  La60  1  0.16907258  0.64596605  0.37482365  1
  La  La61  1  0.33975341  0.18819201  0.11968481  1
  La  La62  1  1.00586576  0.84633473  0.12352068  1
  La  La63  1  0.83580065  0.32503292  0.87766776  1
  La  La64  1  0.67136164  0.17865781  0.62510552  1
  La  La65  1  -0.00373363  0.48701589  0.37492598  1
  La  La66  1  0.66838013  0.85119247  0.12445559  1
  La  La67  1  0.33402144  0.48478894  0.38001015  1
  La  La68  1  0.51094884  0.32008996  0.37839445  1
  La  La69  1  0.16987969  0.98083127  0.37229688  1
  La  La70  1  0.82686512  0.67879435  0.62478575  1
  La  La71  1  0.82578887  0.34836593  0.62625429  1
  In  In72  1  -0.00124292  0.33348702  0.74911919  1
  In  In73  1  0.83035319  0.16766775  -0.00074371  1
  In  In74  1  0.00062396  0.33690891  -0.00032945  1
  In  In75  1  0.17101432  0.50444994  0.00182135  1
  In  In76  1  0.66639992  0.66511767  0.49880507  1
  In  In77  1  0.16685952  0.82831517  0.49910953  1
  In  In78  1  0.83332380  0.83236920  0.75067165  1
  In  In79  1  0.50132973  0.49543319  0.49929214  1
  In  In80  1  -0.00013457  0.33033662  0.49981560  1
  In  In81  1  0.66921798  0.33334502  0.75491429  1
  In  In82  1  0.33518304  0.66666355  0.25115948  1
  In  In83  1  0.33160344  0.33163003  0.74634678  1
  In  In84  1  0.16554635  0.16739484  0.25203617  1
  In  In85  1  -0.00113501  0.66176745  0.74573081  1
  In  In86  1  0.33305522  0.66494965  0.75039088  1
  In  In87  1  0.33112084  -0.00053571  0.49520663  1
  In  In88  1  0.16489079  0.83120273  0.74654104  1
  In  In89  1  -0.00074625  0.66499472  0.49956015  1
  In  In90  1  0.16258751  0.16479777  0.50021847  1
  In  In91  1  0.83281586  0.49954186  0.00523870  1
  In  In92  1  0.16590396  0.16949657  -0.00206780  1
  In  In93  1  0.83418017  0.49890401  0.75189682  1
  In  In94  1  0.33578196  0.33692680  0.25258099  1
  In  In95  1  0.00014548  -0.00049753  -0.00269761  1
  In  In96  1  0.83430092  0.83175327  0.00360255  1
  In  In97  1  0.66374568  0.00264632  0.49953740  1
  In  In98  1  0.83257842  0.83112780  0.24808989  1
  In  In99  1  0.49916932  0.16939894  0.24800221  1
  In  In100  1  0.00020086  0.00024316  0.25251708  1
  In  In101  1  0.33059392  -0.00090909  0.24602079  1
  In  In102  1  0.50203417  0.16613156  0.74725515  1
  In  In103  1  0.32923385  0.00172725  0.75001813  1
  In  In104  1  0.83249918  0.83353411  0.49952322  1
  In  In105  1  0.33025882  0.00167491  0.00349273  1
  In  In106  1  0.66642468  0.66878565  0.00411679  1
  In  In107  1  0.50097315  0.83222155  0.75148577  1
  Ir  Ir108  1  0.00434850  0.66351031  0.24767896  1
  Ir  Ir109  1  0.66514227  0.00132972  0.24645490  1
  Ir  Ir110  1  0.50261061  0.50227671  0.24857664  1
  Ir  Ir111  1  0.66655646  0.66561289  0.74879458  1
  Ir  Ir112  1  0.16834818  0.82765881  0.00655291  1
  Ir  Ir113  1  0.83616371  0.49719256  0.49557699  1
  Ir  Ir114  1  0.50041975  0.83431304  0.24573274  1
  Ir  Ir115  1  0.33584971  0.66850152  0.00354518  1
  Ir  Ir116  1  0.16929371  0.49775526  0.74545170  1
  Ir  Ir117  1  0.49410252  0.83015694  0.49361898  1
  Ir  Ir118  1  0.66135228  0.66514676  0.24753182  1
  Ir  Ir119  1  0.50250116  0.17028347  0.00306814  1
  Ir  Ir120  1  0.00258277  0.66442969  0.00643030  1
  Ir  Ir121  1  0.16621935  0.82573097  0.24770465  1
  Ir  Ir122  1  0.66276050  0.00128133  0.00198298  1
  Ir  Ir123  1  0.33542359  0.66626495  0.49207426  1
  Ir  Ir124  1  0.16689265  0.50197326  0.25622701  1
  Ir  Ir125  1  0.33612081  0.33249826  0.49531633  1
  Ir  Ir126  1  0.83713353  0.16437155  0.74663719  1
  Ir  Ir127  1  -0.00321210  0.00394852  0.50148413  1
  Ir  Ir128  1  0.15857714  0.16688984  0.74815048  1
  Ir  Ir129  1  0.66292221  0.33661969  0.00760238  1
  Ir  Ir130  1  0.17209496  0.49835042  0.49685778  1
  Ir  Ir131  1  0.33836934  0.33590960  0.00089820  1
  Ir  Ir132  1  0.67221374  0.32794312  0.49536727  1
  Ir  Ir133  1  0.00135444  0.33984933  0.25246400  1
  Ir  Ir134  1  0.82972141  0.17023082  0.25716426  1
  Ir  Ir135  1  0.50160012  0.50067412  0.00454819  1
  Ir  Ir136  1  0.66907343  0.00368022  0.75199362  1
  Ir  Ir137  1  0.50129911  0.50187349  0.75544005  1
  Ir  Ir138  1  -0.00236861  0.00359881  0.74731305  1
  Ir  Ir139  1  0.83777059  0.50237129  0.25284519  1
  Ir  Ir140  1  0.66481827  0.33670125  0.25330449  1
  Ir  Ir141  1  0.50099849  0.83596198  0.00793066  1
  Ir  Ir142  1  0.50318482  0.16966363  0.49550114  1
  Ir  Ir143  1  0.83409336  0.16466820  0.50029412  1
  O  O144  1  0.32064684  0.33177171  0.12165562  1
  O  O145  1  0.30435794  0.33286193  0.61569179  1
  O  O146  1  0.30748546  0.66542866  0.12375354  1
  O  O147  1  0.31821338  0.65859014  0.61228239  1
  O  O148  1  0.29318098  0.98327334  0.12548208  1
  O  O149  1  0.31571881  0.98686133  0.62077169  1
  O  O150  1  0.63226868  0.33665852  0.13157092  1
  O  O151  1  0.65621111  0.32013968  0.61520109  1
  O  O152  1  0.63125769  0.65187560  0.13106709  1
  O  O153  1  0.64766854  0.66343533  0.62964564  1
  O  O154  1  0.63266121  0.99359685  0.12396063  1
  O  O155  1  0.65136757  1.00420828  0.63051277  1
  O  O156  1  0.98114367  0.34611251  0.13302490  1
  O  O157  1  0.96353918  0.32201686  0.62276093  1
  O  O158  1  0.97299517  0.65109380  0.12807741  1
  O  O159  1  0.96135468  0.65202946  0.62152976  1
  O  O160  1  0.98179933  0.98374143  0.12552993  1
  O  O161  1  0.97161546  0.98935827  0.62408174  1
  O  O162  1  0.20359197  0.15555672  0.12661998  1
  O  O163  1  0.18576445  0.15891576  0.63012334  1
  O  O164  1  0.18679775  0.50542730  0.13509390  1
  O  O165  1  0.19580959  0.48818709  0.62068241  1
  O  O166  1  0.19780254  0.81354376  0.12829104  1
  O  O167  1  0.20664013  0.83452521  0.62109040  1
  O  O168  1  0.52236885  0.16150547  0.12134426  1
  O  O169  1  0.53332374  0.16468753  0.61327425  1
  O  O170  1  0.53306352  0.49026822  0.12769157  1
  O  O171  1  0.51327453  0.49862465  0.63231631  1
  O  O172  1  0.53331412  0.82399556  0.12823409  1
  O  O173  1  0.51168372  0.82874786  0.61389122  1
  O  O174  1  0.84822228  0.16928015  0.13383548  1
  O  O175  1  0.86671494  0.15766474  0.62235891  1
  O  O176  1  0.86680860  0.50275158  0.13464053  1
  O  O177  1  0.85255475  0.48893149  0.61573282  1
  O  O178  1  0.86996697  0.82517504  0.12730917  1
  O  O179  1  0.86341740  0.83119135  0.62562273  1
  O  O180  1  0.12797124  0.18636890  0.37662262  1
  O  O181  1  0.12763842  0.17492323  0.86652946  1
  O  O182  1  0.13658475  0.50530125  0.37630937  1
  O  O183  1  0.14130920  0.49986728  0.86733692  1
  O  O184  1  0.14193002  0.83887733  0.36546102  1
  O  O185  1  0.14575549  0.84004447  0.88700852  1
  O  O186  1  0.47928539  0.18174952  0.37634340  1
  O  O187  1  0.48668779  0.16906853  0.88346523  1
  O  O188  1  0.47164321  0.50968986  0.36772888  1
  O  O189  1  0.47156889  0.50404531  0.88204057  1
  O  O190  1  0.46844631  0.83518675  0.36817588  1
  O  O191  1  0.48388920  0.83638121  0.88716580  1
  O  O192  1  0.80007823  0.16892334  0.38080281  1
  O  O193  1  0.81345605  0.18198510  0.86453201  1
  O  O194  1  0.81492511  0.50041728  0.37353139  1
  O  O195  1  0.81431329  0.50196675  0.87928815  1
  O  O196  1  0.81293295  0.84165657  0.37130379  1
  O  O197  1  0.81535755  0.84012496  0.87765311  1
  O  O198  1  0.03228121  0.01489144  0.38195050  1
  O  O199  1  0.03334088  0.01183753  0.86574521  1
  O  O200  1  0.03010616  0.34406558  0.37328503  1
  O  O201  1  0.01921542  0.35916884  0.87206531  1
  O  O202  1  0.03405449  0.66817239  0.36693442  1
  O  O203  1  0.01908866  0.66275114  0.88534882  1
  O  O204  1  0.35378284  -0.00894462  0.36925573  1
  O  O205  1  0.34696848  0.00045105  0.87934810  1
  O  O206  1  0.37152202  0.34132171  0.37738785  1
  O  O207  1  0.34797542  0.34303015  0.87961034  1
  O  O208  1  0.36849981  0.68304927  0.37393605  1
  O  O209  1  0.35453770  0.67193958  0.88568680  1
  O  O210  1  0.69365025  0.00949258  0.36721674  1
  O  O211  1  0.69633662  0.00268660  0.87848971  1
  O  O212  1  0.68797274  0.33576483  0.37401525  1
  O  O213  1  0.69534275  0.33730223  0.88603352  1
  O  O214  1  0.68189111  0.66973068  0.36630253  1
  O  O215  1  0.68320085  0.66686729  0.87230360  1
  O  O216  1  0.07209843  0.09223270  0.02269484  1
  O  O217  1  0.05569217  0.10020291  0.52215880  1
  O  O218  1  0.06721414  0.44287179  0.01816061  1
  O  O219  1  0.08671850  0.42269205  0.51548840  1
  O  O220  1  0.06809881  0.76304647  0.02927321  1
  O  O221  1  0.06892174  0.76398897  0.52666738  1
  O  O222  1  0.40687583  0.10191569  0.02823963  1
  O  O223  1  0.41521841  0.09599179  0.50999495  1
  O  O224  1  0.40993383  0.42959943  0.01948311  1
  O  O225  1  0.40405656  0.42373125  0.51001410  1
  O  O226  1  0.40566248  0.76521931  0.03319726  1
  O  O227  1  0.39467567  0.76490177  0.51448831  1
  O  O228  1  0.73373380  0.09035957  0.01538097  1
  O  O229  1  0.73660683  0.10573256  0.51875343  1
  O  O230  1  0.72672904  0.43022042  0.03248192  1
  O  O231  1  0.74580917  0.41976028  0.52000160  1
  O  O232  1  0.73982603  0.76079414  0.03722639  1
  O  O233  1  0.74375536  0.75224104  0.52319084  1
  O  O234  1  0.09619764  0.26553472  0.01767876  1
  O  O235  1  0.09697209  0.26409128  0.53076116  1
  O  O236  1  0.09936185  0.60460050  0.02612677  1
  O  O237  1  0.10201159  0.58988561  0.50933703  1
  O  O238  1  0.10325522  0.92270458  0.02753130  1
  O  O239  1  0.08397634  0.92955588  0.51691654  1
  O  O240  1  0.43394264  0.26484892  0.02824579  1
  O  O241  1  0.43086515  0.26305109  0.51753230  1
  O  O242  1  0.43527057  0.60268160  0.02663646  1
  O  O243  1  0.42448968  0.59582449  0.50171764  1
  O  O244  1  0.43118685  0.92749776  0.03286842  1
  O  O245  1  0.42019178  0.91384810  0.51356537  1
  O  O246  1  0.75631472  0.26814076  0.01638392  1
  O  O247  1  0.76832576  0.25943516  0.52664126  1
  O  O248  1  0.76153178  0.59510443  0.03499303  1
  O  O249  1  0.76740010  0.58826917  0.51789983  1
  O  O250  1  0.75189021  0.92933575  0.02106010  1
  O  O251  1  0.75894088  0.93133151  0.50230037  1
  O  O252  1  0.22707977  0.06097670  0.27544495  1
  O  O253  1  0.22272523  0.07590487  0.77654980  1
  O  O254  1  0.23640025  0.41023475  0.28325578  1
  O  O255  1  0.24255058  0.41253633  0.76421468  1
  O  O256  1  0.22706693  0.72802325  0.27022720  1
  O  O257  1  0.24065619  0.73937213  0.76461876  1
  O  O258  1  0.57692640  0.07504989  0.26422771  1
  O  O259  1  0.58139421  0.07280437  0.76459846  1
  O  O260  1  0.56495723  0.40143491  0.27168789  1
  O  O261  1  0.57381727  0.41414749  0.76665577  1
  O  O262  1  0.56236185  0.73098692  0.26775495  1
  O  O263  1  0.57851650  0.73874552  0.76304253  1
  O  O264  1  0.89957156  0.07993110  0.28060039  1
  O  O265  1  0.90269781  0.07118758  0.77943301  1
  O  O266  1  0.91146661  0.41313860  0.27958105  1
  O  O267  1  0.89176405  0.38853094  0.76299635  1
  O  O268  1  0.90906148  0.72809381  0.25841546  1
  O  O269  1  0.90305150  0.73436936  0.76069981  1
  O  O270  1  0.25601439  0.24766826  0.27205119  1
  O  O271  1  0.24784250  0.23789174  0.76437646  1
  O  O272  1  0.26364580  0.56685850  0.28274684  1
  O  O273  1  0.26264509  0.56497037  0.77299397  1
  O  O274  1  0.26405473  0.88652426  0.26704689  1
  O  O275  1  0.24203151  0.91885400  0.77552629  1
  O  O276  1  0.59730468  0.24404372  0.27708935  1
  O  O277  1  0.59850181  0.23923413  0.75322185  1
  O  O278  1  0.59256938  0.57218366  0.27354827  1
  O  O279  1  0.59511342  0.57333974  0.76779343  1
  O  O280  1  0.59842821  0.90190778  0.25875826  1
  O  O281  1  0.59576033  0.91441029  0.76321177  1
  O  O282  1  0.93206328  0.23983005  0.27599649  1
  O  O283  1  0.93540433  0.22340231  0.76689987  1
  O  O284  1  0.94003516  0.56624469  0.27260321  1
  O  O285  1  0.93917593  0.55712622  0.77276618  1
  O  O286  1  0.91847518  0.91677653  0.27524321  1
  O  O287  1  0.92508896  0.91821814  0.77281448  1
  O  O288  1  0.25881845  0.24879375  0.47489334  1
  O  O289  1  0.27237774  0.24068050  0.99163046  1
  O  O290  1  0.26628156  0.57049056  0.46584386  1
  O  O291  1  0.27224003  0.57270146  0.97802838  1
  O  O292  1  0.25469444  0.90383644  0.46346059  1
  O  O293  1  0.26087655  0.89287844  0.99241241  1
  O  O294  1  0.60041058  0.23694644  0.46990679  1
  O  O295  1  0.59393277  0.24338377  0.98387407  1
  O  O296  1  0.58727057  0.57638725  0.48047850  1
  O  O297  1  0.59188676  0.56843102  0.99401167  1
  O  O298  1  0.58332930  0.90510375  0.48330267  1
  O  O299  1  0.59653430  0.90350343  0.99224218  1
  O  O300  1  0.93174866  0.22576807  0.47751208  1
  O  O301  1  0.92774440  0.23828526  0.97125168  1
  O  O302  1  0.92838060  0.56417691  0.47080258  1
  O  O303  1  0.94268942  0.56569133  0.99112642  1
  O  O304  1  0.92751187  0.91687819  0.47949758  1
  O  O305  1  0.92546788  0.90830757  0.97846152  1
  O  O306  1  0.22922851  0.06800292  0.47177460  1
  O  O307  1  0.22694893  0.06428804  0.98104545  1
  O  O308  1  0.24333612  0.40406501  0.46781083  1
  O  O309  1  0.24993793  0.41087987  0.98388428  1
  O  O310  1  0.24142733  0.73060181  0.46529211  1
  O  O311  1  0.23446425  0.72980655  0.99216654  1
  O  O312  1  0.57681758  0.08405768  0.46836843  1
  O  O313  1  0.56463631  0.06891904  0.99026535  1
  O  O314  1  0.57574354  0.39624144  0.47799466  1
  O  O315  1  0.56448176  0.40198307  0.99174623  1
  O  O316  1  0.56255892  0.73876408  0.47376721  1
  O  O317  1  0.56826613  0.74292864  0.99657466  1
  O  O318  1  0.89936698  0.07005205  0.46973320  1
  O  O319  1  0.90209258  0.07227507  0.96834737  1
  O  O320  1  0.91165254  0.41132264  0.47836033  1
  O  O321  1  0.89643085  0.39933850  0.98072981  1
  O  O322  1  0.90726793  0.73993799  0.48115744  1
  O  O323  1  0.90698811  0.72657347  0.99668080  1
  O  O324  1  0.09097376  0.27122570  0.23563649  1
  O  O325  1  0.09383557  0.25904035  0.71671980  1
  O  O326  1  0.10181266  0.59922954  0.22898884  1
  O  O327  1  0.09994074  0.58601767  0.72985292  1
  O  O328  1  0.10333092  0.92235516  0.22462709  1
  O  O329  1  0.07808632  0.92426708  0.72622520  1
  O  O330  1  0.43146636  0.26645288  0.22335626  1
  O  O331  1  0.42282662  0.25731221  0.73535749  1
  O  O332  1  0.43994597  0.59980037  0.22831747  1
  O  O333  1  0.42845150  0.58784080  0.74382457  1
  O  O334  1  0.43506079  0.92733669  0.21564651  1
  O  O335  1  0.41708538  0.91598761  0.73329381  1
  O  O336  1  0.75844174  0.26496617  0.23864544  1
  O  O337  1  0.77141313  0.25634931  0.72172540  1
  O  O338  1  0.76088742  0.59599381  0.22279323  1
  O  O339  1  0.76257535  0.59935606  0.72666284  1
  O  O340  1  0.75065515  0.92576518  0.22581591  1
  O  O341  1  0.75769449  0.93272604  0.74415987  1
  O  O342  1  0.07069529  0.09401231  0.22792857  1
  O  O343  1  0.06081832  0.10040065  0.72507750  1
  O  O344  1  0.06669532  0.43889296  0.23462799  1
  O  O345  1  0.08560886  0.42053392  0.71994286  1
  O  O346  1  0.06894460  0.76038453  0.21789800  1
  O  O347  1  0.06666556  0.76269901  0.72208567  1
  O  O348  1  0.40132085  0.09766231  0.21877633  1
  O  O349  1  0.41005810  0.09046505  0.73366968  1
  O  O350  1  0.41231410  0.43286309  0.23118418  1
  O  O351  1  0.41066466  0.43044980  0.74896987  1
  O  O352  1  0.40492851  0.76928245  0.22415825  1
  O  O353  1  0.40584574  0.75829135  0.72767542  1
  O  O354  1  0.73252079  0.10175611  0.24010415  1
  O  O355  1  0.73786129  0.10178170  0.72771697  1
  O  O356  1  0.73651347  0.43612400  0.23065188  1
  O  O357  1  0.74278740  0.42131529  0.72700986  1
  O  O358  1  0.73228042  0.75475696  0.21859444  1
  O  O359  1  0.73815390  0.75345914  0.72905464  1
