# generated using pymatgen
data_BaLaInIrO6
_symmetry_space_group_name_H-M   'P 1'
_cell_length_a   17.53201966
_cell_length_b   17.56347919
_cell_length_c   16.50273346
_cell_angle_alpha   90.00611230
_cell_angle_beta   89.97525813
_cell_angle_gamma   89.99572872
_symmetry_Int_Tables_number   1
_chemical_formula_structural   BaLaInIrO6
_chemical_formula_sum   'Ba36 La36 In36 Ir36 O216'
_cell_volume   5081.57500822
_cell_formula_units_Z   36
loop_
 _symmetry_equiv_pos_site_id
 _symmetry_equiv_pos_as_xyz
  1  'x, y, z'
loop_
 _atom_site_type_symbol
 _atom_site_label
 _atom_site_symmetry_multiplicity
 _atom_site_fract_x
 _atom_site_fract_y
 _atom_site_fract_z
 _atom_site_occupancy
  Ba  Ba0  1  0.49797492  0.32286269  0.87298531  1
  Ba  Ba1  1  0.66489328  0.15903774  0.37444204  1
  Ba  Ba2  1  0.66826423  0.17622299  0.62233624  1
  Ba  Ba3  1  0.99848014  0.84812732  0.62716103  1
  Ba  Ba4  1  0.16324994  0.00850535  0.62290907  1
  Ba  Ba5  1  0.66741616  0.48972088  0.37565181  1
  Ba  Ba6  1  0.66396948  0.50708302  0.12591057  1
  Ba  Ba7  1  0.33392600  0.17848683  0.62135927  1
  Ba  Ba8  1  0.32990672  0.84198277  0.12649712  1
  Ba  Ba9  1  0.50140835  0.65635182  0.87838627  1
  Ba  Ba10  1  -0.00509944  0.48702152  0.37345929  1
  Ba  Ba11  1  0.33482347  0.82814236  0.37689476  1
  Ba  Ba12  1  0.83318212  0.32036228  0.87494415  1
  Ba  Ba13  1  0.16842602  0.66251653  0.37372394  1
  Ba  Ba14  1  0.33277302  0.50529282  0.62316752  1
  Ba  Ba15  1  0.66949451  0.17185263  0.12351645  1
  Ba  Ba16  1  0.50113541  0.32572662  0.36972629  1
  Ba  Ba17  1  -0.00406117  0.82259201  0.37707031  1
  Ba  Ba18  1  0.66516927  0.48853670  0.87689665  1
  Ba  Ba19  1  -0.00259667  0.82655689  0.87655985  1
  Ba  Ba20  1  -0.00389272  0.48757065  0.87607066  1
  Ba  Ba21  1  0.33274115  0.16207744  0.37522556  1
  Ba  Ba22  1  0.16660605  0.33961464  0.62640173  1
  Ba  Ba23  1  0.33133052  0.82501898  0.87833019  1
  Ba  Ba24  1  0.33649546  0.50851801  0.12457881  1
  Ba  Ba25  1  0.66532586  0.82351021  0.87781123  1
  Ba  Ba26  1  0.49417004  0.34038773  0.62319459  1
  Ba  Ba27  1  0.83873492  0.65544746  0.37607198  1
  Ba  Ba28  1  0.83491007  0.01427663  0.62281691  1
  Ba  Ba29  1  0.66350736  0.82457389  0.37658139  1
  Ba  Ba30  1  0.50109554  0.67429067  0.62828981  1
  Ba  Ba31  1  0.00152420  0.15670138  0.87483873  1
  Ba  Ba32  1  1.00634198  0.51104986  0.62720834  1
  Ba  Ba33  1  0.33288588  0.49123204  0.37650256  1
  Ba  Ba34  1  0.32953503  0.15857422  0.87209935  1
  Ba  Ba35  1  1.00175248  0.84523327  0.12578718  1
  La  La36  1  0.83330978  0.34234963  0.62702663  1
  La  La37  1  0.50124874  0.34588991  0.12591864  1
  La  La38  1  0.66915779  0.84530945  0.12614283  1
  La  La39  1  0.16436418  0.68449637  0.62363522  1
  La  La40  1  1.00503620  0.52107976  0.12375056  1
  La  La41  1  0.49718340  0.68301623  0.12570498  1
  La  La42  1  0.17526516  0.32020016  0.87214269  1
  La  La43  1  0.83602666  0.98707051  0.37392068  1
  La  La44  1  0.82780357  0.68345920  0.62875055  1
  La  La45  1  0.33616593  0.84617611  0.62671156  1
  La  La46  1  0.33436818  0.18119440  0.12419878  1
  La  La47  1  0.99973247  0.17849867  0.12358234  1
  La  La48  1  0.16417741  0.68493996  0.12673525  1
  La  La49  1  0.16052684  0.01543868  0.12167777  1
  La  La50  1  0.65930791  0.15283459  0.86884552  1
  La  La51  1  0.16959840  0.33053885  0.38031271  1
  La  La52  1  0.00118224  0.15634894  0.37619977  1
  La  La53  1  0.49612396  0.01250302  0.62355329  1
  La  La54  1  0.50837869  0.64746547  0.37614926  1
  La  La55  1  0.82915038  0.68169528  0.13028739  1
  La  La56  1  0.50072090  0.00381077  0.12835612  1
  La  La57  1  0.83239424  0.34464881  0.12074087  1
  La  La58  1  0.33383626  0.48540395  0.86946645  1
  La  La59  1  0.67407302  0.85550706  0.62837928  1
  La  La60  1  0.16879979  0.98423978  0.87256014  1
  La  La61  1  0.50251983  0.99001631  0.87259045  1
  La  La62  1  0.83942530  0.65155197  0.87489736  1
  La  La63  1  0.83045425  0.00870334  0.12212531  1
  La  La64  1  0.66605361  0.51080387  0.62736143  1
  La  La65  1  0.17363134  0.65146663  0.87479945  1
  La  La66  1  0.49635702  1.00207310  0.38406230  1
  La  La67  1  1.00249364  0.17420085  0.62928750  1
  La  La68  1  0.17143336  0.98680117  0.37703990  1
  La  La69  1  0.16152193  0.34964250  0.12546595  1
  La  La70  1  0.83540057  0.32210122  0.37468070  1
  La  La71  1  0.83765704  0.99130767  0.87148802  1
  In  In72  1  0.49950230  0.16587775  0.00113340  1
  In  In73  1  0.16746066  0.50108522  0.74996610  1
  In  In74  1  0.50064182  0.83570139  -0.00074244  1
  In  In75  1  0.66890404  -0.00129863  0.25330291  1
  In  In76  1  0.66500137  0.33192397  0.74873771  1
  In  In77  1  0.50097628  0.83434441  0.50264521  1
  In  In78  1  0.83266783  0.16410500  -0.00292485  1
  In  In79  1  0.83350446  0.83105999  -0.00130427  1
  In  In80  1  0.33199008  0.33522540  0.00302162  1
  In  In81  1  0.49879615  0.16260383  0.24742617  1
  In  In82  1  0.66994489  0.32952760  0.24775269  1
  In  In83  1  0.32984999  0.00320882  0.00220967  1
  In  In84  1  0.16720599  0.16212760  0.74846326  1
  In  In85  1  0.00086764  0.00424211  0.24795833  1
  In  In86  1  0.00264553  0.33174221  0.00092567  1
  In  In87  1  0.16471983  0.50276360  0.49877613  1
  In  In88  1  0.33274090  0.66388296  0.00095552  1
  In  In89  1  0.83539287  0.49991828  0.50170789  1
  In  In90  1  0.33424217  0.66755914  0.75036415  1
  In  In91  1  0.16452043  0.50080711  0.25036264  1
  In  In92  1  0.33582330  0.66782406  0.50125136  1
  In  In93  1  0.50208091  0.16978083  0.50054683  1
  In  In94  1  0.16568533  0.83772103  0.25045951  1
  In  In95  1  0.83191674  0.83482020  0.49974537  1
  In  In96  1  0.00057723  0.33035287  0.75079140  1
  In  In97  1  0.66656822  0.66878122  0.75445912  1
  In  In98  1  0.83452127  0.49885246  0.24763163  1
  In  In99  1  0.32979942  0.00381675  0.50170840  1
  In  In100  1  0.49994483  0.49933922  0.24859209  1
  In  In101  1  0.83489844  0.50027417  0.74836335  1
  In  In102  1  0.83391121  0.49970962  0.00343102  1
  In  In103  1  0.66648750  0.66795889  0.50223032  1
  In  In104  1  0.00287232  0.67134280  0.75121723  1
  In  In105  1  0.50205834  0.83694938  0.25170828  1
  In  In106  1  0.33543611  0.66749975  0.25033968  1
  In  In107  1  0.00040594  0.00441754  0.49838110  1
  Ir  Ir108  1  0.66976608  0.00300186  0.50295711  1
  Ir  Ir109  1  0.16499611  0.50037759  0.00102495  1
  Ir  Ir110  1  0.16589357  0.16564073  0.00484223  1
  Ir  Ir111  1  0.83115474  0.16259378  0.74654119  1
  Ir  Ir112  1  -0.00075193  0.66986640  0.50113286  1
  Ir  Ir113  1  0.16587354  0.17055359  0.24719383  1
  Ir  Ir114  1  0.00452189  0.66785435  0.00156865  1
  Ir  Ir115  1  0.50349564  0.49477779  0.50275979  1
  Ir  Ir116  1  0.66795604  0.66544733  0.00702974  1
  Ir  Ir117  1  0.66481106  0.32988146  -0.00059884  1
  Ir  Ir118  1  0.32740095  0.32836849  0.24881584  1
  Ir  Ir119  1  0.33553796  -0.00286075  0.75133361  1
  Ir  Ir120  1  0.50218790  0.49950939  -0.00211223  1
  Ir  Ir121  1  -0.00032492  0.00154038  -0.00144936  1
  Ir  Ir122  1  -0.00262057  0.32555894  0.49466510  1
  Ir  Ir123  1  0.83030819  0.83816331  0.75150996  1
  Ir  Ir124  1  0.49768914  0.16068295  0.75180477  1
  Ir  Ir125  1  0.49987183  0.49746603  0.75089610  1
  Ir  Ir126  1  0.50346761  0.83973584  0.74838969  1
  Ir  Ir127  1  0.16106923  0.17238093  0.49437933  1
  Ir  Ir128  1  0.16457669  0.83506750  0.50312453  1
  Ir  Ir129  1  0.66835318  -0.00070476  -0.00362264  1
  Ir  Ir130  1  0.32702958  0.00574634  0.24864025  1
  Ir  Ir131  1  0.16094822  0.83368530  -0.00319425  1
  Ir  Ir132  1  0.83959897  0.16448319  0.25252183  1
  Ir  Ir133  1  0.00114033  0.32645598  0.24995260  1
  Ir  Ir134  1  0.66651826  0.66798816  0.24903737  1
  Ir  Ir135  1  0.33523926  0.33162803  0.75021335  1
  Ir  Ir136  1  0.83381481  0.16965112  0.49527392  1
  Ir  Ir137  1  0.66880045  0.33530674  0.50192289  1
  Ir  Ir138  1  -0.00121338  0.00028106  0.75293663  1
  Ir  Ir139  1  0.66688270  0.00199709  0.75108595  1
  Ir  Ir140  1  -0.00239082  0.66877950  0.24731519  1
  Ir  Ir141  1  0.16637730  0.83674323  0.75183125  1
  Ir  Ir142  1  0.83390965  0.83373952  0.24710770  1
  Ir  Ir143  1  0.33240541  0.33308427  0.49668426  1
  O  O144  1  0.29917003  0.32922954  0.12948624  1
  O  O145  1  0.31622550  0.33790243  0.62107183  1
  O  O146  1  0.29672318  0.66247522  0.12190656  1
  O  O147  1  0.30056105  0.66507631  0.62847813  1
  O  O148  1  0.29399064  1.00008650  0.13026947  1
  O  O149  1  0.31171015  0.98951237  0.63235249  1
  O  O150  1  0.63546413  0.32507683  0.11638427  1
  O  O151  1  0.64501059  0.33068002  0.62003460  1
  O  O152  1  0.63470490  0.66906149  0.12819692  1
  O  O153  1  0.64798293  0.65165891  0.62890487  1
  O  O154  1  0.63954564  0.99312304  0.11626614  1
  O  O155  1  0.63598023  0.99717450  0.62769272  1
  O  O156  1  0.96978820  0.31564502  0.13283672  1
  O  O157  1  0.96847180  0.31298760  0.61421854  1
  O  O158  1  0.96908304  0.66449743  0.12443968  1
  O  O159  1  0.96956309  0.67176102  0.62076454  1
  O  O160  1  0.96913190  1.00658365  0.11950793  1
  O  O161  1  0.98393273  1.00842308  0.62970690  1
  O  O162  1  0.19707456  0.15071512  0.12689094  1
  O  O163  1  0.18275635  0.16316745  0.61439793  1
  O  O164  1  0.18623155  0.48781435  0.12032902  1
  O  O165  1  0.18205685  0.49625164  0.62335106  1
  O  O166  1  0.17842738  0.82459890  0.11738539  1
  O  O167  1  0.19634323  0.82618659  0.62899856  1
  O  O168  1  0.52273814  0.13822347  0.12316458  1
  O  O169  1  0.51816167  0.15566200  0.63127507  1
  O  O170  1  0.51410504  0.48197601  0.11695158  1
  O  O171  1  0.53082720  0.49237982  0.62769694  1
  O  O172  1  0.53362723  0.83201600  0.12329245  1
  O  O173  1  0.53740540  0.83613225  0.63132957  1
  O  O174  1  0.86513155  0.14628360  0.13231803  1
  O  O175  1  0.86450222  0.16518534  0.61985410  1
  O  O176  1  0.87107146  0.48520220  0.12605285  1
  O  O177  1  0.85978346  0.47852202  0.62305967  1
  O  O178  1  0.85335096  0.82366472  0.12698678  1
  O  O179  1  0.84979397  0.82753256  0.63196519  1
  O  O180  1  0.13573696  0.18826535  0.36849042  1
  O  O181  1  0.15084428  0.18250145  0.88266384  1
  O  O182  1  0.14283933  0.48413609  0.37419931  1
  O  O183  1  0.14208897  0.51250105  0.88380492  1
  O  O184  1  0.14474362  0.84619347  0.38163981  1
  O  O185  1  0.14317711  0.84996262  0.87437979  1
  O  O186  1  0.48478033  0.15528545  0.37403266  1
  O  O187  1  0.47972956  0.15902484  0.87135972  1
  O  O188  1  0.48657407  0.50502166  0.38045559  1
  O  O189  1  0.47182983  0.50345203  0.87319492  1
  O  O190  1  0.48510077  0.86359121  0.37615868  1
  O  O191  1  0.48018884  0.85045490  0.86902695  1
  O  O192  1  0.81067713  0.18463285  0.37241716  1
  O  O193  1  0.79977308  0.16250433  0.86777520  1
  O  O194  1  0.82077792  0.49450075  0.37428578  1
  O  O195  1  0.81612246  0.51599430  0.87851507  1
  O  O196  1  0.81337880  0.84445440  0.36784769  1
  O  O197  1  0.81253789  0.85159006  0.87247696  1
  O  O198  1  0.03651935  0.01653985  0.37288770  1
  O  O199  1  0.03031228  -0.00067082  0.87717830  1
  O  O200  1  0.03131485  0.32927056  0.37180993  1
  O  O201  1  0.03847860  0.32615281  0.87828789  1
  O  O202  1  0.02061022  0.66845429  0.37257405  1
  O  O203  1  0.03620197  0.67026169  0.88306048  1
  O  O204  1  0.35906689  0.00554232  0.36953105  1
  O  O205  1  0.36327963  0.00028022  0.87094211  1
  O  O206  1  0.35127147  0.32666841  0.37172221  1
  O  O207  1  0.34501430  0.33139983  0.87288267  1
  O  O208  1  0.37440527  0.67439214  0.37643795  1
  O  O209  1  0.34980257  0.67245173  0.87602174  1
  O  O210  1  0.69978292  0.00128111  0.38260083  1
  O  O211  1  0.70059479  0.00952335  0.87425000  1
  O  O212  1  0.69829533  0.33558965  0.37966844  1
  O  O213  1  0.68466824  0.33001640  0.87952981  1
  O  O214  1  0.68835415  0.66489243  0.36904346  1
  O  O215  1  0.70029766  0.66611633  0.88537728  1
  O  O216  1  0.06938235  0.09699916  0.02729019  1
  O  O217  1  0.06458419  0.10946190  0.51376696  1
  O  O218  1  0.07100807  0.43388815  0.02971757  1
  O  O219  1  0.06381267  0.41588078  0.51442761  1
  O  O220  1  0.07157301  0.75931842  0.02212759  1
  O  O221  1  0.07389930  0.76123757  0.52514916  1
  O  O222  1  0.39429509  0.10349423  0.02131207  1
  O  O223  1  0.41346623  0.08740955  0.51908211  1
  O  O224  1  0.40612212  0.43404064  0.00327252  1
  O  O225  1  0.40726109  0.42391248  0.51420746  1
  O  O226  1  0.41250405  0.75572902  0.02207443  1
  O  O227  1  0.39976928  0.76925252  0.53084286  1
  O  O228  1  0.74580787  0.08107980  0.02250219  1
  O  O229  1  0.74235881  0.09786955  0.51615194  1
  O  O230  1  0.73770880  0.41843791  0.02100462  1
  O  O231  1  0.73330903  0.42685717  0.52677522  1
  O  O232  1  0.73636858  0.75714079  0.02930390  1
  O  O233  1  0.73502153  0.76699390  0.52943760  1
  O  O234  1  0.10045686  0.25810517  0.03576678  1
  O  O235  1  0.09111233  0.26115672  0.51625217  1
  O  O236  1  0.10119582  0.60001812  0.02902913  1
  O  O237  1  0.09269701  0.60580852  0.52263968  1
  O  O238  1  0.09707933  0.93612617  0.01974368  1
  O  O239  1  0.09365299  0.92502308  0.51323620  1
  O  O240  1  0.42937007  0.26558784  0.03078507  1
  O  O241  1  0.41998079  0.25975934  0.50952268  1
  O  O242  1  0.43943364  0.59382625  0.02344429  1
  O  O243  1  0.43567102  0.58595472  0.51650451  1
  O  O244  1  0.43029267  0.93603359  0.02293465  1
  O  O245  1  0.42739356  0.93008671  0.52902862  1
  O  O246  1  0.76002486  0.26350374  0.02376298  1
  O  O247  1  0.76862534  0.27004230  0.52009413  1
  O  O248  1  0.76379104  0.60166854  0.02961519  1
  O  O249  1  0.76647821  0.59831744  0.52814813  1
  O  O250  1  0.75580922  0.92558787  0.02739206  1
  O  O251  1  0.75529014  0.93034277  0.52160466  1
  O  O252  1  0.22656686  0.07075163  0.27350847  1
  O  O253  1  0.24010569  0.06460199  0.77425539  1
  O  O254  1  0.23007644  0.39026324  0.26563639  1
  O  O255  1  0.24631871  0.40355311  0.77810643  1
  O  O256  1  0.24185509  0.74717421  0.26130283  1
  O  O257  1  0.22778756  0.74084684  0.77121428  1
  O  O258  1  0.56183921  0.05396428  0.26849685  1
  O  O259  1  0.56967827  0.06795925  0.77630217  1
  O  O260  1  0.57377504  0.40586604  0.25379156  1
  O  O261  1  0.56735673  0.40718600  0.76555444  1
  O  O262  1  0.57164984  0.72988174  0.27291001  1
  O  O263  1  0.57077664  0.74773553  0.77084030  1
  O  O264  1  0.90447232  0.07376245  0.28405551  1
  O  O265  1  0.89923333  0.06625926  0.77224069  1
  O  O266  1  0.90649139  0.38757350  0.27115171  1
  O  O267  1  0.90254862  0.39808312  0.76257413  1
  O  O268  1  0.90023477  0.73622222  0.26260207  1
  O  O269  1  0.89464510  0.74217365  0.77350059  1
  O  O270  1  0.26244569  0.23238712  0.25853487  1
  O  O271  1  0.25618797  0.24692691  0.76189410  1
  O  O272  1  0.25888886  0.57249961  0.26654392  1
  O  O273  1  0.26364782  0.56952175  0.78252235  1
  O  O274  1  0.25859143  0.91847686  0.27483355  1
  O  O275  1  0.26093074  0.90796965  0.77307777  1
  O  O276  1  0.59446159  0.23689561  0.25892036  1
  O  O277  1  0.59230316  0.22864953  0.77143607  1
  O  O278  1  0.59763938  0.57816191  0.26791759  1
  O  O279  1  0.59238364  0.56583285  0.76317673  1
  O  O280  1  0.60932205  0.89533658  0.25117687  1
  O  O281  1  0.59476949  0.91223883  0.77348357  1
  O  O282  1  0.93879889  0.22809607  0.27216880  1
  O  O283  1  0.92248983  0.22736310  0.76063090  1
  O  O284  1  0.93251578  0.57488190  0.25603701  1
  O  O285  1  0.92691188  0.58147436  0.77324120  1
  O  O286  1  0.92197718  0.90913398  0.26839427  1
  O  O287  1  0.92250074  0.91217733  0.77349130  1
  O  O288  1  0.25346932  0.24572157  0.47401669  1
  O  O289  1  0.25755753  0.23516439  0.99150599  1
  O  O290  1  0.25843417  0.57809077  0.47915680  1
  O  O291  1  0.26072098  0.56254899  0.97376456  1
  O  O292  1  0.25266654  0.91001692  0.48556050  1
  O  O293  1  0.24962735  0.90746447  0.98147754  1
  O  O294  1  0.59823600  0.24602120  0.48318604  1
  O  O295  1  0.60086919  0.23400908  0.97623828  1
  O  O296  1  0.59366055  0.56432922  0.48992248  1
  O  O297  1  0.59808024  0.56976437  0.98716536  1
  O  O298  1  0.59991851  0.91429737  0.49135980  1
  O  O299  1  0.59327025  0.91670026  0.97532203  1
  O  O300  1  0.92866212  0.23386875  0.46686881  1
  O  O301  1  0.93167569  0.23053583  0.99534851  1
  O  O302  1  0.93412173  0.57759225  0.48585520  1
  O  O303  1  0.93615367  0.57725206  0.98915787  1
  O  O304  1  0.91764627  0.91844576  0.47858323  1
  O  O305  1  0.92608070  0.91351503  0.98369731  1
  O  O306  1  0.22777664  0.07718177  0.47295670  1
  O  O307  1  0.22472397  0.06856941  0.97876672  1
  O  O308  1  0.24106956  0.40113015  0.47996388  1
  O  O309  1  0.22687188  0.40252208  0.97790595  1
  O  O310  1  0.23470247  0.74794828  0.48905537  1
  O  O311  1  0.22369475  0.73703782  0.97961123  1
  O  O312  1  0.57634741  0.06793307  0.48526386  1
  O  O313  1  0.58076076  0.07083298  0.96629302  1
  O  O314  1  0.57433902  0.40213934  0.48129060  1
  O  O315  1  0.56734484  0.39887101  0.98513613  1
  O  O316  1  0.56451791  0.73240466  0.47435260  1
  O  O317  1  0.57912343  0.73551148  0.98822568  1
  O  O318  1  0.90047135  0.07799884  0.46656988  1
  O  O319  1  0.90447316  0.06375810  0.97406691  1
  O  O320  1  0.90236900  0.38851962  0.47903666  1
  O  O321  1  0.90421839  0.40007801  0.98788724  1
  O  O322  1  0.90794440  0.73922086  0.48695347  1
  O  O323  1  0.90554150  0.73050781  0.97817178  1
  O  O324  1  0.10053610  0.26535319  0.22145217  1
  O  O325  1  0.08431189  0.24701732  0.72447255  1
  O  O326  1  0.08920384  0.59884438  0.21966237  1
  O  O327  1  0.10573173  0.60867176  0.73262264  1
  O  O328  1  0.09937591  0.93734995  0.22647093  1
  O  O329  1  0.09877375  0.93505138  0.73982509  1
  O  O330  1  0.42143433  0.26087295  0.21920068  1
  O  O331  1  0.42575822  0.25316287  0.73111750  1
  O  O332  1  0.43574870  0.59693671  0.22384010  1
  O  O333  1  0.43023839  0.58660070  0.73502663  1
  O  O334  1  0.42234594  0.94028081  0.22607035  1
  O  O335  1  0.43334142  0.93256423  0.72334388  1
  O  O336  1  0.77673570  0.25724928  0.22459337  1
  O  O337  1  0.76682441  0.25846970  0.72530971  1
  O  O338  1  0.76180671  0.60144777  0.22472166  1
  O  O339  1  0.76947534  0.60464191  0.73030827  1
  O  O340  1  0.77026690  0.92927800  0.22349179  1
  O  O341  1  0.75823028  0.93054850  0.72652304  1
  O  O342  1  0.07093424  0.10792214  0.22602747  1
  O  O343  1  0.06688184  0.09086421  0.73384458  1
  O  O344  1  0.06267414  0.42297307  0.21982962  1
  O  O345  1  0.07652755  0.42338600  0.73845284  1
  O  O346  1  0.07076004  0.75664317  0.23408555  1
  O  O347  1  0.07618162  0.76953366  0.73038168  1
  O  O348  1  0.39198694  0.09574123  0.22110854  1
  O  O349  1  0.40832731  0.08563452  0.72398365  1
  O  O350  1  0.40112610  0.41542239  0.23407765  1
  O  O351  1  0.40208106  0.42945756  0.74418928  1
  O  O352  1  0.41568269  0.75855261  0.22113884  1
  O  O353  1  0.40789567  0.77430471  0.72689167  1
  O  O354  1  0.75023173  0.09123908  0.23248836  1
  O  O355  1  0.73465354  0.09570048  0.73433237  1
  O  O356  1  0.74986300  0.41570078  0.21941657  1
  O  O357  1  0.73316525  0.43114935  0.72676545  1
  O  O358  1  0.73724730  0.76265715  0.22110046  1
  O  O359  1  0.73857860  0.77057574  0.72724968  1
