# generated using pymatgen
data_BaLaInIrO6
_symmetry_space_group_name_H-M   'P 1'
_cell_length_a   17.51258855
_cell_length_b   17.53031406
_cell_length_c   16.47490460
_cell_angle_alpha   90.00767734
_cell_angle_beta   90.02303876
_cell_angle_gamma   89.96874061
_symmetry_Int_Tables_number   1
_chemical_formula_structural   BaLaInIrO6
_chemical_formula_sum   'Ba36 La36 In36 Ir36 O216'
_cell_volume   5057.81389863
_cell_formula_units_Z   36
loop_
 _symmetry_equiv_pos_site_id
 _symmetry_equiv_pos_as_xyz
  1  'x, y, z'
loop_
 _atom_site_type_symbol
 _atom_site_label
 _atom_site_symmetry_multiplicity
 _atom_site_fract_x
 _atom_site_fract_y
 _atom_site_fract_z
 _atom_site_occupancy
  Ba  Ba0  1  0.82966027  0.00610176  0.12460049  1
  Ba  Ba1  1  -0.00238869  0.16194772  0.87616968  1
  Ba  Ba2  1  0.16637471  0.32891285  0.37432893  1
  Ba  Ba3  1  1.00187756  0.84012364  0.62299352  1
  Ba  Ba4  1  0.32647304  0.15844034  0.87634915  1
  Ba  Ba5  1  0.16355829  0.68087051  0.62073387  1
  Ba  Ba6  1  0.83430201  0.34405572  0.12537107  1
  Ba  Ba7  1  0.50155640  0.65576472  0.37437096  1
  Ba  Ba8  1  0.33258246  0.82687518  0.37082322  1
  Ba  Ba9  1  0.83371182  0.65320909  0.37508026  1
  Ba  Ba10  1  0.00053395  0.49043708  0.37517408  1
  Ba  Ba11  1  0.33224768  0.15664272  0.37518123  1
  Ba  Ba12  1  0.17021556  0.33933836  0.62692412  1
  Ba  Ba13  1  0.83935753  0.32491409  0.37656300  1
  Ba  Ba14  1  0.50566838  0.65533995  0.87824198  1
  Ba  Ba15  1  0.49854748  0.67298916  0.12445127  1
  Ba  Ba16  1  0.83306271  0.67114382  0.12532010  1
  Ba  Ba17  1  0.32991759  0.50488756  0.12574161  1
  Ba  Ba18  1  1.00437481  0.50549331  0.12636839  1
  Ba  Ba19  1  0.33261137  0.49470477  0.37219732  1
  Ba  Ba20  1  0.66534909  0.18009676  0.62225714  1
  Ba  Ba21  1  0.67650527  0.51024102  0.12320537  1
  Ba  Ba22  1  1.00669017  0.50923232  0.62205158  1
  Ba  Ba23  1  0.16177457  0.32692635  0.87790880  1
  Ba  Ba24  1  0.49933363  0.34401517  0.62534988  1
  Ba  Ba25  1  0.33287731  0.17279863  0.12581910  1
  Ba  Ba26  1  0.33336268  0.82922871  0.87521798  1
  Ba  Ba27  1  0.16805592  0.99039300  0.37414957  1
  Ba  Ba28  1  0.50200618  0.99234145  0.37152520  1
  Ba  Ba29  1  0.66593676  0.48954835  0.87827925  1
  Ba  Ba30  1  0.49882357  0.00982299  0.12211403  1
  Ba  Ba31  1  0.99706114  0.17775147  0.12575726  1
  Ba  Ba32  1  0.83108749  0.99009398  0.37338126  1
  Ba  Ba33  1  0.66695544  0.50744565  0.62493486  1
  Ba  Ba34  1  0.83492452  0.65048443  0.87563675  1
  Ba  Ba35  1  0.17296691  0.65852932  0.37703536  1
  La  La36  1  0.49871513  0.34841638  0.12382937  1
  La  La37  1  0.34065868  0.51816666  0.62433340  1
  La  La38  1  0.16402408  0.68440591  0.12998784  1
  La  La39  1  0.65470314  0.81588934  0.36934918  1
  La  La40  1  0.49308800  0.68384015  0.62754127  1
  La  La41  1  1.00004364  0.84506208  0.13140847  1
  La  La42  1  0.33214087  0.48936083  0.87336044  1
  La  La43  1  0.16308088  0.00778773  0.62363693  1
  La  La44  1  0.50502364  0.32448442  0.37325456  1
  La  La45  1  0.83713188  0.32281488  0.87282772  1
  La  La46  1  -0.00098586  0.81935789  0.87411311  1
  La  La47  1  0.32854273  0.84951198  0.62024952  1
  La  La48  1  0.67197313  0.84572199  0.62516329  1
  La  La49  1  -0.00134846  0.15671103  0.37380432  1
  La  La50  1  0.66120693  0.15148094  0.87543196  1
  La  La51  1  0.50394508  0.31502264  0.87791548  1
  La  La52  1  0.50170229  0.98461119  0.87158073  1
  La  La53  1  0.83549091  0.98462869  0.87441101  1
  La  La54  1  0.49431219  0.01675490  0.62487730  1
  La  La55  1  -0.00016065  0.81211674  0.38021676  1
  La  La56  1  0.66914716  0.84205936  0.12397308  1
  La  La57  1  0.66774170  0.48687388  0.37009032  1
  La  La58  1  0.16588549  0.99746069  0.88505425  1
  La  La59  1  0.82457046  0.35086092  0.62246390  1
  La  La60  1  0.16383295  0.01778354  0.13048509  1
  La  La61  1  0.66016859  0.81624956  0.87638177  1
  La  La62  1  -0.00605804  0.47945300  0.87459260  1
  La  La63  1  0.82750090  0.01638700  0.62551259  1
  La  La64  1  0.16368749  0.34263457  0.12981350  1
  La  La65  1  0.66304883  0.15193895  0.37514737  1
  La  La66  1  0.33681934  0.85077316  0.12613547  1
  La  La67  1  0.83614853  0.67984288  0.62265864  1
  La  La68  1  0.67612176  0.18101713  0.13183355  1
  La  La69  1  0.33615860  0.18415125  0.62391462  1
  La  La70  1  0.17146469  0.65477460  0.86894745  1
  La  La71  1  0.99839325  0.17531120  0.62092801  1
  In  In72  1  0.16536900  0.50045281  0.75007028  1
  In  In73  1  0.16606577  0.16297626  0.74798847  1
  In  In74  1  -0.00014820  -0.00048486  0.00013593  1
  In  In75  1  0.83110191  0.83527091  0.49829251  1
  In  In76  1  0.16776438  0.16553919  0.49993815  1
  In  In77  1  0.66616641  0.66444440  0.74681551  1
  In  In78  1  0.16681092  0.50359730  -0.00300248  1
  In  In79  1  0.50320224  0.49958522  0.49768706  1
  In  In80  1  -0.00472953  0.32974212  0.74432803  1
  In  In81  1  0.16697620  0.50160251  0.25097007  1
  In  In82  1  0.66486313  -0.00138109  0.24776514  1
  In  In83  1  0.66703147  0.33247174  0.00105145  1
  In  In84  1  0.00457699  0.66646427  0.00128266  1
  In  In85  1  -0.00063399  0.00064204  0.74885368  1
  In  In86  1  0.83381064  0.16623803  0.25341131  1
  In  In87  1  0.49995508  0.83754396  0.50034849  1
  In  In88  1  0.50198008  0.16885560  0.24415994  1
  In  In89  1  0.49895397  0.16839337  0.49951116  1
  In  In90  1  0.00233348  0.66586212  0.75113808  1
  In  In91  1  0.33423819  0.33164188  0.25058215  1
  In  In92  1  0.82797657  0.16320717  -0.00139178  1
  In  In93  1  0.83171724  0.83291993  0.75088186  1
  In  In94  1  0.33035964  0.66921610  -0.00291954  1
  In  In95  1  0.50104118  0.49910369  0.75289527  1
  In  In96  1  0.49903945  0.83351896  0.00159768  1
  In  In97  1  0.16807921  0.83739790  0.75282293  1
  In  In98  1  0.33384432  0.66789942  0.24773677  1
  In  In99  1  0.33502261  0.33589000  0.75295649  1
  In  In100  1  0.66804005  0.33067052  0.75161799  1
  In  In101  1  0.16532316  0.83628405  0.25090906  1
  In  In102  1  0.66516798  0.66465680  0.50133494  1
  In  In103  1  0.83337887  0.83015183  -0.00205366  1
  In  In104  1  0.83259159  0.83141339  0.25237883  1
  In  In105  1  0.33312557  0.00103582  0.75134627  1
  In  In106  1  -0.00057582  0.33189831  0.50117581  1
  In  In107  1  0.33410703  0.33198299  0.00050578  1
  Ir  Ir108  1  0.66695471  0.66566703  0.00323739  1
  Ir  Ir109  1  0.33702543  0.67270803  0.74860775  1
  Ir  Ir110  1  -0.00147718  0.66772918  0.24986181  1
  Ir  Ir111  1  0.66627498  0.66547575  0.24650447  1
  Ir  Ir112  1  0.66480797  0.00061527  0.74902128  1
  Ir  Ir113  1  0.33199682  0.00054709  0.24878208  1
  Ir  Ir114  1  0.83373271  0.50032441  0.25103589  1
  Ir  Ir115  1  0.00003557  0.66346216  0.49649513  1
  Ir  Ir116  1  0.16611269  0.83666520  0.49901252  1
  Ir  Ir117  1  0.50528940  0.49776154  0.24813531  1
  Ir  Ir118  1  0.00206054  -0.00072281  0.25495525  1
  Ir  Ir119  1  0.16291100  0.16588809  0.24960013  1
  Ir  Ir120  1  -0.00447718  -0.00106721  0.49932455  1
  Ir  Ir121  1  0.66406662  -0.00089989  -0.00662005  1
  Ir  Ir122  1  0.17300446  0.50005209  0.50268238  1
  Ir  Ir123  1  0.16628095  0.84051128  0.00288062  1
  Ir  Ir124  1  0.82652561  0.16445156  0.74806041  1
  Ir  Ir125  1  0.83171640  0.16175222  0.50235266  1
  Ir  Ir126  1  0.50403067  0.83767937  0.74746243  1
  Ir  Ir127  1  -0.00187038  0.33190543  0.00142000  1
  Ir  Ir128  1  0.67264576  0.33258496  0.49547904  1
  Ir  Ir129  1  0.66551094  0.00060514  0.50553053  1
  Ir  Ir130  1  0.49893137  0.16278345  0.75292572  1
  Ir  Ir131  1  0.83610706  0.49876689  0.74982693  1
  Ir  Ir132  1  0.33243392  0.67152617  0.50664344  1
  Ir  Ir133  1  0.16401780  0.16752941  0.00463731  1
  Ir  Ir134  1  0.66792436  0.33494289  0.25421833  1
  Ir  Ir135  1  0.33547199  0.33680245  0.50075892  1
  Ir  Ir136  1  0.00077996  0.33143046  0.24946470  1
  Ir  Ir137  1  0.33284650  0.00329201  0.00178275  1
  Ir  Ir138  1  0.83481778  0.50114400  0.50277478  1
  Ir  Ir139  1  0.33033954  -0.00053168  0.49972520  1
  Ir  Ir140  1  0.50313664  0.16255312  -0.00448215  1
  Ir  Ir141  1  0.83637713  0.49808326  -0.00251039  1
  Ir  Ir142  1  0.50067693  0.83337118  0.24708143  1
  Ir  Ir143  1  0.50037455  0.49894826  0.00429043  1
  O  O144  1  0.30139472  0.33015684  0.12367891  1
  O  O145  1  0.32023196  0.32535079  0.62109527  1
  O  O146  1  0.29779383  0.66131297  0.12038111  1
  O  O147  1  0.31261982  0.66065232  0.62903807  1
  O  O148  1  0.30256095  0.99518784  0.12483472  1
  O  O149  1  0.30420326  0.99181041  0.61893371  1
  O  O150  1  0.63612301  0.32255845  0.13402783  1
  O  O151  1  0.65365038  0.33506063  0.61667958  1
  O  O152  1  0.64656020  0.66248888  0.12546290  1
  O  O153  1  0.62610697  0.66039785  0.62438720  1
  O  O154  1  0.64507861  0.98278051  0.11388536  1
  O  O155  1  0.63062956  0.98715097  0.62777726  1
  O  O156  1  0.98409965  0.33905004  0.12579796  1
  O  O157  1  0.95816679  0.31698482  0.62180383  1
  O  O158  1  0.98154900  0.67472494  0.13139950  1
  O  O159  1  0.97238742  0.66531245  0.61771681  1
  O  O160  1  0.97874925  0.98626345  0.13349833  1
  O  O161  1  0.96320472  0.99058634  0.61789129  1
  O  O162  1  0.18564613  0.15911501  0.12750025  1
  O  O163  1  0.20474198  0.14560121  0.62226615  1
  O  O164  1  0.17700991  0.47978355  0.12227807  1
  O  O165  1  0.20173613  0.49632999  0.62189221  1
  O  O166  1  0.19895348  0.82573965  0.11921811  1
  O  O167  1  0.19205409  0.83767805  0.61839964  1
  O  O168  1  0.53935224  0.16281876  0.11399056  1
  O  O169  1  0.51695103  0.15680770  0.63042210  1
  O  O170  1  0.52922279  0.48928805  0.12639000  1
  O  O171  1  0.51605813  0.49824297  0.62338203  1
  O  O172  1  0.53204544  0.83671171  0.12793006  1
  O  O173  1  0.53391729  0.82806649  0.62901581  1
  O  O174  1  0.84567671  0.15956659  0.12639160  1
  O  O175  1  0.86074701  0.15288793  0.62642190  1
  O  O176  1  0.85654746  0.50277817  0.12152345  1
  O  O177  1  0.85927552  0.48878613  0.62742287  1
  O  O178  1  0.86387825  0.83336474  0.12547738  1
  O  O179  1  0.85311035  0.82225240  0.62416857  1
  O  O180  1  0.13551084  0.16808534  0.37034145  1
  O  O181  1  0.14798340  0.16376975  0.88348067  1
  O  O182  1  0.15298537  0.50097032  0.38341097  1
  O  O183  1  0.12543279  0.51841329  0.87600477  1
  O  O184  1  0.13586286  0.83746537  0.37886035  1
  O  O185  1  0.13533101  0.85739882  0.88452403  1
  O  O186  1  0.48414204  0.18276791  0.37420607  1
  O  O187  1  0.47424290  0.17113341  0.87467000  1
  O  O188  1  0.48442504  0.49276492  0.36779652  1
  O  O189  1  0.47041524  0.49962177  0.88476781  1
  O  O190  1  0.48290630  0.83476529  0.36829944  1
  O  O191  1  0.48290775  0.84579445  0.86950765  1
  O  O192  1  0.79978707  0.16537397  0.38270968  1
  O  O193  1  0.79678004  0.17875576  0.86769234  1
  O  O194  1  0.80443717  0.50101972  0.37780681  1
  O  O195  1  0.81447629  0.49184610  0.87369793  1
  O  O196  1  0.79295676  0.83293289  0.37637996  1
  O  O197  1  0.79313985  0.84639129  0.87397280  1
  O  O198  1  0.02201903  0.01842615  0.37800794  1
  O  O199  1  0.03338956  0.01145572  0.87543812  1
  O  O200  1  0.01387840  0.32517651  0.37104689  1
  O  O201  1  0.00734762  0.33128829  0.87966185  1
  O  O202  1  0.02265218  0.66950020  0.37160608  1
  O  O203  1  0.03692474  0.68233407  0.87834172  1
  O  O204  1  0.35494570  -0.00019505  0.37445908  1
  O  O205  1  0.36419516  0.00212732  0.88055445  1
  O  O206  1  0.36606480  0.33628619  0.38030330  1
  O  O207  1  0.37150565  0.33885850  0.87784472  1
  O  O208  1  0.35113656  0.67261716  0.38561363  1
  O  O209  1  0.35940049  0.67904019  0.86575751  1
  O  O210  1  0.68249025  0.01262854  0.38455747  1
  O  O211  1  0.69779736  0.01362207  0.87118057  1
  O  O212  1  0.69345278  0.34746196  0.37487409  1
  O  O213  1  0.70146386  0.32852933  0.87581625  1
  O  O214  1  0.68367928  0.67812213  0.36672252  1
  O  O215  1  0.68440218  0.67752522  0.88171208  1
  O  O216  1  0.07815515  0.09313754  0.02489629  1
  O  O217  1  0.06192972  0.09075684  0.52317880  1
  O  O218  1  0.07122435  0.41877918  0.00474566  1
  O  O219  1  0.08449077  0.42474789  0.51537044  1
  O  O220  1  0.07369307  0.77748775  0.02855371  1
  O  O221  1  0.06895272  0.76409777  0.50738554  1
  O  O222  1  0.40732762  0.09321687  0.01917479  1
  O  O223  1  0.40030601  0.09186998  0.52570570  1
  O  O224  1  0.41851908  0.42339229  0.02763607  1
  O  O225  1  0.40053986  0.43097253  0.52099463  1
  O  O226  1  0.40051479  0.76644114  0.02468763  1
  O  O227  1  0.40191473  0.76290932  0.53015823  1
  O  O228  1  0.72106690  0.09521709  0.01714693  1
  O  O229  1  0.73693313  0.09231995  0.52540887  1
  O  O230  1  0.74733586  0.42615472  0.01469905  1
  O  O231  1  0.74312960  0.42757611  0.51843455  1
  O  O232  1  0.73142224  0.76195039  0.02233817  1
  O  O233  1  0.73876541  0.75831858  0.53198304  1
  O  O234  1  0.09594308  0.26426131  0.02666920  1
  O  O235  1  0.08591536  0.25021449  0.52841966  1
  O  O236  1  0.10625138  0.60720505  0.02921342  1
  O  O237  1  0.09843281  0.58991197  0.51726033  1
  O  O238  1  0.10256360  0.93217407  0.03329125  1
  O  O239  1  0.09598242  0.93449626  0.52104471  1
  O  O240  1  0.44060726  0.25879829  0.02008569  1
  O  O241  1  0.42356361  0.26361371  0.51808046  1
  O  O242  1  0.42757179  0.58655816  0.01789064  1
  O  O243  1  0.42571338  0.60314139  0.52635110  1
  O  O244  1  0.42007533  0.92840639  0.01810005  1
  O  O245  1  0.42524591  0.93230058  0.52894198  1
  O  O246  1  0.74851628  0.25042575  0.03010400  1
  O  O247  1  0.77049168  0.26361931  0.52190851  1
  O  O248  1  0.76385348  0.59273883  0.01264082  1
  O  O249  1  0.77120562  0.59653569  0.52564792  1
  O  O250  1  0.75441749  0.93051389  0.01198647  1
  O  O251  1  0.75705897  0.93327041  0.53182329  1
  O  O252  1  0.23336569  0.06929042  0.26087881  1
  O  O253  1  0.22982163  0.06026608  0.77636863  1
  O  O254  1  0.24202629  0.40585510  0.26273409  1
  O  O255  1  0.24388120  0.41403703  0.78060413  1
  O  O256  1  0.23735045  0.74268836  0.25954636  1
  O  O257  1  0.23934383  0.73429620  0.77045807  1
  O  O258  1  0.57798577  0.07929383  0.26802628  1
  O  O259  1  0.56511694  0.06433030  0.77364544  1
  O  O260  1  0.57305396  0.40157736  0.27421686  1
  O  O261  1  0.56707385  0.39433675  0.77642866  1
  O  O262  1  0.57384971  0.74070589  0.26888604  1
  O  O263  1  0.56984392  0.74763512  0.76975105  1
  O  O264  1  0.91601878  0.07397495  0.27520194  1
  O  O265  1  0.88869437  0.06772649  0.76914919  1
  O  O266  1  0.90632992  0.40566863  0.26601287  1
  O  O267  1  0.89761765  0.40177353  0.77106675  1
  O  O268  1  0.91199337  0.74078622  0.27533069  1
  O  O269  1  0.90608619  0.73816542  0.76842092  1
  O  O270  1  0.25285710  0.23478279  0.26736185  1
  O  O271  1  0.26347461  0.23758127  0.75299192  1
  O  O272  1  0.25908003  0.57639294  0.26385815  1
  O  O273  1  0.27383236  0.57709429  0.77120304  1
  O  O274  1  0.26213030  0.91088355  0.25695680  1
  O  O275  1  0.27432490  0.89631046  0.75127796  1
  O  O276  1  0.60349450  0.24251907  0.27788483  1
  O  O277  1  0.59399062  0.22824075  0.77628036  1
  O  O278  1  0.60074061  0.56644024  0.27148047  1
  O  O279  1  0.59506999  0.57147188  0.77171144  1
  O  O280  1  0.59478597  0.89887241  0.27035172  1
  O  O281  1  0.60052690  0.90386285  0.77631544  1
  O  O282  1  0.93346430  0.23711979  0.26981184  1
  O  O283  1  0.91426673  0.23383805  0.76891949  1
  O  O284  1  0.92918357  0.57218032  0.26527600  1
  O  O285  1  0.93205836  0.56099240  0.77348239  1
  O  O286  1  0.93945603  0.90368245  0.27697405  1
  O  O287  1  0.92641224  0.90744407  0.78423979  1
  O  O288  1  0.26511857  0.24440239  0.48953550  1
  O  O289  1  0.25201417  0.23843214  0.98622287  1
  O  O290  1  0.26720057  0.57256094  0.49112800  1
  O  O291  1  0.26050931  0.57823606  0.95651726  1
  O  O292  1  0.26441564  0.90245419  0.48507236  1
  O  O293  1  0.25786913  0.91399964  0.97972683  1
  O  O294  1  0.60385199  0.24073689  0.47326907  1
  O  O295  1  0.59134765  0.23214539  0.96690721  1
  O  O296  1  0.60367497  0.56364932  0.47005984  1
  O  O297  1  0.59360240  0.57182418  0.98583344  1
  O  O298  1  0.60456784  0.90547192  0.48163631  1
  O  O299  1  0.59701074  0.90746105  0.96837703  1
  O  O300  1  0.92888310  0.22092800  0.47954561  1
  O  O301  1  0.91898885  0.24823305  0.98500083  1
  O  O302  1  0.92943403  0.57013943  0.48262477  1
  O  O303  1  0.93280499  0.56321469  0.97731656  1
  O  O304  1  0.93442366  0.90374185  0.47069553  1
  O  O305  1  0.92908064  0.90484985  0.97039992  1
  O  O306  1  0.24098032  0.06794850  0.48018581  1
  O  O307  1  0.23219409  0.07010343  0.98780504  1
  O  O308  1  0.24387249  0.40691547  0.48325112  1
  O  O309  1  0.25176227  0.41747669  0.97020522  1
  O  O310  1  0.23981854  0.74549662  0.48279694  1
  O  O311  1  0.22489946  0.74512989  0.97358721  1
  O  O312  1  0.57426860  0.07101920  0.48954201  1
  O  O313  1  0.56900711  0.06642231  0.96502946  1
  O  O314  1  0.57661107  0.39672617  0.47300184  1
  O  O315  1  0.56675397  0.40137722  0.98356763  1
  O  O316  1  0.57462488  0.74533773  0.47997610  1
  O  O317  1  0.58018756  0.74149682  0.98621588  1
  O  O318  1  0.89629496  0.06272594  0.48768843  1
  O  O319  1  0.89738380  0.06702705  0.97306717  1
  O  O320  1  0.90393507  0.40908121  0.48936098  1
  O  O321  1  0.90430022  0.40250642  0.97312412  1
  O  O322  1  0.91320933  0.73825145  0.47970851  1
  O  O323  1  0.91369429  0.74299858  0.97211547  1
  O  O324  1  0.09651262  0.26333900  0.22706906  1
  O  O325  1  0.08366862  0.25017150  0.72692257  1
  O  O326  1  0.09329342  0.60278530  0.22821697  1
  O  O327  1  0.10160980  0.60074243  0.73316601  1
  O  O328  1  0.09261801  0.93099984  0.22453884  1
  O  O329  1  0.10358958  0.93838698  0.72801814  1
  O  O330  1  0.43518995  0.26628577  0.22369913  1
  O  O331  1  0.43411453  0.25659921  0.73697899  1
  O  O332  1  0.43315479  0.58731592  0.23507097  1
  O  O333  1  0.43008494  0.60679010  0.72567120  1
  O  O334  1  0.42279662  0.92343723  0.22285381  1
  O  O335  1  0.44086725  0.93472384  0.72728898  1
  O  O336  1  0.75500002  0.26315831  0.23436401  1
  O  O337  1  0.76758390  0.26138421  0.72307732  1
  O  O338  1  0.76140256  0.59482107  0.23582329  1
  O  O339  1  0.77463656  0.59742853  0.72528762  1
  O  O340  1  0.75412853  0.92103083  0.22910080  1
  O  O341  1  0.75826661  0.93579962  0.72259907  1
  O  O342  1  0.07174848  0.09118337  0.22894399  1
  O  O343  1  0.06795521  0.09373354  0.71011749  1
  O  O344  1  0.07451339  0.41804795  0.23809044  1
  O  O345  1  0.06842963  0.42467787  0.74271664  1
  O  O346  1  0.06462427  0.76379392  0.23157291  1
  O  O347  1  0.06950236  0.77073956  0.74368213  1
  O  O348  1  0.40596558  0.08838171  0.23707110  1
  O  O349  1  0.40373181  0.09784141  0.72304570  1
  O  O350  1  0.41986280  0.42411609  0.22690402  1
  O  O351  1  0.39618365  0.44094576  0.73166349  1
  O  O352  1  0.40616185  0.76743087  0.22165399  1
  O  O353  1  0.40699129  0.77106009  0.71799126  1
  O  O354  1  0.73325620  0.09865048  0.23665277  1
  O  O355  1  0.73345885  0.09410001  0.72621300  1
  O  O356  1  0.73767702  0.43093092  0.23869002  1
  O  O357  1  0.74599628  0.42817434  0.73224839  1
  O  O358  1  0.72921478  0.76109639  0.22488005  1
  O  O359  1  0.72967992  0.76609855  0.72803446  1
