# generated using pymatgen
data_BaLaInIrO6
_symmetry_space_group_name_H-M   'P 1'
_cell_length_a   17.51255676
_cell_length_b   17.53605999
_cell_length_c   16.48723578
_cell_angle_alpha   90.01351547
_cell_angle_beta   89.98910723
_cell_angle_gamma   89.97288219
_symmetry_Int_Tables_number   1
_chemical_formula_structural   BaLaInIrO6
_chemical_formula_sum   'Ba36 La36 In36 Ir36 O216'
_cell_volume   5063.24985129
_cell_formula_units_Z   36
loop_
 _symmetry_equiv_pos_site_id
 _symmetry_equiv_pos_as_xyz
  1  'x, y, z'
loop_
 _atom_site_type_symbol
 _atom_site_label
 _atom_site_symmetry_multiplicity
 _atom_site_fract_x
 _atom_site_fract_y
 _atom_site_fract_z
 _atom_site_occupancy
  Ba  Ba0  1  1.00200728  0.50628340  0.62196061  1
  Ba  Ba1  1  0.66603304  0.15906698  0.37591184  1
  Ba  Ba2  1  0.33063469  0.82735348  0.87037156  1
  Ba  Ba3  1  0.16258571  0.32416816  0.37572893  1
  Ba  Ba4  1  0.32841399  0.16249140  0.87566564  1
  Ba  Ba5  1  0.33457187  0.50678877  0.12300965  1
  Ba  Ba6  1  0.16850416  0.00663590  0.62770920  1
  Ba  Ba7  1  0.66720946  0.48656817  0.37980509  1
  Ba  Ba8  1  0.33169114  0.17418954  0.62529487  1
  Ba  Ba9  1  0.16534351  0.66313196  0.87225002  1
  Ba  Ba10  1  0.33388749  0.50774311  0.62570383  1
  Ba  Ba11  1  -0.00167770  0.48863182  0.37368774  1
  Ba  Ba12  1  0.16684143  0.32571232  0.87219226  1
  Ba  Ba13  1  1.00234124  0.84376544  0.12687310  1
  Ba  Ba14  1  0.83418489  0.98660453  0.36956633  1
  Ba  Ba15  1  0.49637246  0.00945849  0.62672387  1
  Ba  Ba16  1  0.33207874  0.84679579  0.62635711  1
  Ba  Ba17  1  0.83400500  0.99030090  0.87434523  1
  Ba  Ba18  1  0.83312794  0.00471968  0.11995071  1
  Ba  Ba19  1  0.66994810  0.50924573  0.62597592  1
  Ba  Ba20  1  -0.00228074  0.82615410  0.87569160  1
  Ba  Ba21  1  -0.00163958  0.15614378  0.87739044  1
  Ba  Ba22  1  0.66636721  0.51179136  0.12490271  1
  Ba  Ba23  1  0.17088544  0.67270218  0.12494434  1
  Ba  Ba24  1  0.66732199  0.84168732  0.12136109  1
  Ba  Ba25  1  0.66703727  0.82618029  0.87669599  1
  Ba  Ba26  1  0.33517076  0.49325399  0.87528518  1
  Ba  Ba27  1  0.49551248  0.67131042  0.12297219  1
  Ba  Ba28  1  1.00318391  0.84187099  0.62448783  1
  Ba  Ba29  1  0.83676300  0.66088772  0.87985731  1
  Ba  Ba30  1  0.33283713  0.82334081  0.38279572  1
  Ba  Ba31  1  0.50288553  0.33979882  0.12620694  1
  Ba  Ba32  1  0.66476430  0.49008134  0.87487228  1
  Ba  Ba33  1  0.49931282  0.32681248  0.87477423  1
  Ba  Ba34  1  0.99683216  0.17138344  0.12500090  1
  Ba  Ba35  1  0.83583107  0.32402603  0.87296623  1
  La  La36  1  0.67269059  0.85008853  0.62550013  1
  La  La37  1  0.17096239  0.65202773  0.38138649  1
  La  La38  1  0.83089737  0.34922097  0.62477887  1
  La  La39  1  0.16570114  0.68315750  0.62227719  1
  La  La40  1  0.65903460  0.82025563  0.37024995  1
  La  La41  1  0.16037382  0.01068072  0.12796962  1
  La  La42  1  0.84248463  0.31469842  0.37589780  1
  La  La43  1  1.00593297  0.51255113  0.12781382  1
  La  La44  1  0.16434473  0.34480021  0.62997615  1
  La  La45  1  0.82912184  0.68524376  0.12656972  1
  La  La46  1  0.67129670  0.17308561  0.11641652  1
  La  La47  1  0.34215857  0.84886047  0.11800918  1
  La  La48  1  0.50221521  0.98865740  0.87051606  1
  La  La49  1  1.00876754  0.17687352  0.62765328  1
  La  La50  1  0.66467619  0.15618925  0.87126222  1
  La  La51  1  0.82594786  0.34864712  0.12755178  1
  La  La52  1  0.16392582  0.34898947  0.12320737  1
  La  La53  1  -0.00789464  0.14704264  0.37559579  1
  La  La54  1  -0.00398097  0.81543151  0.36970726  1
  La  La55  1  0.50637557  0.98716076  0.37766865  1
  La  La56  1  0.32948802  0.48696707  0.37026946  1
  La  La57  1  0.50665018  0.64888886  0.87796337  1
  La  La58  1  -0.01044595  0.48592112  0.87923883  1
  La  La59  1  0.50260794  0.32305800  0.37539287  1
  La  La60  1  0.49700963  0.01510889  0.12144797  1
  La  La61  1  0.83664193  0.65313700  0.37384017  1
  La  La62  1  0.33236720  0.18227698  0.12664872  1
  La  La63  1  0.67053971  0.18428971  0.62410063  1
  La  La64  1  0.82991162  0.01676825  0.62785324  1
  La  La65  1  0.50295554  0.64862319  0.37707300  1
  La  La66  1  0.16752609  0.98996481  0.87559665  1
  La  La67  1  0.16807617  0.98541383  0.37718950  1
  La  La68  1  0.49682816  0.68200207  0.63142101  1
  La  La69  1  0.82852808  0.68505632  0.62575152  1
  La  La70  1  0.49918464  0.34463547  0.62309764  1
  La  La71  1  0.33346520  0.15493431  0.37672087  1
  In  In72  1  -0.00191668  0.32961702  0.00389271  1
  In  In73  1  0.16758345  0.83432335  0.00348488  1
  In  In74  1  0.16467065  0.16674725  0.49666022  1
  In  In75  1  0.16173874  0.50047260  -0.00358349  1
  In  In76  1  0.33203806  0.00200560  0.24824986  1
  In  In77  1  0.83418845  0.83641485  0.49710129  1
  In  In78  1  0.49667489  0.16617887  0.24946656  1
  In  In79  1  0.50207817  0.83075118  0.50126259  1
  In  In80  1  0.16532338  0.50364166  0.74879562  1
  In  In81  1  0.16596803  0.83630255  0.75012888  1
  In  In82  1  0.66437059  0.00006547  0.24785366  1
  In  In83  1  0.66936436  0.66847201  0.00128040  1
  In  In84  1  0.33289770  0.66791932  -0.00399411  1
  In  In85  1  -0.00099657  0.66412408  0.74851531  1
  In  In86  1  0.49768328  0.83413911  0.24645306  1
  In  In87  1  0.66573903  0.66678536  0.50039253  1
  In  In88  1  -0.00139176  0.66260143  0.49862942  1
  In  In89  1  0.50023444  0.49878929  0.25355770  1
  In  In90  1  0.66989835  0.00169770  0.49960977  1
  In  In91  1  0.33329848  0.33186626  0.74571166  1
  In  In92  1  -0.00262889  0.00191215  0.74866937  1
  In  In93  1  0.16971148  0.83069147  0.25258670  1
  In  In94  1  0.33058045  0.33101018  0.00037777  1
  In  In95  1  0.33382482  0.66948474  0.25285998  1
  In  In96  1  0.50147186  0.49933517  0.74501268  1
  In  In97  1  0.66731010  0.66988427  0.74953630  1
  In  In98  1  0.00047103  0.33201598  0.50165084  1
  In  In99  1  -0.00066875  0.32912513  0.24864459  1
  In  In100  1  0.83441686  0.50229860  0.75035280  1
  In  In101  1  0.66996237  0.33172418  0.25408787  1
  In  In102  1  0.50061228  0.49757434  0.00053503  1
  In  In103  1  0.66489670  -0.00001781  -0.00341792  1
  In  In104  1  0.33467487  0.00193894  0.49924608  1
  In  In105  1  0.66933222  0.32915167  -0.00337982  1
  In  In106  1  0.83310102  0.16459057  0.24804620  1
  In  In107  1  0.49925867  0.16814476  0.50243835  1
  Ir  Ir108  1  0.83140993  0.49756064  0.49686818  1
  Ir  Ir109  1  0.16428565  0.16538865  0.75173529  1
  Ir  Ir110  1  0.83268399  0.83530722  0.74935254  1
  Ir  Ir111  1  0.17284240  0.49936087  0.49674819  1
  Ir  Ir112  1  0.33550783  0.66365299  0.50434620  1
  Ir  Ir113  1  0.16567226  0.49923396  0.25385681  1
  Ir  Ir114  1  0.33509708  0.33581716  0.49600232  1
  Ir  Ir115  1  0.49668861  0.83783082  -0.00439066  1
  Ir  Ir116  1  0.32759598  0.33217553  0.25522183  1
  Ir  Ir117  1  0.83339744  0.83143489  0.25075874  1
  Ir  Ir118  1  -0.00363080  0.66617544  0.00640885  1
  Ir  Ir119  1  -0.00164432  -0.00009840  0.49628545  1
  Ir  Ir120  1  0.67085764  0.33250899  0.50195057  1
  Ir  Ir121  1  0.50490075  0.16534652  0.75129903  1
  Ir  Ir122  1  0.83481415  0.50280225  0.25065120  1
  Ir  Ir123  1  0.67236947  0.66823473  0.25346823  1
  Ir  Ir124  1  0.66562480  0.00261241  0.74830257  1
  Ir  Ir125  1  0.16818471  0.16129437  0.00405923  1
  Ir  Ir126  1  0.50057805  0.83538026  0.75321514  1
  Ir  Ir127  1  0.00412521  -0.00060257  0.25104121  1
  Ir  Ir128  1  0.49731112  0.49690041  0.49954007  1
  Ir  Ir129  1  0.16141007  0.83438767  0.49757551  1
  Ir  Ir130  1  0.33726201  0.67066728  0.74474297  1
  Ir  Ir131  1  -0.00129974  0.66401294  0.25001005  1
  Ir  Ir132  1  0.83277840  0.16593045  -0.00400945  1
  Ir  Ir133  1  -0.00354576  0.32806214  0.74747424  1
  Ir  Ir134  1  0.33210803  0.00415156  -0.00037708  1
  Ir  Ir135  1  0.83812294  0.50115744  0.00656952  1
  Ir  Ir136  1  0.16538339  0.16528776  0.25020663  1
  Ir  Ir137  1  0.00221665  0.00267399  0.00427959  1
  Ir  Ir138  1  0.66890473  0.32662603  0.74554545  1
  Ir  Ir139  1  0.33627297  0.00628629  0.75620886  1
  Ir  Ir140  1  0.83726213  0.16614375  0.50527192  1
  Ir  Ir141  1  0.83238324  0.16741642  0.74555708  1
  Ir  Ir142  1  0.83804625  0.83472437  0.00166758  1
  Ir  Ir143  1  0.49938313  0.16213770  -0.00293826  1
  O  O144  1  0.29751450  0.32250038  0.13639415  1
  O  O145  1  0.30087482  0.33051854  0.61360297  1
  O  O146  1  0.32131439  0.66119752  0.12579974  1
  O  O147  1  0.30128151  0.66327451  0.62341645  1
  O  O148  1  0.29860418  0.99295347  0.11782166  1
  O  O149  1  0.31936972  1.00746922  0.63441549  1
  O  O150  1  0.65780029  0.31185749  0.12567592  1
  O  O151  1  0.63878230  0.32508460  0.62387740  1
  O  O152  1  0.65085472  0.66928059  0.13359761  1
  O  O153  1  0.63323717  0.66899313  0.62419943  1
  O  O154  1  0.63593558  1.00562631  0.12073739  1
  O  O155  1  0.64651846  0.98966858  0.62954119  1
  O  O156  1  0.95994850  0.32747577  0.12761790  1
  O  O157  1  0.96756199  0.31720416  0.62710978  1
  O  O158  1  0.96482464  0.65473955  0.12909827  1
  O  O159  1  0.96211716  0.66359486  0.62135052  1
  O  O160  1  0.98004584  1.00094502  0.12861575  1
  O  O161  1  0.96730723  0.99730963  0.61569946  1
  O  O162  1  0.19751736  0.14755959  0.12809555  1
  O  O163  1  0.18022051  0.16020441  0.63091122  1
  O  O164  1  0.18347496  0.49289569  0.13508891  1
  O  O165  1  0.18703085  0.48421005  0.61478527  1
  O  O166  1  0.20287045  0.83457522  0.12816378  1
  O  O167  1  0.18194783  0.82661224  0.61824971  1
  O  O168  1  0.53143202  0.15616370  0.11677408  1
  O  O169  1  0.53422846  0.16251887  0.63140430  1
  O  O170  1  0.51442194  0.50024825  0.12925894  1
  O  O171  1  0.52313298  0.48510263  0.61661131  1
  O  O172  1  0.51701105  0.83129203  0.11409971  1
  O  O173  1  0.53441436  0.82488390  0.63354271  1
  O  O174  1  0.84614180  0.16276941  0.11617349  1
  O  O175  1  0.86898088  0.15841725  0.62518930  1
  O  O176  1  0.86738419  0.48870055  0.12995758  1
  O  O177  1  0.85075986  0.48639290  0.61773408  1
  O  O178  1  0.85773219  0.82465372  0.12661039  1
  O  O179  1  0.85333041  0.82621378  0.62967730  1
  O  O180  1  0.12803688  0.17260073  0.36745921  1
  O  O181  1  0.14569061  0.17060769  0.88088534  1
  O  O182  1  0.14609005  0.51230388  0.37647381  1
  O  O183  1  0.12423256  0.50068404  0.87176000  1
  O  O184  1  0.13090376  0.84323397  0.37890034  1
  O  O185  1  0.14904989  0.85103803  0.87736970  1
  O  O186  1  0.46757055  0.18705925  0.37586208  1
  O  O187  1  0.47793897  0.17015272  0.87412578  1
  O  O188  1  0.46780444  0.50483161  0.38258175  1
  O  O189  1  0.48568998  0.50434055  0.87032073  1
  O  O190  1  0.48107073  0.85105044  0.37404064  1
  O  O191  1  0.47570003  0.85167959  0.87449459  1
  O  O192  1  0.81536501  0.17410437  0.38520782  1
  O  O193  1  0.80144616  0.16890809  0.86903747  1
  O  O194  1  0.81109088  0.51691876  0.37246627  1
  O  O195  1  0.81830497  0.50366047  0.88474336  1
  O  O196  1  0.79918130  0.83287751  0.36887368  1
  O  O197  1  0.81642179  0.83484425  0.87556470  1
  O  O198  1  0.03112069  0.00958263  0.37374519  1
  O  O199  1  0.02767441  0.00194676  0.88300301  1
  O  O200  1  0.01135804  0.33358889  0.37556689  1
  O  O201  1  0.01487516  0.34231997  0.87033557  1
  O  O202  1  0.03083742  0.67007105  0.37057199  1
  O  O203  1  0.01317021  0.66763589  0.88528919  1
  O  O204  1  0.37138707  0.01565239  0.37124559  1
  O  O205  1  0.36536589  0.00897282  0.87920638  1
  O  O206  1  0.36620696  0.34247433  0.37585032  1
  O  O207  1  0.34453908  0.32711829  0.87286594  1
  O  O208  1  0.36567749  0.66897611  0.38693657  1
  O  O209  1  0.36961701  0.67357310  0.86117543  1
  O  O210  1  0.68582771  0.00479181  0.37378235  1
  O  O211  1  0.68492596  0.01483953  0.86859392  1
  O  O212  1  0.70520897  0.33078526  0.38395088  1
  O  O213  1  0.68684541  0.31961883  0.86554090  1
  O  O214  1  0.70216925  0.67810435  0.37206896  1
  O  O215  1  0.68776644  0.67144031  0.87518887  1
  O  O216  1  0.07734073  0.08978529  0.02474028  1
  O  O217  1  0.05889102  0.09790934  0.51690256  1
  O  O218  1  0.06771566  0.42646582  0.03171898  1
  O  O219  1  0.08468142  0.42381828  0.51477268  1
  O  O220  1  0.06911887  0.75430773  0.01956702  1
  O  O221  1  0.07725991  0.75765510  0.51472641  1
  O  O222  1  0.40425118  0.09449837  0.03009397  1
  O  O223  1  0.39912834  0.10363542  0.50917969  1
  O  O224  1  0.40741914  0.41981198  0.01619662  1
  O  O225  1  0.40557677  0.42548893  0.51982341  1
  O  O226  1  0.40339046  0.77526765  0.01545499  1
  O  O227  1  0.40914061  0.74949833  0.53076336  1
  O  O228  1  0.73502129  0.10256705  0.01009769  1
  O  O229  1  0.74272165  0.10237337  0.53239472  1
  O  O230  1  0.75188677  0.42582688  0.02308315  1
  O  O231  1  0.74173066  0.42258239  0.52375245  1
  O  O232  1  0.75195460  0.75895532  0.01993699  1
  O  O233  1  0.73814998  0.76460181  0.52937998  1
  O  O234  1  0.10183174  0.25697342  0.02686347  1
  O  O235  1  0.09648428  0.26094133  0.53132907  1
  O  O236  1  0.07983374  0.59207156  0.02811389  1
  O  O237  1  0.10518569  0.59400064  0.51873416  1
  O  O238  1  0.09617053  0.93630894  0.02544481  1
  O  O239  1  0.09688439  0.93564038  0.51134596  1
  O  O240  1  0.42704169  0.24794763  0.02387330  1
  O  O241  1  0.42926738  0.27297178  0.52274487  1
  O  O242  1  0.43070017  0.59925418  -0.00290395  1
  O  O243  1  0.43467109  0.59716434  0.52540290  1
  O  O244  1  0.42837213  0.93690910  0.02216605  1
  O  O245  1  0.42603665  0.92422248  0.51550764  1
  O  O246  1  0.76679877  0.25704171  0.02018187  1
  O  O247  1  0.76882426  0.26351098  0.52989672  1
  O  O248  1  0.77217351  0.59382604  0.03036817  1
  O  O249  1  0.76845687  0.59591181  0.51687688  1
  O  O250  1  0.76062454  0.92099972  0.01009711  1
  O  O251  1  0.77115668  0.93575659  0.52845440  1
  O  O252  1  0.23024460  0.07484640  0.27827642  1
  O  O253  1  0.23451057  0.07119641  0.77800635  1
  O  O254  1  0.23821163  0.40827417  0.27691069  1
  O  O255  1  0.23787005  0.40858414  0.75458601  1
  O  O256  1  0.23174539  0.73108737  0.28432892  1
  O  O257  1  0.24825794  0.74228156  0.75677415  1
  O  O258  1  0.55379540  0.05993265  0.26760746  1
  O  O259  1  0.57309599  0.07235224  0.77882761  1
  O  O260  1  0.57098664  0.40239686  0.27804206  1
  O  O261  1  0.58031002  0.39658268  0.75847573  1
  O  O262  1  0.57770180  0.73413064  0.27792600  1
  O  O263  1  0.56110051  0.74099085  0.77440245  1
  O  O264  1  0.91349827  0.07099897  0.26849040  1
  O  O265  1  0.89903378  0.07478694  0.76144720  1
  O  O266  1  0.89473048  0.40569392  0.27329126  1
  O  O267  1  0.90850253  0.40142902  0.75937689  1
  O  O268  1  0.90539356  0.73568908  0.27707092  1
  O  O269  1  0.89750344  0.74070675  0.76029817  1
  O  O270  1  0.26253105  0.23037730  0.27437659  1
  O  O271  1  0.25100031  0.23787190  0.75902402  1
  O  O272  1  0.25665107  0.56881476  0.27897563  1
  O  O273  1  0.26619560  0.58274174  0.76565700  1
  O  O274  1  0.25457127  0.91439697  0.28338233  1
  O  O275  1  0.25995138  0.92138937  0.76779122  1
  O  O276  1  0.58769556  0.24256951  0.27100499  1
  O  O277  1  0.60533082  0.22636535  0.76233180  1
  O  O278  1  0.60109963  0.58077665  0.27682451  1
  O  O279  1  0.59034199  0.57777871  0.76628865  1
  O  O280  1  0.59848768  0.89889445  0.27119989  1
  O  O281  1  0.59236994  0.91180592  0.77449128  1
  O  O282  1  0.93140947  0.23090984  0.27867908  1
  O  O283  1  0.92688148  0.23494748  0.76544313  1
  O  O284  1  0.92660375  0.57404400  0.27091571  1
  O  O285  1  0.93802850  0.56146322  0.77301332  1
  O  O286  1  0.93453382  0.89964299  0.27476757  1
  O  O287  1  0.92080403  0.90540526  0.76373109  1
  O  O288  1  0.26950734  0.24109979  0.47191159  1
  O  O289  1  0.26011996  0.22704287  1.00016609  1
  O  O290  1  0.26452658  0.57263183  0.47153342  1
  O  O291  1  0.25360327  0.57444232  0.98059558  1
  O  O292  1  0.24856619  0.91039858  0.48172266  1
  O  O293  1  0.26284282  0.91837984  0.97694670  1
  O  O294  1  0.59694639  0.24538400  0.48549980  1
  O  O295  1  0.59800353  0.22300424  0.97887879  1
  O  O296  1  0.58482455  0.57021646  0.47758092  1
  O  O297  1  0.59225002  0.58012880  0.98227881  1
  O  O298  1  0.60809214  0.89470290  0.48528606  1
  O  O299  1  0.58420804  0.90954854  0.97709112  1
  O  O300  1  0.93092831  0.22904990  0.47970207  1
  O  O301  1  0.92198047  0.23562943  0.98156364  1
  O  O302  1  0.92027754  0.56874108  0.47727567  1
  O  O303  1  0.93365192  0.56627484  0.98763879  1
  O  O304  1  0.93942609  0.90207953  0.47149275  1
  O  O305  1  0.93009028  0.91213171  0.98535259  1
  O  O306  1  0.23673488  0.07436416  0.46785476  1
  O  O307  1  0.23300762  0.06538474  0.97840315  1
  O  O308  1  0.24815112  0.41171090  0.46714697  1
  O  O309  1  0.22894704  0.39849342  0.99868654  1
  O  O310  1  0.23242328  0.73122624  0.48361363  1
  O  O311  1  0.24191144  0.74415420  0.97918978  1
  O  O312  1  0.56768316  0.06881933  0.47769794  1
  O  O313  1  0.56276893  0.07008003  0.97318778  1
  O  O314  1  0.56564483  0.39803314  0.47856142  1
  O  O315  1  0.58078288  0.40515983  0.98597948  1
  O  O316  1  0.57151289  0.73603742  0.46406519  1
  O  O317  1  0.56231080  0.74427394  0.97606940  1
  O  O318  1  0.90276834  0.07071169  0.47818414  1
  O  O319  1  0.90577712  0.07325565  0.98147331  1
  O  O320  1  0.89461430  0.39917716  0.48340086  1
  O  O321  1  0.90700098  0.41285740  0.98363390  1
  O  O322  1  0.90582136  0.73970490  0.46737418  1
  O  O323  1  0.90735427  0.73909398  0.99445609  1
  O  O324  1  0.10423711  0.25971190  0.22140787  1
  O  O325  1  0.09212130  0.25800012  0.72260847  1
  O  O326  1  0.08839536  0.58778766  0.22575179  1
  O  O327  1  0.10047810  0.59803128  0.71451365  1
  O  O328  1  0.09807450  0.93377747  0.23302694  1
  O  O329  1  0.09136759  0.93060271  0.73701113  1
  O  O330  1  0.41531727  0.26371986  0.22988090  1
  O  O331  1  0.43904271  0.25751008  0.72374541  1
  O  O332  1  0.43320280  0.59964095  0.25321077  1
  O  O333  1  0.42853202  0.60239107  0.72366800  1
  O  O334  1  0.42747462  0.93356904  0.21186467  1
  O  O335  1  0.43034431  0.93499819  0.74075844  1
  O  O336  1  0.77701814  0.27280465  0.24070943  1
  O  O337  1  0.76268672  0.25855166  0.71602623  1
  O  O338  1  0.77284000  0.60390483  0.23224669  1
  O  O339  1  0.76943748  0.60147754  0.72235151  1
  O  O340  1  0.76425421  0.92104983  0.22881775  1
  O  O341  1  0.76150496  0.93220823  0.72248713  1
  O  O342  1  0.07439524  0.09279648  0.22742851  1
  O  O343  1  0.06944174  0.10113635  0.73152217  1
  O  O344  1  0.07451019  0.42692064  0.22751220  1
  O  O345  1  0.07094398  0.41177634  0.72382566  1
  O  O346  1  0.06653145  0.75650185  0.23743931  1
  O  O347  1  0.07881658  0.75366648  0.73367297  1
  O  O348  1  0.39561145  0.10306420  0.21955546  1
  O  O349  1  0.41038350  0.09839126  0.73741388  1
  O  O350  1  0.39439611  0.42465441  0.24374225  1
  O  O351  1  0.41630978  0.41649824  0.72281850  1
  O  O352  1  0.39449900  0.77419084  0.22819786  1
  O  O353  1  0.41205328  0.76219685  0.72093895  1
  O  O354  1  0.73063419  0.10343030  0.22710803  1
  O  O355  1  0.73606257  0.09878723  0.72018383  1
  O  O356  1  0.74497893  0.43384331  0.23017682  1
  O  O357  1  0.74218043  0.41673952  0.73165509  1
  O  O358  1  0.74299731  0.75984741  0.22698373  1
  O  O359  1  0.73851665  0.77069192  0.72501688  1
