# generated using pymatgen
data_BaLaInIrO6
_symmetry_space_group_name_H-M   'P 1'
_cell_length_a   17.52584446
_cell_length_b   17.55151405
_cell_length_c   16.50386350
_cell_angle_alpha   90.03835259
_cell_angle_beta   89.98083718
_cell_angle_gamma   90.09149822
_symmetry_Int_Tables_number   1
_chemical_formula_structural   BaLaInIrO6
_chemical_formula_sum   'Ba36 La36 In36 Ir36 O216'
_cell_volume   5076.66477628
_cell_formula_units_Z   36
loop_
 _symmetry_equiv_pos_site_id
 _symmetry_equiv_pos_as_xyz
  1  'x, y, z'
loop_
 _atom_site_type_symbol
 _atom_site_label
 _atom_site_symmetry_multiplicity
 _atom_site_fract_x
 _atom_site_fract_y
 _atom_site_fract_z
 _atom_site_occupancy
  Ba  Ba0  1  0.66065943  0.48402996  0.87107921  1
  Ba  Ba1  1  0.83811843  0.99132030  0.87726443  1
  Ba  Ba2  1  0.33075561  0.49434017  0.87865190  1
  Ba  Ba3  1  1.00088030  0.51004003  0.62127502  1
  Ba  Ba4  1  0.83547992  0.65288004  0.87484305  1
  Ba  Ba5  1  0.33030394  0.82699576  0.37386855  1
  Ba  Ba6  1  0.49417754  0.33944206  0.12888620  1
  Ba  Ba7  1  0.49819025  0.00499705  0.12608284  1
  Ba  Ba8  1  0.50496625  0.98714477  0.37264377  1
  Ba  Ba9  1  0.83263629  0.00993180  0.62764946  1
  Ba  Ba10  1  0.66577854  0.14956723  0.87427395  1
  Ba  Ba11  1  0.33202116  0.15549725  0.37660024  1
  Ba  Ba12  1  0.67019004  0.83030462  0.37448691  1
  Ba  Ba13  1  0.00266543  0.16038014  0.37552410  1
  Ba  Ba14  1  1.00208081  0.17133366  0.12162371  1
  Ba  Ba15  1  0.49816124  0.67447925  0.12404925  1
  Ba  Ba16  1  -0.00036567  0.49373825  0.87259243  1
  Ba  Ba17  1  0.66690486  0.16904131  0.12508795  1
  Ba  Ba18  1  0.16727176  0.34556757  0.62035779  1
  Ba  Ba19  1  0.16661681  0.66039786  0.37291097  1
  Ba  Ba20  1  -0.00509882  0.82723030  0.37697479  1
  Ba  Ba21  1  0.83383313  0.34122824  0.62550203  1
  Ba  Ba22  1  0.33410650  0.83978649  0.12450642  1
  Ba  Ba23  1  0.82819188  0.32595797  0.86855817  1
  Ba  Ba24  1  0.83342951  0.32421393  0.37808950  1
  Ba  Ba25  1  0.16790583  0.98944586  0.87891645  1
  Ba  Ba26  1  0.50278156  0.68278497  0.62196717  1
  Ba  Ba27  1  -0.00769090  0.82229382  0.87889426  1
  Ba  Ba28  1  0.15813696  0.66305611  0.87950703  1
  Ba  Ba29  1  0.00163410  0.49292223  0.37141353  1
  Ba  Ba30  1  0.66194022  0.15783385  0.37762574  1
  Ba  Ba31  1  0.16991157  0.99177997  0.37422751  1
  Ba  Ba32  1  0.16608987  0.34063998  0.12640882  1
  Ba  Ba33  1  0.33375032  0.84094988  0.62260574  1
  Ba  Ba34  1  0.83385038  0.00999978  0.12346992  1
  Ba  Ba35  1  0.16952011  0.67121898  0.12246858  1
  La  La36  1  0.33036606  0.81829706  0.87752526  1
  La  La37  1  0.33210805  0.15362253  0.87581078  1
  La  La38  1  -0.00975858  0.16005772  0.86804766  1
  La  La39  1  0.83621819  0.33278189  0.12000115  1
  La  La40  1  0.33854445  0.51978036  0.62210223  1
  La  La41  1  0.49762951  0.01100755  0.62002366  1
  La  La42  1  0.32686547  0.48908586  0.37137382  1
  La  La43  1  0.99877290  0.51060454  0.12294008  1
  La  La44  1  0.34303933  0.17508734  0.12797295  1
  La  La45  1  0.84314656  0.64715032  0.37651859  1
  La  La46  1  0.67091833  0.17814724  0.62852382  1
  La  La47  1  0.50586808  0.31627113  0.37910206  1
  La  La48  1  0.66781929  0.85319593  0.12737828  1
  La  La49  1  0.33908930  0.17897311  0.62508553  1
  La  La50  1  0.67714037  0.51861021  0.63186156  1
  La  La51  1  1.00101013  0.18282016  0.62243260  1
  La  La52  1  0.17053483  0.31723470  0.87013219  1
  La  La53  1  1.00475311  0.84647068  0.12375860  1
  La  La54  1  0.50279938  0.66009679  0.37707004  1
  La  La55  1  0.50976354  0.30881168  0.87061124  1
  La  La56  1  0.82557395  0.68298450  0.12494856  1
  La  La57  1  0.33673368  0.51721507  0.12648341  1
  La  La58  1  1.00078190  0.85152005  0.63331004  1
  La  La59  1  0.50255545  0.98850205  0.87374634  1
  La  La60  1  0.66022412  0.48770623  0.37872014  1
  La  La61  1  0.66970599  0.85496415  0.62374470  1
  La  La62  1  0.50966813  0.64775668  0.87096067  1
  La  La63  1  0.82915943  1.00391266  0.36537003  1
  La  La64  1  0.16537385  0.00526615  0.13116016  1
  La  La65  1  0.49575294  0.34991250  0.62393996  1
  La  La66  1  0.16890252  0.32059257  0.37518703  1
  La  La67  1  0.82587518  0.68733321  0.63110889  1
  La  La68  1  0.66548820  0.82051468  0.87296725  1
  La  La69  1  0.16187466  0.01580440  0.62456897  1
  La  La70  1  0.16877182  0.67324384  0.62279523  1
  La  La71  1  0.67099127  0.50677696  0.12325002  1
  In  In72  1  0.49905346  0.16368266  0.25208015  1
  In  In73  1  0.17074619  0.16803937  0.24777559  1
  In  In74  1  0.33411310  0.33252730  -0.00354088  1
  In  In75  1  0.66759546  0.66718885  0.25119685  1
  In  In76  1  0.33794291  0.33458135  0.75176752  1
  In  In77  1  0.33626951  0.33710245  0.49923043  1
  In  In78  1  0.00208350  0.33693281  0.74828750  1
  In  In79  1  0.16750599  0.83290135  0.75201143  1
  In  In80  1  0.33482763  -0.00017099  0.74898956  1
  In  In81  1  0.66946704  0.67118116  0.49797023  1
  In  In82  1  0.16960889  0.50154937  0.74887618  1
  In  In83  1  0.33739685  0.66641059  0.74968707  1
  In  In84  1  0.00336431  0.00044013  -0.00108177  1
  In  In85  1  0.16501139  0.83305405  0.50234989  1
  In  In86  1  0.66445116  0.33823194  0.24964605  1
  In  In87  1  0.33669177  0.66571265  -0.00125327  1
  In  In88  1  0.83325012  0.16809103  -0.00398884  1
  In  In89  1  0.00261542  0.33382175  -0.00243257  1
  In  In90  1  -0.00341286  0.66890756  0.74647181  1
  In  In91  1  0.83532311  0.17128644  0.25013994  1
  In  In92  1  0.83417512  0.83786285  0.50184747  1
  In  In93  1  0.16538352  0.82949505  0.25018228  1
  In  In94  1  0.50017743  0.83639998  0.74738247  1
  In  In95  1  0.16512676  0.49663610  0.00058738  1
  In  In96  1  0.83106786  0.49872064  0.24881052  1
  In  In97  1  0.17056432  0.16501965  -0.00011529  1
  In  In98  1  0.49964628  0.83243083  -0.00166873  1
  In  In99  1  0.66610743  0.33574064  0.50486151  1
  In  In100  1  -0.00262509  0.66667987  0.24988822  1
  In  In101  1  0.66618108  0.66476182  0.00022319  1
  In  In102  1  0.16889049  0.16828785  0.50211144  1
  In  In103  1  0.83222806  0.83402929  0.25135765  1
  In  In104  1  -0.00084626  0.00172180  0.50021103  1
  In  In105  1  0.66181464  0.33202910  0.00060055  1
  In  In106  1  -0.00091310  0.33822142  0.49700301  1
  In  In107  1  0.49940150  0.49348241  0.00211108  1
  Ir  Ir108  1  0.83189360  0.16457165  0.74442551  1
  Ir  Ir109  1  0.33768259  0.66537398  0.49550344  1
  Ir  Ir110  1  0.50176202  0.16423820  0.50605546  1
  Ir  Ir111  1  0.33408840  0.00005530  0.50049644  1
  Ir  Ir112  1  0.50013111  0.83077018  0.25286107  1
  Ir  Ir113  1  0.16725194  0.16355859  0.75024371  1
  Ir  Ir114  1  0.66697986  -0.00522649  -0.00326007  1
  Ir  Ir115  1  0.82910223  0.83653486  0.75291194  1
  Ir  Ir116  1  0.16924512  0.49801910  0.25121299  1
  Ir  Ir117  1  0.50452153  0.49918058  0.74012243  1
  Ir  Ir118  1  0.00145537  -0.00069219  0.24856772  1
  Ir  Ir119  1  0.49606344  0.50107187  0.26007523  1
  Ir  Ir120  1  0.00107798  0.00548187  0.74802959  1
  Ir  Ir121  1  -0.00691699  0.66659505  0.50352504  1
  Ir  Ir122  1  0.66687480  0.66886180  0.74926033  1
  Ir  Ir123  1  0.33497203  0.33723369  0.25284180  1
  Ir  Ir124  1  0.50141292  0.83516006  0.49667842  1
  Ir  Ir125  1  0.82931116  0.50014430  0.74941176  1
  Ir  Ir126  1  0.83131760  0.83234023  0.00321392  1
  Ir  Ir127  1  0.00120745  0.33557822  0.24910729  1
  Ir  Ir128  1  0.66495116  -0.00208882  0.75170122  1
  Ir  Ir129  1  0.82950742  0.16239537  0.50199297  1
  Ir  Ir130  1  0.66040814  0.32874044  0.74666267  1
  Ir  Ir131  1  0.49631337  0.15930949  -0.00190911  1
  Ir  Ir132  1  0.66268173  0.00274216  0.50357618  1
  Ir  Ir133  1  0.66668579  -0.00072846  0.24970468  1
  Ir  Ir134  1  0.83366953  0.49788238  0.00028317  1
  Ir  Ir135  1  0.33926033  0.66395420  0.25477749  1
  Ir  Ir136  1  0.50159977  0.16294771  0.74655377  1
  Ir  Ir137  1  0.33543383  0.00013650  0.00010385  1
  Ir  Ir138  1  0.49857432  0.50272556  0.49857979  1
  Ir  Ir139  1  0.17119803  0.50553406  0.49308445  1
  Ir  Ir140  1  0.33339992  -0.00302948  0.24927192  1
  Ir  Ir141  1  0.16646137  0.83258734  0.00104043  1
  Ir  Ir142  1  -0.00895080  0.66579650  0.00464195  1
  Ir  Ir143  1  0.82956950  0.50483715  0.50621641  1
  O  O144  1  0.31576097  0.31663248  0.13311063  1
  O  O145  1  0.31925345  0.31839832  0.62622832  1
  O  O146  1  0.32288351  0.65750778  0.13474491  1
  O  O147  1  0.30930666  0.65899857  0.61510465  1
  O  O148  1  0.30306074  0.99685605  0.12314181  1
  O  O149  1  0.30395742  0.99974599  0.61993784  1
  O  O150  1  0.64462547  0.35451947  0.12505096  1
  O  O151  1  0.63217885  0.32247280  0.62753677  1
  O  O152  1  0.64395427  0.64509553  0.12633261  1
  O  O153  1  0.65035835  0.65835080  0.62806810  1
  O  O154  1  0.64489030  0.99127107  0.12306599  1
  O  O155  1  0.63324879  0.99440247  0.62795394  1
  O  O156  1  0.97109659  0.32840147  0.12955181  1
  O  O157  1  0.98307317  0.32120604  0.62280000  1
  O  O158  1  0.96196978  0.65594994  0.12257238  1
  O  O159  1  0.96014503  0.66478996  0.61977344  1
  O  O160  1  0.98380837  0.99339068  0.12920173  1
  O  O161  1  0.98115696  0.99789588  0.63167183  1
  O  O162  1  0.20809484  0.16278819  0.12619325  1
  O  O163  1  0.20267164  0.15603791  0.63086262  1
  O  O164  1  0.20038093  0.49351065  0.13450534  1
  O  O165  1  0.20052316  0.50592283  0.61008934  1
  O  O166  1  0.18397357  0.83337053  0.12024108  1
  O  O167  1  0.18592436  0.81142498  0.62538546  1
  O  O168  1  0.51355563  0.16259520  0.11920254  1
  O  O169  1  0.53377860  0.15057615  0.62720714  1
  O  O170  1  0.53213504  0.49593925  0.14170499  1
  O  O171  1  0.53873997  0.48956395  0.61815131  1
  O  O172  1  0.52885132  0.83085173  0.13089099  1
  O  O173  1  0.53160191  0.83865791  0.61698869  1
  O  O174  1  0.85068560  0.17610352  0.12398160  1
  O  O175  1  0.86154015  0.16398216  0.62314686  1
  O  O176  1  0.85735827  0.48039307  0.11924655  1
  O  O177  1  0.84957452  0.49777527  0.62829495  1
  O  O178  1  0.86446260  0.82398862  0.12194279  1
  O  O179  1  0.85861197  0.82966124  0.63407572  1
  O  O180  1  0.15378991  0.17379368  0.37331678  1
  O  O181  1  0.13133763  0.17059331  0.86749772  1
  O  O182  1  0.14905589  0.50621171  0.37233372  1
  O  O183  1  0.14963939  0.51246184  0.87513256  1
  O  O184  1  0.14691320  0.83031313  0.37683673  1
  O  O185  1  0.14387942  0.83366335  0.88304644  1
  O  O186  1  0.48109058  0.17444655  0.38462991  1
  O  O187  1  0.46978564  0.16779295  0.87051640  1
  O  O188  1  0.46158591  0.51511026  0.38031500  1
  O  O189  1  0.48310788  0.50936506  0.85973649  1
  O  O190  1  0.47740995  0.83139683  0.37511642  1
  O  O191  1  0.46706725  0.85473108  0.87242614  1
  O  O192  1  0.81126393  0.16141061  0.38075270  1
  O  O193  1  0.81383176  0.16569544  0.86351934  1
  O  O194  1  0.80034818  0.50992743  0.38621050  1
  O  O195  1  0.80872554  0.50088070  0.87239855  1
  O  O196  1  0.82108688  0.86356067  0.37715438  1
  O  O197  1  0.79984196  0.83724161  0.87904687  1
  O  O198  1  0.01727165  -0.00160793  0.36971045  1
  O  O199  1  0.01960015  0.01491527  0.86815504  1
  O  O200  1  0.03067267  0.33873400  0.36987107  1
  O  O201  1  0.03512954  0.33676075  0.87099408  1
  O  O202  1  0.01384767  0.66818798  0.38416617  1
  O  O203  1  0.00701275  0.66676392  0.88258579  1
  O  O204  1  0.35811965  0.00063967  0.37349627  1
  O  O205  1  0.36749956  0.01365506  0.88012731  1
  O  O206  1  0.37035742  0.35015728  0.37245699  1
  O  O207  1  0.37881751  0.33761485  0.87215858  1
  O  O208  1  0.36742938  0.66628722  0.37544704  1
  O  O209  1  0.37283852  0.66973717  0.87330733  1
  O  O210  1  0.69381239  0.00310515  0.37725084  1
  O  O211  1  0.69086658  -0.00706358  0.87346264  1
  O  O212  1  0.68189778  0.34657659  0.37981377  1
  O  O213  1  0.67690929  0.32803146  0.86689412  1
  O  O214  1  0.70676538  0.67214018  0.37554535  1
  O  O215  1  0.68827090  0.67802266  0.86931889  1
  O  O216  1  0.09389352  0.07661543  0.02984860  1
  O  O217  1  0.07169114  0.09667405  0.52947420  1
  O  O218  1  0.06412178  0.43471027  0.03021701  1
  O  O219  1  0.08235593  0.43497341  0.51023528  1
  O  O220  1  0.06360377  0.76351988  0.02488123  1
  O  O221  1  0.05997192  0.75677808  0.53109788  1
  O  O222  1  0.39940975  0.09470205  0.02414647  1
  O  O223  1  0.40633368  0.09415277  0.53064188  1
  O  O224  1  0.39692312  0.43069235  0.03115541  1
  O  O225  1  0.40827362  0.43357642  0.52706101  1
  O  O226  1  0.40335091  0.76453538  0.01025801  1
  O  O227  1  0.40736184  0.76143815  0.51434942  1
  O  O228  1  0.73824131  0.08506532  0.01239881  1
  O  O229  1  0.73043328  0.09768513  0.52635738  1
  O  O230  1  0.73745684  0.43650271  0.01522684  1
  O  O231  1  0.73116637  0.44100602  0.52438733  1
  O  O232  1  0.73790409  0.76455089  0.02692663  1
  O  O233  1  0.73772570  0.76796935  0.53321381  1
  O  O234  1  0.09521600  0.25691679  0.01509460  1
  O  O235  1  0.08938440  0.25917868  0.51339205  1
  O  O236  1  0.07905275  0.59555058  0.02542974  1
  O  O237  1  0.09935869  0.60238531  0.52106453  1
  O  O238  1  0.09362716  0.91903335  0.02599681  1
  O  O239  1  0.09912411  0.93248509  0.53172591  1
  O  O240  1  0.42330422  0.24574422  0.01725947  1
  O  O241  1  0.43466081  0.25759480  0.52589614  1
  O  O242  1  0.42698698  0.58687208  0.01762866  1
  O  O243  1  0.42948652  0.59402482  0.52162979  1
  O  O244  1  0.42381251  0.93191401  0.01496953  1
  O  O245  1  0.43225067  0.93272356  0.52126898  1
  O  O246  1  0.75992059  0.26490260  0.01877760  1
  O  O247  1  0.75642036  0.25134815  0.52175732  1
  O  O248  1  0.76876545  0.59208338  0.02613696  1
  O  O249  1  0.76554537  0.59775405  0.53034691  1
  O  O250  1  0.75681451  0.92097295  0.02727670  1
  O  O251  1  0.74954484  0.93059379  0.52418449  1
  O  O252  1  0.24570797  0.06769016  0.26077923  1
  O  O253  1  0.23895567  0.07651266  0.77224022  1
  O  O254  1  0.24132444  0.40682063  0.28107258  1
  O  O255  1  0.23716141  0.39645200  0.77414284  1
  O  O256  1  0.24888300  0.73478450  0.26270563  1
  O  O257  1  0.24242835  0.73837614  0.77282838  1
  O  O258  1  0.57893830  0.07233667  0.26297766  1
  O  O259  1  0.56594338  0.06290966  0.77081124  1
  O  O260  1  0.55939662  0.41143726  0.29040344  1
  O  O261  1  0.56269628  0.39456434  0.76334311  1
  O  O262  1  0.56561072  0.73726288  0.27500098  1
  O  O263  1  0.57412913  0.73670299  0.77581719  1
  O  O264  1  0.90957917  0.07070740  0.26789497  1
  O  O265  1  0.90984976  0.07879951  0.77143875  1
  O  O266  1  0.90745299  0.40120793  0.26297989  1
  O  O267  1  0.89980548  0.40993141  0.76247705  1
  O  O268  1  0.89368991  0.73206851  0.27331643  1
  O  O269  1  0.89421354  0.74278370  0.76300838  1
  O  O270  1  0.26000695  0.25450515  0.27922628  1
  O  O271  1  0.26183497  0.22979115  0.77558171  1
  O  O272  1  0.27035652  0.56574444  0.27027443  1
  O  O273  1  0.27513631  0.56293640  0.74801163  1
  O  O274  1  0.25860790  0.91149236  0.26123858  1
  O  O275  1  0.26908487  0.90177925  0.77666187  1
  O  O276  1  0.58308880  0.24903598  0.26911623  1
  O  O277  1  0.59511395  0.23158508  0.76623338  1
  O  O278  1  0.58655790  0.57064655  0.28981341  1
  O  O279  1  0.59815069  0.57264372  0.76490763  1
  O  O280  1  0.59529752  0.89977335  0.26142276  1
  O  O281  1  0.60339168  0.90153328  0.77281557  1
  O  O282  1  0.93357147  0.24569026  0.27003407  1
  O  O283  1  0.92780288  0.23186303  0.76094290  1
  O  O284  1  0.92361019  0.57230931  0.26869643  1
  O  O285  1  0.91961909  0.57088928  0.76212212  1
  O  O286  1  0.92961536  0.91163496  0.25776177  1
  O  O287  1  0.93012717  0.90706524  0.76604271  1
  O  O288  1  0.25834873  0.24871640  0.48094998  1
  O  O289  1  0.26280989  0.23720062  0.96121925  1
  O  O290  1  0.27267468  0.56914380  0.47456285  1
  O  O291  1  0.25881231  0.57402843  1.00147035  1
  O  O292  1  0.26388536  0.91249481  0.48487875  1
  O  O293  1  0.26574556  0.90155664  0.97520609  1
  O  O294  1  0.58716481  0.23991929  0.48722295  1
  O  O295  1  0.58415516  0.23116028  0.98013092  1
  O  O296  1  0.59068545  0.57269713  0.47350146  1
  O  O297  1  0.59141724  0.57102208  0.97908078  1
  O  O298  1  0.59660127  0.90419110  0.48479716  1
  O  O299  1  0.60009174  0.90219728  0.97567331  1
  O  O300  1  0.92022924  0.23221766  0.48838492  1
  O  O301  1  0.92877532  0.24111135  0.96714080  1
  O  O302  1  0.92237345  0.57291348  0.47801770  1
  O  O303  1  0.92997759  0.56534527  0.99079786  1
  O  O304  1  0.93760760  0.89816736  0.50611037  1
  O  O305  1  0.92219684  0.90425752  0.99101911  1
  O  O306  1  0.24444651  0.06976636  0.48751803  1
  O  O307  1  0.25333875  0.07366110  0.97451658  1
  O  O308  1  0.23895956  0.41263355  0.46794215  1
  O  O309  1  0.23075766  0.39446547  0.97333798  1
  O  O310  1  0.24628195  0.73293570  0.48428091  1
  O  O311  1  0.24173181  0.74759792  0.98047518  1
  O  O312  1  0.56917924  0.07107285  0.48656005  1
  O  O313  1  0.56878931  0.06212155  0.97467706  1
  O  O314  1  0.56164255  0.40802047  0.47626499  1
  O  O315  1  0.55972295  0.39353977  0.97178308  1
  O  O316  1  0.56822103  0.74028818  0.47505600  1
  O  O317  1  0.57261567  0.73890675  0.96573470  1
  O  O318  1  0.89382212  0.06724131  0.47877627  1
  O  O319  1  0.91840890  0.08259531  0.98234927  1
  O  O320  1  0.90009001  0.41414192  0.48619844  1
  O  O321  1  0.89710901  0.40509712  0.98406039  1
  O  O322  1  0.89486129  0.72701942  0.48322556  1
  O  O323  1  0.89665176  0.73727824  0.98724656  1
  O  O324  1  0.09190615  0.26619230  0.23918965  1
  O  O325  1  0.09737671  0.24933850  0.72495050  1
  O  O326  1  0.09349803  0.58411507  0.22800043  1
  O  O327  1  0.09896509  0.60482652  0.72315684  1
  O  O328  1  0.09125343  0.92759250  0.22516092  1
  O  O329  1  0.09516847  0.93688204  0.72496914  1
  O  O330  1  0.41750657  0.25820355  0.24049839  1
  O  O331  1  0.43919815  0.25810008  0.72085388  1
  O  O332  1  0.42893236  0.59030496  0.23405503  1
  O  O333  1  0.43736531  0.58871144  0.72086934  1
  O  O334  1  0.42658060  0.92339306  0.23421121  1
  O  O335  1  0.44069628  0.94350113  0.72845736  1
  O  O336  1  0.76426842  0.27059954  0.23007173  1
  O  O337  1  0.75321742  0.25357071  0.72030623  1
  O  O338  1  0.76747984  0.60021619  0.22267012  1
  O  O339  1  0.76134152  0.59782185  0.72403427  1
  O  O340  1  0.75459447  0.92802016  0.23127987  1
  O  O341  1  0.75544592  0.92602184  0.72787673  1
  O  O342  1  0.07896109  0.08396269  0.22985990  1
  O  O343  1  0.07007453  0.09796714  0.72014396  1
  O  O344  1  0.07091168  0.43220459  0.22536448  1
  O  O345  1  0.07678253  0.42872133  0.72522080  1
  O  O346  1  0.06535409  0.76259383  0.22421428  1
  O  O347  1  0.06211734  0.77015205  0.73302991  1
  O  O348  1  0.40130230  0.09108156  0.23028666  1
  O  O349  1  0.40355687  0.10407704  0.72444833  1
  O  O350  1  0.40041042  0.43398831  0.22944566  1
  O  O351  1  0.41376608  0.43145654  0.71108274  1
  O  O352  1  0.40772010  0.75959534  0.23590971  1
  O  O353  1  0.40805034  0.76334302  0.73194798  1
  O  O354  1  0.74079072  0.08728097  0.24002587  1
  O  O355  1  0.73221219  0.09565761  0.72528768  1
  O  O356  1  0.72093159  0.44808599  0.24420874  1
  O  O357  1  0.72879887  0.42836938  0.72640066  1
  O  O358  1  0.73326234  0.76756417  0.21747041  1
  O  O359  1  0.73138324  0.76951996  0.72774727  1
