# generated using pymatgen
data_BaLaInIrO6
_symmetry_space_group_name_H-M   'P 1'
_cell_length_a   17.51318544
_cell_length_b   17.53890042
_cell_length_c   16.48621420
_cell_angle_alpha   90.06208503
_cell_angle_beta   90.01980820
_cell_angle_gamma   89.95812005
_symmetry_Int_Tables_number   1
_chemical_formula_structural   BaLaInIrO6
_chemical_formula_sum   'Ba36 La36 In36 Ir36 O216'
_cell_volume   5063.93415555
_cell_formula_units_Z   36
loop_
 _symmetry_equiv_pos_site_id
 _symmetry_equiv_pos_as_xyz
  1  'x, y, z'
loop_
 _atom_site_type_symbol
 _atom_site_label
 _atom_site_symmetry_multiplicity
 _atom_site_fract_x
 _atom_site_fract_y
 _atom_site_fract_z
 _atom_site_occupancy
  Ba  Ba0  1  1.00128404  0.51361533  0.62614243  1
  Ba  Ba1  1  0.66505678  0.82377640  0.37770685  1
  Ba  Ba2  1  0.66477637  0.17699436  0.62573994  1
  Ba  Ba3  1  0.50336413  0.32674810  0.37681565  1
  Ba  Ba4  1  0.16773037  0.65777899  0.37319496  1
  Ba  Ba5  1  0.16823609  0.00771589  0.12550667  1
  Ba  Ba6  1  0.16735505  0.33758370  0.12368527  1
  Ba  Ba7  1  0.49890167  0.00848491  0.63083669  1
  Ba  Ba8  1  0.66570849  0.82389481  0.87098091  1
  Ba  Ba9  1  0.49667190  0.00811919  0.12224644  1
  Ba  Ba10  1  0.50355063  0.65572384  0.87341097  1
  Ba  Ba11  1  0.83372772  0.32695974  0.37913899  1
  Ba  Ba12  1  0.16780051  0.98675603  0.88081895  1
  Ba  Ba13  1  -0.00117290  0.82710306  0.87594082  1
  Ba  Ba14  1  0.66689216  0.50493003  0.12569857  1
  Ba  Ba15  1  0.66609766  0.84499628  0.12657721  1
  Ba  Ba16  1  0.33254194  0.82597911  0.87762244  1
  Ba  Ba17  1  1.00283810  0.84492753  0.12315880  1
  Ba  Ba18  1  0.50402803  0.67174736  0.62157420  1
  Ba  Ba19  1  0.83323700  0.00698663  0.62267063  1
  Ba  Ba20  1  0.50231727  0.65575643  0.37191505  1
  Ba  Ba21  1  -0.00532097  0.82081301  0.37406020  1
  Ba  Ba22  1  0.83505161  0.34119952  0.62719497  1
  Ba  Ba23  1  0.66488411  0.84502647  0.62450402  1
  Ba  Ba24  1  0.33433283  0.48990222  0.87638054  1
  Ba  Ba25  1  0.49722449  0.33729457  0.62337398  1
  Ba  Ba26  1  0.33389868  0.17503237  0.12203267  1
  Ba  Ba27  1  0.50365054  0.32413637  0.87547931  1
  Ba  Ba28  1  0.00064298  0.15816313  0.87730608  1
  Ba  Ba29  1  0.67033658  0.48926153  0.37270343  1
  Ba  Ba30  1  0.49879804  0.67399577  0.12435929  1
  Ba  Ba31  1  0.66459119  0.16405560  0.37889779  1
  Ba  Ba32  1  1.00437112  0.17330047  0.12494275  1
  Ba  Ba33  1  0.82820930  0.66941190  0.62305806  1
  Ba  Ba34  1  0.33464547  0.16260973  0.37516903  1
  Ba  Ba35  1  0.16732328  0.67894377  0.12224550  1
  La  La36  1  0.83687739  0.65021615  0.87782968  1
  La  La37  1  0.16010777  0.35087382  0.62488451  1
  La  La38  1  1.00408348  0.18556688  0.62253790  1
  La  La39  1  0.83329065  0.98409297  0.37696093  1
  La  La40  1  0.83659915  0.32011117  0.87515519  1
  La  La41  1  0.34354998  0.51107734  0.12449961  1
  La  La42  1  0.33546231  0.51486475  0.62519632  1
  La  La43  1  0.83019819  0.34754185  0.13152167  1
  La  La44  1  0.33298406  0.82804003  0.36674625  1
  La  La45  1  0.82811696  0.68189786  0.12782639  1
  La  La46  1  0.50115435  0.98610947  0.87568076  1
  La  La47  1  0.34136890  0.85037266  0.62699818  1
  La  La48  1  0.82938145  0.01150134  0.12318464  1
  La  La49  1  1.00320766  0.84900553  0.62886442  1
  La  La50  1  0.33931648  0.18189626  0.62916848  1
  La  La51  1  -0.00349497  0.48677321  0.37329273  1
  La  La52  1  0.66075405  0.48558143  0.87002966  1
  La  La53  1  0.15821716  0.01738991  0.62545653  1
  La  La54  1  0.34052205  0.84987102  0.12313243  1
  La  La55  1  0.16797761  0.31935270  0.37342504  1
  La  La56  1  0.32660498  0.48256319  0.37832962  1
  La  La57  1  0.00138042  0.48504482  0.87794990  1
  La  La58  1  0.50762868  0.99129273  0.37440543  1
  La  La59  1  -0.00666241  0.15363717  0.37492023  1
  La  La60  1  0.49697125  0.34553752  0.12694035  1
  La  La61  1  0.83630818  0.98677445  0.87132196  1
  La  La62  1  1.00445003  0.51434807  0.12639785  1
  La  La63  1  0.33023893  0.15149316  0.87373831  1
  La  La64  1  0.66949433  0.17810610  0.12873370  1
  La  La65  1  0.65928515  0.49264897  0.61848388  1
  La  La66  1  0.16906367  0.98411990  0.36955667  1
  La  La67  1  0.66139682  0.15403376  0.87048968  1
  La  La68  1  0.15889593  0.68597571  0.62619938  1
  La  La69  1  0.17326454  0.31525375  0.87302158  1
  La  La70  1  0.83530864  0.64663660  0.37195478  1
  La  La71  1  0.17198068  0.65838554  0.87790168  1
  In  In72  1  -0.00147017  -0.00010972  0.25041017  1
  In  In73  1  0.49781478  0.82831971  0.75026316  1
  In  In74  1  0.49596514  0.49841017  0.49692417  1
  In  In75  1  0.83847118  0.49682965  0.50099828  1
  In  In76  1  0.83457071  0.16806201  0.25147456  1
  In  In77  1  0.50038842  0.83373924  0.24823024  1
  In  In78  1  0.83605861  0.82831333  0.74911257  1
  In  In79  1  0.66755396  0.66269756  0.49762782  1
  In  In80  1  0.49508125  0.16689254  0.50047598  1
  In  In81  1  0.50283373  0.82903606  -0.00165293  1
  In  In82  1  0.32713255  0.66902677  0.50231090  1
  In  In83  1  0.16749515  0.16576659  0.00125762  1
  In  In84  1  0.66730389  0.00346733  0.49928766  1
  In  In85  1  0.16819912  0.49768010  0.24928857  1
  In  In86  1  0.67154692  0.66107457  0.75016819  1
  In  In87  1  0.16777609  0.49728557  0.00227026  1
  In  In88  1  -0.00075019  0.66691329  0.24925479  1
  In  In89  1  0.33530930  0.00770039  0.25106396  1
  In  In90  1  0.50222398  0.49960705  -0.00189929  1
  In  In91  1  0.16652525  0.50173266  0.75031924  1
  In  In92  1  0.33300903  0.66593136  0.24990468  1
  In  In93  1  0.32875568  0.00417045  0.49919792  1
  In  In94  1  0.16768345  0.83441230  0.50022840  1
  In  In95  1  0.66978612  0.32882236  -0.00006919  1
  In  In96  1  0.33394343  0.33108715  0.24925347  1
  In  In97  1  0.00178291  0.00201921  0.49890790  1
  In  In98  1  0.83405993  0.16687184  0.75045939  1
  In  In99  1  0.49661930  0.49685064  0.74848436  1
  In  In100  1  -0.00039370  0.66656919  -0.00226698  1
  In  In101  1  0.83169369  0.83383006  0.00053321  1
  In  In102  1  0.49534081  0.83457935  0.50000253  1
  In  In103  1  0.83660852  0.49740174  0.75412951  1
  In  In104  1  0.83529238  0.82877833  0.50062118  1
  In  In105  1  -0.00179090  0.33301655  0.00369859  1
  In  In106  1  0.00126776  0.00325933  0.75181422  1
  In  In107  1  0.66615202  0.00393826  0.00020560  1
  Ir  Ir108  1  0.66950112  0.33305957  0.74989638  1
  Ir  Ir109  1  0.50005531  0.49784490  0.24830389  1
  Ir  Ir110  1  0.33577030  0.33029467  -0.00409865  1
  Ir  Ir111  1  0.17046840  0.83402144  0.75116677  1
  Ir  Ir112  1  0.83138236  0.16716259  0.00225731  1
  Ir  Ir113  1  0.83422187  0.49654878  0.00047138  1
  Ir  Ir114  1  0.67386503  0.66193212  0.00369620  1
  Ir  Ir115  1  0.49479532  0.16761533  0.75559250  1
  Ir  Ir116  1  -0.00004286  0.33290825  0.25215766  1
  Ir  Ir117  1  0.16514982  0.16943245  0.50117314  1
  Ir  Ir118  1  0.66803622  0.00533956  0.24883918  1
  Ir  Ir119  1  0.67133771  0.66345867  0.24441656  1
  Ir  Ir120  1  0.16112970  0.17012430  0.25707715  1
  Ir  Ir121  1  0.50586680  0.16883469  0.24451640  1
  Ir  Ir122  1  0.17012187  0.16887758  0.74387873  1
  Ir  Ir123  1  0.00584905  0.66739109  0.75066434  1
  Ir  Ir124  1  0.33483279  0.00290029  -0.00364362  1
  Ir  Ir125  1  0.16903540  0.83555933  0.00050393  1
  Ir  Ir126  1  0.66636856  0.00678789  0.75352040  1
  Ir  Ir127  1  0.32519832  0.66626995  0.75206530  1
  Ir  Ir128  1  0.33020317  0.66681715  -0.00242233  1
  Ir  Ir129  1  0.83674600  0.16949439  0.49930289  1
  Ir  Ir130  1  -0.00279794  0.00145465  -0.00031266  1
  Ir  Ir131  1  0.00535758  0.33278928  0.75039256  1
  Ir  Ir132  1  0.16666534  0.83547382  0.24780611  1
  Ir  Ir133  1  0.32512191  0.00232220  0.75049584  1
  Ir  Ir134  1  0.83035823  0.83267494  0.24917553  1
  Ir  Ir135  1  0.49945014  0.16711616  -0.00379551  1
  Ir  Ir136  1  0.00781870  0.33274735  0.50018290  1
  Ir  Ir137  1  0.16443784  0.49810575  0.50035001  1
  Ir  Ir138  1  0.32245239  0.33294995  0.50373489  1
  Ir  Ir139  1  0.32783635  0.32969637  0.75020109  1
  Ir  Ir140  1  0.66427913  0.33185626  0.24758423  1
  Ir  Ir141  1  0.00192374  0.66425713  0.50206595  1
  Ir  Ir142  1  0.83854434  0.49475318  0.24503744  1
  Ir  Ir143  1  0.66792756  0.33107468  0.50104769  1
  O  O144  1  0.31676959  0.33010140  0.11655446  1
  O  O145  1  0.29394754  0.31984186  0.62835204  1
  O  O146  1  0.31406567  0.64899527  0.11804646  1
  O  O147  1  0.29373633  0.65116686  0.63450154  1
  O  O148  1  0.31816163  0.99940966  0.11847845  1
  O  O149  1  0.29177801  0.99177469  0.63187828  1
  O  O150  1  0.63610819  0.32349756  0.12796309  1
  O  O151  1  0.64646341  0.33529084  0.62610358  1
  O  O152  1  0.64936998  0.65848858  0.12421362  1
  O  O153  1  0.66013158  0.62911759  0.62433259  1
  O  O154  1  0.64650237  1.00789284  0.13010400  1
  O  O155  1  0.64990841  1.00602891  0.63277827  1
  O  O156  1  0.96791461  0.32413761  0.13230165  1
  O  O157  1  0.98322376  0.32103316  0.62433586  1
  O  O158  1  0.96392830  0.65408090  0.12471704  1
  O  O159  1  0.98004584  0.66794197  0.62701050  1
  O  O160  1  0.96891280  1.00497576  0.12170704  1
  O  O161  1  0.98704427  0.99347975  0.62513599  1
  O  O162  1  0.18030746  0.16767948  0.13432079  1
  O  O163  1  0.20111481  0.15640193  0.62103348  1
  O  O164  1  0.20830860  0.48911329  0.12438219  1
  O  O165  1  0.19825375  0.48942765  0.62117163  1
  O  O166  1  0.20018497  0.83731201  0.12428441  1
  O  O167  1  0.20063467  0.82712397  0.63347847  1
  O  O168  1  0.53306057  0.16413417  0.11832608  1
  O  O169  1  0.51149546  0.16754454  0.63519617  1
  O  O170  1  0.51569625  0.49015623  0.12685192  1
  O  O171  1  0.52256216  0.49459301  0.62464100  1
  O  O172  1  0.51623559  0.83579362  0.12244217  1
  O  O173  1  0.51311213  0.83563535  0.62781475  1
  O  O174  1  0.85627186  0.15134259  0.12087755  1
  O  O175  1  0.86605126  0.16618777  0.62031549  1
  O  O176  1  0.86966413  0.48695145  0.12088106  1
  O  O177  1  0.85144248  0.49790185  0.62773114  1
  O  O178  1  0.85181176  0.82527073  0.13011641  1
  O  O179  1  0.87127657  0.82820246  0.62445177  1
  O  O180  1  0.12973556  0.18187834  0.38160001  1
  O  O181  1  0.14933880  0.17776578  0.86506894  1
  O  O182  1  0.13173255  0.50087457  0.38191700  1
  O  O183  1  0.13560511  0.51098830  0.87530701  1
  O  O184  1  0.14350653  0.84032101  0.36807003  1
  O  O185  1  0.14627622  0.83185922  0.87488860  1
  O  O186  1  0.48552926  0.17378566  0.36524338  1
  O  O187  1  0.46584062  0.17223397  0.87686765  1
  O  O188  1  0.46628720  0.49479036  0.36806430  1
  O  O189  1  0.48460011  0.49320427  0.87349743  1
  O  O190  1  0.46766099  0.84773107  0.37189153  1
  O  O191  1  0.48285403  0.84269147  0.87405338  1
  O  O192  1  0.81601824  0.17516336  0.38080175  1
  O  O193  1  0.80119839  0.18277888  0.88372591  1
  O  O194  1  0.82404996  0.49923406  0.36651409  1
  O  O195  1  0.79864920  0.50053033  0.88480170  1
  O  O196  1  0.81411078  0.84234688  0.36725715  1
  O  O197  1  0.81575785  0.85079457  0.87522005  1
  O  O198  1  0.03504509  0.01256546  0.37603032  1
  O  O199  1  0.01942036  0.00041396  0.88004613  1
  O  O200  1  0.03290327  0.34763553  0.37616295  1
  O  O201  1  0.03475312  0.34357474  0.86971037  1
  O  O202  1  0.01920317  0.66189430  0.38100541  1
  O  O203  1  0.03669269  0.66908504  0.86890868  1
  O  O204  1  0.37025821  0.00940603  0.37491866  1
  O  O205  1  0.36138151  0.01180325  0.87234459  1
  O  O206  1  0.34946630  0.34086826  0.38303477  1
  O  O207  1  0.35611682  0.33298612  0.87133804  1
  O  O208  1  0.34901541  0.68984419  0.37597107  1
  O  O209  1  0.35343660  0.67369270  0.87421317  1
  O  O210  1  0.69820464  0.00841684  0.36577492  1
  O  O211  1  0.69761195  0.01518054  0.87361960  1
  O  O212  1  0.68569761  0.32983862  0.37563665  1
  O  O213  1  0.69817128  0.34203555  0.87131976  1
  O  O214  1  0.69916111  0.66633360  0.36086652  1
  O  O215  1  0.70108620  0.66672136  0.88693527  1
  O  O216  1  0.07230650  0.08763170  0.01237038  1
  O  O217  1  0.07133324  0.10658243  0.52744932  1
  O  O218  1  0.06228049  0.43350167  0.02337617  1
  O  O219  1  0.07583644  0.42549608  0.52640933  1
  O  O220  1  0.07951622  0.76418333  0.01504534  1
  O  O221  1  0.06209408  0.76283373  0.52649454  1
  O  O222  1  0.40222586  0.10089717  0.00703837  1
  O  O223  1  0.39357033  0.10365417  0.52801077  1
  O  O224  1  0.40373648  0.42174439  0.02333832  1
  O  O225  1  0.38765787  0.42694066  0.52249228  1
  O  O226  1  0.39730792  0.75854904  0.02295574  1
  O  O227  1  0.38994341  0.77017007  0.52281109  1
  O  O228  1  0.73699417  0.10366057  0.02295435  1
  O  O229  1  0.74776129  0.10052782  0.51621525  1
  O  O230  1  0.75280107  0.41982508  0.02795564  1
  O  O231  1  0.73895031  0.42225224  0.51758376  1
  O  O232  1  0.74106293  0.75231423  0.02580006  1
  O  O233  1  0.73903891  0.75955486  0.51582217  1
  O  O234  1  0.09504240  0.26075287  0.00457052  1
  O  O235  1  0.10162921  0.26506368  0.52786385  1
  O  O236  1  0.08665264  0.58839501  0.02587085  1
  O  O237  1  0.10188675  0.59749822  0.52713687  1
  O  O238  1  0.09228368  0.93032425  0.02025984  1
  O  O239  1  0.10169940  0.93196634  0.52619708  1
  O  O240  1  0.43492452  0.26522692  0.02308881  1
  O  O241  1  0.41173436  0.26104102  0.51954756  1
  O  O242  1  0.41754826  0.59008491  0.01343962  1
  O  O243  1  0.41393722  0.58656495  0.52330329  1
  O  O244  1  0.41974940  0.92837064  0.00851210  1
  O  O245  1  0.41551746  0.92761458  0.53023254  1
  O  O246  1  0.76604832  0.25858821  0.03426929  1
  O  O247  1  0.76337396  0.25955637  0.52072368  1
  O  O248  1  0.77235253  0.59467768  0.02641482  1
  O  O249  1  0.77072192  0.59377466  0.49010660  1
  O  O250  1  0.76530803  0.93602236  0.02322531  1
  O  O251  1  0.76306322  0.93090794  0.50399615  1
  O  O252  1  0.22858244  0.07461495  0.27623639  1
  O  O253  1  0.23628193  0.07601366  0.77171505  1
  O  O254  1  0.23861595  0.40284104  0.28226266  1
  O  O255  1  0.23278365  0.39460172  0.76879581  1
  O  O256  1  0.23881786  0.75037847  0.26477591  1
  O  O257  1  0.22876221  0.73245788  0.77216429  1
  O  O258  1  0.57160489  0.07170047  0.27159954  1
  O  O259  1  0.56737352  0.07670568  0.78301284  1
  O  O260  1  0.56871078  0.40167816  0.26019455  1
  O  O261  1  0.57936425  0.40061878  0.76451397  1
  O  O262  1  0.58180125  0.73568389  0.26130768  1
  O  O263  1  0.57491858  0.73549226  0.76300889  1
  O  O264  1  0.90206860  0.06993496  0.27981645  1
  O  O265  1  0.90138764  0.07118957  0.77696153  1
  O  O266  1  0.90323217  0.39719367  0.26310940  1
  O  O267  1  0.91256329  0.40216657  0.78231060  1
  O  O268  1  0.89444578  0.73552693  0.26798729  1
  O  O269  1  0.91086269  0.72667916  0.77855370  1
  O  O270  1  0.25225126  0.24001160  0.26926686  1
  O  O271  1  0.26360057  0.23501851  0.77542134  1
  O  O272  1  0.26831070  0.56529173  0.27638301  1
  O  O273  1  0.25833430  0.57704021  0.77653917  1
  O  O274  1  0.25570133  0.90861025  0.27072740  1
  O  O275  1  0.26130270  0.90522457  0.77197561  1
  O  O276  1  0.60131878  0.23311184  0.25606045  1
  O  O277  1  0.59791187  0.23403283  0.77518561  1
  O  O278  1  0.59654515  0.57010548  0.26578318  1
  O  O279  1  0.60070088  0.56190184  0.77278179  1
  O  O280  1  0.59289154  0.91907771  0.27152667  1
  O  O281  1  0.58960056  0.92297025  0.77146357  1
  O  O282  1  0.93715506  0.23708311  0.27553103  1
  O  O283  1  0.93001721  0.24674064  0.76943587  1
  O  O284  1  0.92996253  0.56198377  0.27031008  1
  O  O285  1  0.94425713  0.57054207  0.77904664  1
  O  O286  1  0.91785534  0.90628022  0.26785579  1
  O  O287  1  0.93041177  0.90565906  0.76028462  1
  O  O288  1  0.25269238  0.24169383  0.47633629  1
  O  O289  1  0.26714469  0.23932780  0.97172389  1
  O  O290  1  0.25914125  0.55860285  0.47588050  1
  O  O291  1  0.25597837  0.58165864  0.97502734  1
  O  O292  1  0.26003242  0.90652631  0.46199748  1
  O  O293  1  0.26560259  0.90689014  0.99059809  1
  O  O294  1  0.58984841  0.24643760  0.49232245  1
  O  O295  1  0.59768020  0.22795637  0.97851066  1
  O  O296  1  0.59090518  0.56921281  0.47905720  1
  O  O297  1  0.60672852  0.56933819  0.97853281  1
  O  O298  1  0.58426514  0.91710286  0.47447039  1
  O  O299  1  0.58773045  0.91644813  0.97719729  1
  O  O300  1  0.94149062  0.23477649  0.48184089  1
  O  O301  1  0.91689471  0.24210359  0.97682999  1
  O  O302  1  0.94204713  0.56748909  0.47858265  1
  O  O303  1  0.92402559  0.56422264  0.96777420  1
  O  O304  1  0.92512107  0.91054104  0.47797094  1
  O  O305  1  0.92528888  0.91560767  0.98492050  1
  O  O306  1  0.22146242  0.07016776  0.47682020  1
  O  O307  1  0.24794374  0.07718343  0.97923298  1
  O  O308  1  0.22717846  0.40084480  0.47615264  1
  O  O309  1  0.23852153  0.39420364  0.97164276  1
  O  O310  1  0.22204819  0.72892557  0.49860352  1
  O  O311  1  0.23509690  0.73820612  0.97734106  1
  O  O312  1  0.56756509  0.07357959  0.47854651  1
  O  O313  1  0.56520345  0.07614746  0.96706913  1
  O  O314  1  0.58052574  0.40490324  0.48926362  1
  O  O315  1  0.58225452  0.40806065  0.98548189  1
  O  O316  1  0.57055647  0.73843479  0.48470326  1
  O  O317  1  0.58278928  0.73138441  0.98516116  1
  O  O318  1  0.90510584  0.07914265  0.47134660  1
  O  O319  1  0.89774063  0.06938557  0.97560480  1
  O  O320  1  0.92051268  0.40602821  0.47973789  1
  O  O321  1  0.90133863  0.40539783  0.97035152  1
  O  O322  1  0.90581711  0.72377098  0.47436042  1
  O  O323  1  0.90191883  0.73465445  0.97942777  1
  O  O324  1  0.09814880  0.27046450  0.24368850  1
  O  O325  1  0.10078772  0.26329603  0.71968863  1
  O  O326  1  0.08946070  0.58701012  0.22520144  1
  O  O327  1  0.09970491  0.60409743  0.72607025  1
  O  O328  1  0.09593244  0.92610208  0.23575636  1
  O  O329  1  0.10400936  0.92713373  0.72611313  1
  O  O330  1  0.43838686  0.26392010  0.22530043  1
  O  O331  1  0.41968527  0.25816924  0.72901909  1
  O  O332  1  0.42849347  0.58506006  0.22920739  1
  O  O333  1  0.41357618  0.59288429  0.73017521  1
  O  O334  1  0.41604407  0.92285157  0.22597352  1
  O  O335  1  0.41324731  0.93022586  0.73605514  1
  O  O336  1  0.75832120  0.26280644  0.22332379  1
  O  O337  1  0.76323675  0.26699343  0.74172437  1
  O  O338  1  0.77429721  0.59514281  0.22840114  1
  O  O339  1  0.77812547  0.60048565  0.75738237  1
  O  O340  1  0.76620207  0.93687675  0.22844483  1
  O  O341  1  0.75700230  0.93803681  0.74093776  1
  O  O342  1  0.06965339  0.10354500  0.24515732  1
  O  O343  1  0.07592346  0.10248296  0.71959739  1
  O  O344  1  0.06156282  0.42869499  0.22874875  1
  O  O345  1  0.07410300  0.42234514  0.72870524  1
  O  O346  1  0.07687840  0.76256447  0.23165910  1
  O  O347  1  0.07250841  0.76675487  0.72235524  1
  O  O348  1  0.41433785  0.10291490  0.23071028  1
  O  O349  1  0.39190992  0.10170272  0.73478470  1
  O  O350  1  0.40666274  0.42906558  0.22631157  1
  O  O351  1  0.39163197  0.42425625  0.72330362  1
  O  O352  1  0.39954185  0.76356773  0.22430571  1
  O  O353  1  0.39065901  0.75784426  0.72688261  1
  O  O354  1  0.73781051  0.09542679  0.22282987  1
  O  O355  1  0.73236217  0.10010526  0.74289607  1
  O  O356  1  0.74406356  0.42017324  0.22554201  1
  O  O357  1  0.73015196  0.43071415  0.73224561  1
  O  O358  1  0.74224081  0.75466750  0.22198102  1
  O  O359  1  0.73909421  0.76140953  0.73143593  1
