# generated using pymatgen
data_BaLaInIrO6
_symmetry_space_group_name_H-M   'P 1'
_cell_length_a   17.50751057
_cell_length_b   17.53317651
_cell_length_c   16.47508428
_cell_angle_alpha   89.97855785
_cell_angle_beta   90.00573918
_cell_angle_gamma   89.99348079
_symmetry_Int_Tables_number   1
_chemical_formula_structural   BaLaInIrO6
_chemical_formula_sum   'Ba36 La36 In36 Ir36 O216'
_cell_volume   5057.22890833
_cell_formula_units_Z   36
loop_
 _symmetry_equiv_pos_site_id
 _symmetry_equiv_pos_as_xyz
  1  'x, y, z'
loop_
 _atom_site_type_symbol
 _atom_site_label
 _atom_site_symmetry_multiplicity
 _atom_site_fract_x
 _atom_site_fract_y
 _atom_site_fract_z
 _atom_site_occupancy
  Ba  Ba0  1  0.83693340  0.65579558  0.87804729  1
  Ba  Ba1  1  0.83311402  0.67286480  0.12716495  1
  Ba  Ba2  1  1.00075375  0.17514513  0.12301939  1
  Ba  Ba3  1  0.16474274  0.65924824  0.87475933  1
  Ba  Ba4  1  0.66940249  0.15638402  0.87237277  1
  Ba  Ba5  1  0.83283547  0.00710461  0.62440295  1
  Ba  Ba6  1  0.66837046  0.17347792  0.62819123  1
  Ba  Ba7  1  0.50294141  0.99584667  0.87275335  1
  Ba  Ba8  1  0.49866237  0.00880804  0.62597363  1
  Ba  Ba9  1  0.83299688  0.34001829  0.62284810  1
  Ba  Ba10  1  0.16515858  0.32548276  0.87746346  1
  Ba  Ba11  1  0.33407562  0.50670334  0.62614905  1
  Ba  Ba12  1  0.83192339  0.32443722  0.37259251  1
  Ba  Ba13  1  0.33282704  0.82407979  0.37691835  1
  Ba  Ba14  1  0.16868997  0.32432804  0.37511052  1
  Ba  Ba15  1  -0.00177725  0.15661481  0.37224353  1
  Ba  Ba16  1  0.33072751  0.15661734  0.88016616  1
  Ba  Ba17  1  0.66886484  0.50945809  0.12824340  1
  Ba  Ba18  1  0.16784993  0.98722172  0.87596272  1
  Ba  Ba19  1  -0.00232052  0.49363403  0.87927458  1
  Ba  Ba20  1  0.33620084  0.17355456  0.62768093  1
  Ba  Ba21  1  0.16613254  0.01037101  0.62766273  1
  Ba  Ba22  1  0.49805440  0.34266121  0.62783470  1
  Ba  Ba23  1  0.67023464  0.82859626  0.87731216  1
  Ba  Ba24  1  0.66483896  0.49020425  0.37196292  1
  Ba  Ba25  1  0.66722827  0.83782220  0.12504376  1
  Ba  Ba26  1  0.83714450  0.98453595  0.87075048  1
  Ba  Ba27  1  0.49793116  0.65890791  0.37373365  1
  Ba  Ba28  1  0.33303392  0.17808396  0.12470143  1
  Ba  Ba29  1  0.66961156  0.83946018  0.62350231  1
  Ba  Ba30  1  0.99824811  0.51212501  0.12365897  1
  Ba  Ba31  1  0.33125601  0.15757714  0.37372594  1
  Ba  Ba32  1  0.83357574  0.00571931  0.12127511  1
  Ba  Ba33  1  0.82947674  0.99473104  0.37380577  1
  Ba  Ba34  1  -0.00102780  0.81795327  0.87322315  1
  Ba  Ba35  1  0.50055954  0.99279527  0.37555510  1
  La  La36  1  0.15989617  0.01752297  0.12236538  1
  La  La37  1  0.83994503  0.32050501  0.87855981  1
  La  La38  1  0.33265876  0.48760250  0.37749445  1
  La  La39  1  0.49982645  0.67926813  0.12959590  1
  La  La40  1  0.83308385  0.67723382  0.62936313  1
  La  La41  1  0.16232382  0.34484327  0.12123051  1
  La  La42  1  -0.00694272  0.48459526  0.37353776  1
  La  La43  1  0.33808898  0.84911666  0.62453410  1
  La  La44  1  0.17569259  0.98808226  0.36923396  1
  La  La45  1  0.49849873  0.67620183  0.62254725  1
  La  La46  1  0.32389897  0.48715200  0.87203959  1
  La  La47  1  0.33784102  0.85067879  0.12227485  1
  La  La48  1  1.00692337  0.18177010  0.62521070  1
  La  La49  1  0.33414964  0.51333385  0.12576587  1
  La  La50  1  0.49813160  0.01842853  0.11822351  1
  La  La51  1  0.16071105  0.68877221  0.62618399  1
  La  La52  1  0.00260723  0.82658821  0.37698465  1
  La  La53  1  0.50688206  0.31964371  0.38091286  1
  La  La54  1  0.67080498  0.18004191  0.11978214  1
  La  La55  1  0.65869955  0.81545666  0.37206349  1
  La  La56  1  0.49417560  0.35141311  0.12706524  1
  La  La57  1  0.66510117  0.48323008  0.87792361  1
  La  La58  1  0.50098300  0.66089689  0.87609860  1
  La  La59  1  -0.00619420  0.15076941  0.87171339  1
  La  La60  1  0.66398429  0.16016054  0.38311442  1
  La  La61  1  0.82871822  0.34638582  0.12328262  1
  La  La62  1  0.99870720  0.84225063  0.11973117  1
  La  La63  1  0.32510719  0.82116840  0.87144406  1
  La  La64  1  0.50179834  0.31539505  0.87472731  1
  La  La65  1  0.17696229  0.65262271  0.37442060  1
  La  La66  1  1.00316715  0.85005576  0.62910076  1
  La  La67  1  0.66921347  0.50952095  0.62438058  1
  La  La68  1  1.00827041  0.51690581  0.62712267  1
  La  La69  1  0.15741946  0.68761268  0.12556490  1
  La  La70  1  0.83150517  0.65829056  0.37645903  1
  La  La71  1  0.16350748  0.34522122  0.62677969  1
  In  In72  1  0.49828994  0.83700531  0.24829866  1
  In  In73  1  0.49841914  0.82982600  0.75129374  1
  In  In74  1  0.49821264  0.50289446  0.75297662  1
  In  In75  1  0.83609657  0.16627813  0.49908396  1
  In  In76  1  0.83593342  0.16736104  0.74780540  1
  In  In77  1  0.33140664  0.33315955  0.75126402  1
  In  In78  1  -0.00017242  -0.00248051  -0.00236408  1
  In  In79  1  0.00314052  0.66876191  0.49750256  1
  In  In80  1  0.33392173  0.33490624  0.00299907  1
  In  In81  1  0.66773050  0.33743935  0.50425843  1
  In  In82  1  0.49836131  0.50411794  0.00009431  1
  In  In83  1  0.00468028  0.67007848  0.25542067  1
  In  In84  1  0.00176314  -0.00237391  0.25230780  1
  In  In85  1  0.16642287  0.17052668  0.24790774  1
  In  In86  1  0.33215635  0.00124565  0.75320886  1
  In  In87  1  0.83386376  0.50132524  0.25179279  1
  In  In88  1  0.00051341  0.33566492  0.49957778  1
  In  In89  1  0.33201263  0.00047442  0.49792396  1
  In  In90  1  0.32944861  0.66574251  0.50324902  1
  In  In91  1  -0.00004984  0.33565830  0.75414509  1
  In  In92  1  0.66927544  -0.00263140  0.74836114  1
  In  In93  1  0.83155623  0.83223782  0.25320494  1
  In  In94  1  0.33390553  0.33415876  0.49976825  1
  In  In95  1  0.66280948  0.33183617  0.24743713  1
  In  In96  1  0.49700733  0.83262893  -0.00105122  1
  In  In97  1  0.82980570  0.16620932  0.24668934  1
  In  In98  1  0.49931819  0.16692866  0.24858885  1
  In  In99  1  0.16687610  0.16640002  0.49965094  1
  In  In100  1  0.83373734  0.49810515  0.74919065  1
  In  In101  1  0.16762145  0.50132237  0.25078095  1
  In  In102  1  0.83264590  0.83240394  0.49741786  1
  In  In103  1  0.66727546  0.66250911  0.75224250  1
  In  In104  1  0.50151313  0.83228338  0.50026114  1
  In  In105  1  0.66857098  -0.00156984  0.00112176  1
  In  In106  1  0.16758177  0.50302293  -0.00030039  1
  In  In107  1  0.33323092  0.66787977  0.00174261  1
  Ir  Ir108  1  0.66449157  0.33243060  -0.00290178  1
  Ir  Ir109  1  0.50196536  0.16979901  0.75041392  1
  Ir  Ir110  1  0.49462290  0.50215224  0.25120386  1
  Ir  Ir111  1  0.83394257  0.17097288  0.00030156  1
  Ir  Ir112  1  0.00053010  0.66488763  0.74738642  1
  Ir  Ir113  1  0.83759019  0.50443298  0.50147283  1
  Ir  Ir114  1  0.00004964  0.66901634  0.00238784  1
  Ir  Ir115  1  0.16385318  0.16774372  0.75301437  1
  Ir  Ir116  1  0.50123205  0.50314797  0.49806596  1
  Ir  Ir117  1  0.50333124  0.16983744  -0.00002744  1
  Ir  Ir118  1  -0.00232830  0.33234767  0.00392335  1
  Ir  Ir119  1  0.66679255  0.00058467  0.49561203  1
  Ir  Ir120  1  0.32972074  0.66866120  0.74667108  1
  Ir  Ir121  1  0.66828393  0.65987404  0.50075183  1
  Ir  Ir122  1  0.16721665  0.82979155  0.74951791  1
  Ir  Ir123  1  0.33133713  -0.00228695  0.24337431  1
  Ir  Ir124  1  0.66196620  0.00072354  0.24848992  1
  Ir  Ir125  1  0.00309837  -0.00147320  0.74717562  1
  Ir  Ir126  1  0.16455223  0.16732149  -0.00186964  1
  Ir  Ir127  1  0.83692808  0.82607939  -0.00075187  1
  Ir  Ir128  1  0.33169027  0.00107071  0.00378688  1
  Ir  Ir129  1  0.66391662  0.66396610  0.25069174  1
  Ir  Ir130  1  0.66550697  0.33701873  0.75519544  1
  Ir  Ir131  1  0.17129098  0.83339703  0.00108948  1
  Ir  Ir132  1  0.32768429  0.66536473  0.24854434  1
  Ir  Ir133  1  0.16462877  0.50359648  0.50184769  1
  Ir  Ir134  1  0.84116959  0.82683495  0.74836790  1
  Ir  Ir135  1  0.16730749  0.50501941  0.74624957  1
  Ir  Ir136  1  0.00037843  0.33622577  0.24524646  1
  Ir  Ir137  1  0.82884911  0.49742749  0.00057559  1
  Ir  Ir138  1  0.33593173  0.33954135  0.25042720  1
  Ir  Ir139  1  0.50129598  0.16773244  0.50171069  1
  Ir  Ir140  1  0.17085950  0.83548810  0.24669584  1
  Ir  Ir141  1  0.00540364  -0.00265966  0.50137211  1
  Ir  Ir142  1  0.16246397  0.83476794  0.49999284  1
  Ir  Ir143  1  0.66786063  0.66159971  -0.00023338  1
  O  O144  1  0.30189855  0.33779080  0.13218792  1
  O  O145  1  0.30204246  0.33435155  0.62563515  1
  O  O146  1  0.29390166  0.65105933  0.13106643  1
  O  O147  1  0.29334094  0.65907334  0.62993435  1
  O  O148  1  0.29811595  0.99597539  0.12358937  1
  O  O149  1  0.31470986  0.99317959  0.62599800  1
  O  O150  1  0.62809361  0.32363060  0.11691076  1
  O  O151  1  0.64548707  0.34330133  0.63500652  1
  O  O152  1  0.63590337  0.66136322  0.12661820  1
  O  O153  1  0.63609487  0.65015271  0.62008635  1
  O  O154  1  0.63618647  0.99197920  0.12891833  1
  O  O155  1  0.64938475  0.99542944  0.61539758  1
  O  O156  1  0.96716217  0.33235802  0.12406686  1
  O  O157  1  0.98348972  0.32512517  0.62791492  1
  O  O158  1  0.98647550  0.67612850  0.12351368  1
  O  O159  1  0.97341209  0.65898497  0.62593559  1
  O  O160  1  0.98569222  0.98040956  0.12346156  1
  O  O161  1  0.98109097  0.98672805  0.62374573  1
  O  O162  1  0.18526997  0.16052744  0.11866984  1
  O  O163  1  0.18392774  0.16599367  0.63417304  1
  O  O164  1  0.19846223  0.48540489  0.12656378  1
  O  O165  1  0.18728201  0.48669869  0.62314526  1
  O  O166  1  0.20222174  0.82253258  0.12450174  1
  O  O167  1  0.19760678  0.82559474  0.62377160  1
  O  O168  1  0.53020808  0.16338630  0.12004483  1
  O  O169  1  0.52049639  0.16882982  0.62628455  1
  O  O170  1  0.52018281  0.49150986  0.13185704  1
  O  O171  1  0.53105952  0.50130288  0.61924979  1
  O  O172  1  0.51733819  0.81650010  0.12559777  1
  O  O173  1  0.52146261  0.81216773  0.62447199  1
  O  O174  1  0.85166863  0.16564959  0.11708846  1
  O  O175  1  0.87085921  0.16705040  0.62460492  1
  O  O176  1  0.84909831  0.49151330  0.12146078  1
  O  O177  1  0.87003852  0.49705734  0.61903625  1
  O  O178  1  0.86073682  0.82864975  0.12253697  1
  O  O179  1  0.86468778  0.82039995  0.62591621  1
  O  O180  1  0.14681915  0.16859570  0.37204508  1
  O  O181  1  0.13202187  0.16937948  0.87466387  1
  O  O182  1  0.13138597  0.51494865  0.38142286  1
  O  O183  1  0.14767321  0.50673102  0.86698454  1
  O  O184  1  0.13800865  0.84810515  0.37349876  1
  O  O185  1  0.14514621  0.83280949  0.87632255  1
  O  O186  1  0.48365548  0.17512752  0.37983531  1
  O  O187  1  0.47983234  0.17689413  0.87507052  1
  O  O188  1  0.46706792  0.50695557  0.37492531  1
  O  O189  1  0.45951544  0.52415927  0.87782369  1
  O  O190  1  0.48535851  0.82739740  0.37309152  1
  O  O191  1  0.46325331  0.81941040  0.87586860  1
  O  O192  1  0.80084719  0.16910040  0.37197793  1
  O  O193  1  0.81849390  0.17909237  0.88098019  1
  O  O194  1  0.81369294  0.51509339  0.38264227  1
  O  O195  1  0.80268497  0.50086515  0.87987724  1
  O  O196  1  0.79294789  0.83452491  0.37617920  1
  O  O197  1  0.81917035  0.82541809  0.87303690  1
  O  O198  1  0.03790466  -0.00264490  0.38264731  1
  O  O199  1  0.01905690  0.00603580  0.86960744  1
  O  O200  1  0.02172806  0.34729313  0.36707923  1
  O  O201  1  0.01689986  0.33740739  0.88489136  1
  O  O202  1  0.04582937  0.68886247  0.37730701  1
  O  O203  1  0.01784768  0.66150434  0.87356430  1
  O  O204  1  0.34817010  -0.00539554  0.36387010  1
  O  O205  1  0.35146298  -0.00308440  0.88372222  1
  O  O206  1  0.36991384  0.34610310  0.36965196  1
  O  O207  1  0.36402125  0.34573612  0.87752052  1
  O  O208  1  0.34609566  0.67089646  0.36952204  1
  O  O209  1  0.36192670  0.68045948  0.86722993  1
  O  O210  1  0.68158136  0.02122377  0.37027997  1
  O  O211  1  0.68697991  0.00094988  0.87621825  1
  O  O212  1  0.67695295  0.33188226  0.37557636  1
  O  O213  1  0.70088042  0.34229919  0.87718679  1
  O  O214  1  0.69554291  0.67275708  0.37629637  1
  O  O215  1  0.68775304  0.66752952  0.88135037  1
  O  O216  1  0.07777369  0.09265540  0.01369768  1
  O  O217  1  0.06442634  0.09537522  0.52641265  1
  O  O218  1  0.07340958  0.41986765  0.02485481  1
  O  O219  1  0.07075062  0.43798964  0.52284614  1
  O  O220  1  0.07331568  0.76586835  0.02587791  1
  O  O221  1  0.07048606  0.76879972  0.53038709  1
  O  O222  1  0.41046421  0.09339388  0.02623260  1
  O  O223  1  0.41272250  0.09552681  0.51197405  1
  O  O224  1  0.40592888  0.43120677  0.03457630  1
  O  O225  1  0.40862887  0.43559336  0.51016360  1
  O  O226  1  0.39666366  0.76643125  0.02795980  1
  O  O227  1  0.40194464  0.75680046  0.52831759  1
  O  O228  1  0.73952670  0.10284470  0.02264397  1
  O  O229  1  0.73631607  0.09009665  0.51039004  1
  O  O230  1  0.73830721  0.42205415  0.02352341  1
  O  O231  1  0.74135906  0.43972109  0.52404785  1
  O  O232  1  0.73977323  0.75343450  0.01878287  1
  O  O233  1  0.74443609  0.74355452  0.52400411  1
  O  O234  1  0.09685697  0.26562116  0.02369768  1
  O  O235  1  0.09924335  0.26677851  0.52749366  1
  O  O236  1  0.09594996  0.60257035  0.02438438  1
  O  O237  1  0.10089630  0.59718293  0.53027539  1
  O  O238  1  0.10258099  0.92374574  0.02614857  1
  O  O239  1  0.09409251  0.92553758  0.52350274  1
  O  O240  1  0.43818352  0.26653404  0.01987856  1
  O  O241  1  0.43481384  0.26128221  0.51059297  1
  O  O242  1  0.43484216  0.60467448  0.03124284  1
  O  O243  1  0.43388541  0.59583366  0.52124589  1
  O  O244  1  0.42255710  0.93410451  0.03073786  1
  O  O245  1  0.41960816  0.91961587  0.51811199  1
  O  O246  1  0.76164705  0.26484159  0.02439734  1
  O  O247  1  0.75579744  0.25769628  0.51792511  1
  O  O248  1  0.76090238  0.59191823  0.02035691  1
  O  O249  1  0.76685606  0.59468574  0.52852566  1
  O  O250  1  0.76472561  0.91417663  0.01216274  1
  O  O251  1  0.75599857  0.92866372  0.51365349  1
  O  O252  1  0.23812177  0.06357589  0.26302113  1
  O  O253  1  0.23433143  0.07746034  0.76982295  1
  O  O254  1  0.25010885  0.41152123  0.27938164  1
  O  O255  1  0.23734235  0.41570297  0.76804459  1
  O  O256  1  0.22902147  0.73008480  0.26767280  1
  O  O257  1  0.23738768  0.73801276  0.76919680  1
  O  O258  1  0.56563427  0.06235604  0.25449464  1
  O  O259  1  0.57550464  0.08370834  0.75957829  1
  O  O260  1  0.55537726  0.40252614  0.26839388  1
  O  O261  1  0.57328214  0.40252624  0.78548638  1
  O  O262  1  0.57614040  0.73620240  0.26367343  1
  O  O263  1  0.56214304  0.72340905  0.76611012  1
  O  O264  1  0.90663310  0.07342652  0.26053092  1
  O  O265  1  0.91709998  0.07103008  0.76832335  1
  O  O266  1  0.91366410  0.40903371  0.26621873  1
  O  O267  1  0.89737207  0.39943739  0.77654795  1
  O  O268  1  0.90439536  0.73543927  0.28353623  1
  O  O269  1  0.90534327  0.73016965  0.75975019  1
  O  O270  1  0.26691762  0.24843235  0.26542516  1
  O  O271  1  0.25395913  0.23736530  0.77147207  1
  O  O272  1  0.26748308  0.57042228  0.27815685  1
  O  O273  1  0.26558896  0.57172526  0.77359290  1
  O  O274  1  0.26744517  0.90015403  0.26125794  1
  O  O275  1  0.26055626  0.89581206  0.76952833  1
  O  O276  1  0.59784427  0.23138197  0.27315233  1
  O  O277  1  0.59198554  0.24692335  0.77436130  1
  O  O278  1  0.58795484  0.57129075  0.26878095  1
  O  O279  1  0.60063364  0.56208165  0.77856104  1
  O  O280  1  0.60219355  0.90396760  0.27450451  1
  O  O281  1  0.59159647  0.90615009  0.76338809  1
  O  O282  1  0.92783203  0.24929343  0.26215495  1
  O  O283  1  0.93322077  0.23526559  0.77792482  1
  O  O284  1  0.93285015  0.57222174  0.27708635  1
  O  O285  1  0.93499408  0.57045838  0.75879929  1
  O  O286  1  0.93741921  0.89524980  0.27323731  1
  O  O287  1  0.93764287  0.89765999  0.75747873  1
  O  O288  1  0.26276491  0.24050979  0.48378562  1
  O  O289  1  0.25337825  0.23996887  0.98709766  1
  O  O290  1  0.25803594  0.56998056  0.47242785  1
  O  O291  1  0.27238832  0.56669888  0.97904957  1
  O  O292  1  0.25125696  0.90287710  0.48090950  1
  O  O293  1  0.27033262  0.89878261  0.98219604  1
  O  O294  1  0.59005205  0.23910062  0.48248356  1
  O  O295  1  0.59358518  0.24195583  0.97248632  1
  O  O296  1  0.59649787  0.56952290  0.48137098  1
  O  O297  1  0.60181852  0.56868432  0.97568507  1
  O  O298  1  0.60197157  0.90599400  0.47414709  1
  O  O299  1  0.58724735  0.90871171  0.98521272  1
  O  O300  1  0.92975688  0.24116658  0.48076519  1
  O  O301  1  0.92848468  0.23939407  0.97465724  1
  O  O302  1  0.93228983  0.56983924  0.47490034  1
  O  O303  1  0.92469458  0.57069047  0.98710945  1
  O  O304  1  0.94062145  0.89937816  0.48178400  1
  O  O305  1  0.92782106  0.89694889  0.98690809  1
  O  O306  1  0.23296904  0.06558790  0.47538411  1
  O  O307  1  0.23350800  0.07137122  0.98593223  1
  O  O308  1  0.23761670  0.41696467  0.47868339  1
  O  O309  1  0.24304512  0.41054165  0.97764509  1
  O  O310  1  0.22377892  0.73724397  0.48131793  1
  O  O311  1  0.23859154  0.74367453  0.98058423  1
  O  O312  1  0.57674718  0.07833049  0.47756680  1
  O  O313  1  0.56970351  0.07740632  0.98987236  1
  O  O314  1  0.56489757  0.40765324  0.47692726  1
  O  O315  1  0.57177018  0.40255818  0.97153553  1
  O  O316  1  0.58382054  0.73581663  0.48022870  1
  O  O317  1  0.56991285  0.72408754  0.98419662  1
  O  O318  1  0.91491961  0.06330125  0.48279047  1
  O  O319  1  0.90788076  0.08215979  0.97893481  1
  O  O320  1  0.90777114  0.41681792  0.47396626  1
  O  O321  1  0.89596388  0.39648688  0.98532155  1
  O  O322  1  0.90619703  0.73751376  0.46867317  1
  O  O323  1  0.90781710  0.73667497  0.98620340  1
  O  O324  1  0.09423122  0.27031150  0.22165491  1
  O  O325  1  0.09842770  0.26144668  0.72811828  1
  O  O326  1  0.10632901  0.60543657  0.22992130  1
  O  O327  1  0.09708927  0.59887449  0.71905850  1
  O  O328  1  0.11267331  0.93190540  0.22897015  1
  O  O329  1  0.09347157  0.91868218  0.72648532  1
  O  O330  1  0.43060245  0.27293037  0.22694879  1
  O  O331  1  0.42986578  0.25801555  0.74155096  1
  O  O332  1  0.42451993  0.59813816  0.22246018  1
  O  O333  1  0.42743816  0.60818058  0.72494837  1
  O  O334  1  0.42457395  0.93184018  0.21493417  1
  O  O335  1  0.41795470  0.91816800  0.72927679  1
  O  O336  1  0.75651546  0.25891581  0.21014904  1
  O  O337  1  0.75725544  0.26825954  0.74083208  1
  O  O338  1  0.75670553  0.59600855  0.24312817  1
  O  O339  1  0.76145146  0.59065018  0.71536362  1
  O  O340  1  0.75589370  0.93393819  0.23513957  1
  O  O341  1  0.76982338  0.91420306  0.73517068  1
  O  O342  1  0.07943095  0.08744818  0.22492222  1
  O  O343  1  0.06415979  0.10233498  0.73315152  1
  O  O344  1  0.07423808  0.42400204  0.22887629  1
  O  O345  1  0.07425145  0.43530763  0.72372231  1
  O  O346  1  0.07376812  0.77527847  0.22433853  1
  O  O347  1  0.07128139  0.75971477  0.72222781  1
  O  O348  1  0.40381940  0.08822985  0.22765891  1
  O  O349  1  0.41456319  0.09518747  0.74089516  1
  O  O350  1  0.39900526  0.43732281  0.22651582  1
  O  O351  1  0.40699146  0.42887730  0.73755201  1
  O  O352  1  0.39473263  0.75667945  0.22152883  1
  O  O353  1  0.39027254  0.76097261  0.72018166  1
  O  O354  1  0.72199877  0.09763595  0.22496085  1
  O  O355  1  0.74781422  0.08845914  0.73439100  1
  O  O356  1  0.74606320  0.41926630  0.23301084  1
  O  O357  1  0.72616759  0.43395075  0.73622550  1
  O  O358  1  0.73394679  0.75415829  0.23823843  1
  O  O359  1  0.75114564  0.75362607  0.72880384  1
