# generated using pymatgen
data_BaLaInIrO6
_symmetry_space_group_name_H-M   'P 1'
_cell_length_a   17.51546618
_cell_length_b   17.54020002
_cell_length_c   16.48362911
_cell_angle_alpha   89.96500793
_cell_angle_beta   90.02021617
_cell_angle_gamma   89.94835114
_symmetry_Int_Tables_number   1
_chemical_formula_structural   BaLaInIrO6
_chemical_formula_sum   'Ba36 La36 In36 Ir36 O216'
_cell_volume   5064.17601345
_cell_formula_units_Z   36
loop_
 _symmetry_equiv_pos_site_id
 _symmetry_equiv_pos_as_xyz
  1  'x, y, z'
loop_
 _atom_site_type_symbol
 _atom_site_label
 _atom_site_symmetry_multiplicity
 _atom_site_fract_x
 _atom_site_fract_y
 _atom_site_fract_z
 _atom_site_occupancy
  Ba  Ba0  1  1.00308606  0.84233473  0.62272818  1
  Ba  Ba1  1  0.50127857  0.65370402  0.87647463  1
  Ba  Ba2  1  0.83503144  0.32554876  0.37235683  1
  Ba  Ba3  1  1.00095732  0.83680886  0.12191505  1
  Ba  Ba4  1  0.49911741  0.00579171  0.62567047  1
  Ba  Ba5  1  0.49751299  0.34387378  0.12603139  1
  Ba  Ba6  1  0.16244859  0.00661357  0.11979215  1
  Ba  Ba7  1  0.83791135  0.99120064  0.87652135  1
  Ba  Ba8  1  0.49776319  0.34112117  0.62487269  1
  Ba  Ba9  1  0.83189932  0.34401666  0.12712107  1
  Ba  Ba10  1  0.16800890  0.66362071  0.87600833  1
  Ba  Ba11  1  0.16767833  0.67440629  0.62499902  1
  Ba  Ba12  1  0.33522490  0.83679815  0.62660064  1
  Ba  Ba13  1  0.33637292  0.15428001  0.37217224  1
  Ba  Ba14  1  0.66954800  0.16185858  0.87541960  1
  Ba  Ba15  1  0.33269042  0.50332925  0.62878334  1
  Ba  Ba16  1  0.65897796  0.81995393  0.37137148  1
  Ba  Ba17  1  0.33507868  0.17154464  0.62712511  1
  Ba  Ba18  1  -0.00644361  0.48983126  0.37493361  1
  Ba  Ba19  1  0.49645703  0.66906639  0.62380797  1
  Ba  Ba20  1  1.00059401  0.17826556  0.12700899  1
  Ba  Ba21  1  0.49891264  0.67685028  0.12130254  1
  Ba  Ba22  1  0.66955930  0.84078628  0.12620886  1
  Ba  Ba23  1  0.16482373  0.99065251  0.87423478  1
  Ba  Ba24  1  0.83814718  0.32500423  0.88107297  1
  Ba  Ba25  1  0.33265779  0.49534270  0.87817980  1
  Ba  Ba26  1  0.83447902  0.34251358  0.62478004  1
  Ba  Ba27  1  0.16658320  0.67550716  0.11930730  1
  Ba  Ba28  1  0.17023865  0.32343138  0.87991501  1
  Ba  Ba29  1  0.66607143  0.49375517  0.37473739  1
  Ba  Ba30  1  0.83268856  0.65557481  0.36786453  1
  Ba  Ba31  1  0.66626144  0.49442076  0.87766842  1
  Ba  Ba32  1  -0.00291231  0.82327882  0.87587898  1
  Ba  Ba33  1  0.33475751  0.51069395  0.12504920  1
  Ba  Ba34  1  0.50155113  0.99087281  0.37894450  1
  Ba  Ba35  1  0.83104607  0.67918748  0.12205768  1
  La  La36  1  0.33076591  0.15258732  0.87807421  1
  La  La37  1  -0.00205474  0.81713758  0.37105513  1
  La  La38  1  0.16392135  0.01559440  0.62223473  1
  La  La39  1  0.83619974  0.98648602  0.37476516  1
  La  La40  1  0.17237221  0.98147955  0.37170146  1
  La  La41  1  0.67334173  0.18081617  0.12756739  1
  La  La42  1  0.83973289  0.65526518  0.87681005  1
  La  La43  1  0.49846150  0.00781139  0.12386696  1
  La  La44  1  0.50302395  0.65047893  0.37282480  1
  La  La45  1  1.00658397  0.18127787  0.62731527  1
  La  La46  1  1.00791292  0.51550199  0.62367087  1
  La  La47  1  0.65797827  0.15738134  0.37276924  1
  La  La48  1  -0.00251339  0.15321102  0.36957780  1
  La  La49  1  0.16773278  0.31675612  0.37356915  1
  La  La50  1  0.33125398  0.81908174  0.87054630  1
  La  La51  1  0.83149302  0.01729569  0.63330844  1
  La  La52  1  -0.00765174  0.15089842  0.88481366  1
  La  La53  1  0.33153495  0.48575046  0.37354912  1
  La  La54  1  0.66384493  0.51383851  0.62266039  1
  La  La55  1  0.33324894  0.17705891  0.12068568  1
  La  La56  1  0.99925950  0.51643613  0.13003738  1
  La  La57  1  0.33681734  0.81805156  0.37620435  1
  La  La58  1  0.67501717  0.85252993  0.62348203  1
  La  La59  1  0.33608008  0.84356836  0.11841119  1
  La  La60  1  0.50219600  0.98661168  0.87192439  1
  La  La61  1  0.67098095  0.18164448  0.62420542  1
  La  La62  1  0.66853766  0.52128827  0.12493689  1
  La  La63  1  0.50307340  0.31971980  0.38063906  1
  La  La64  1  0.83173794  0.00904400  0.12209851  1
  La  La65  1  0.82876274  0.67981998  0.62102354  1
  La  La66  1  0.50101014  0.32745153  0.87201384  1
  La  La67  1  0.16858893  0.65171552  0.37029350  1
  La  La68  1  0.16319510  0.35202323  0.62541272  1
  La  La69  1  0.66381678  0.81972199  0.88161628  1
  La  La70  1  0.15867815  0.34976935  0.13007340  1
  La  La71  1  -0.00973874  0.49006454  0.88288241  1
  In  In72  1  0.00063531  -0.00026997  0.49684039  1
  In  In73  1  0.33397769  0.66670604  0.00288374  1
  In  In74  1  0.16194180  0.50060371  0.75843258  1
  In  In75  1  0.83380137  0.83378183  0.25090213  1
  In  In76  1  0.16653365  0.16822835  0.75360842  1
  In  In77  1  0.33142341  0.33247549  0.24941744  1
  In  In78  1  0.82991900  0.49900411  0.00332922  1
  In  In79  1  0.50047742  0.16451435  0.24614741  1
  In  In80  1  0.33107224  0.33087497  0.49901611  1
  In  In81  1  0.66791141  0.33754328  0.75002959  1
  In  In82  1  0.50134914  0.16496454  0.50462721  1
  In  In83  1  0.50500665  0.83182207  0.75093197  1
  In  In84  1  0.83577884  0.16714245  0.49486920  1
  In  In85  1  0.33068147  0.66289147  0.49623828  1
  In  In86  1  0.66671747  -0.00100302  0.24947134  1
  In  In87  1  0.16727225  0.16305104  0.24921631  1
  In  In88  1  0.83761131  0.16957713  0.75017689  1
  In  In89  1  0.66883537  0.66912499  0.75045378  1
  In  In90  1  0.33254536  -0.00265014  0.75166389  1
  In  In91  1  0.83311510  0.83368510  0.75030904  1
  In  In92  1  0.00332355  0.33433536  0.75326387  1
  In  In93  1  0.17056341  0.82967936  0.24673736  1
  In  In94  1  0.00270702  -0.00192575  0.25057411  1
  In  In95  1  0.66525554  0.66811405  0.49948501  1
  In  In96  1  0.33428195  0.66374687  0.74955914  1
  In  In97  1  -0.00024060  0.66809810  0.49893211  1
  In  In98  1  0.33214773  0.33042010  0.75273798  1
  In  In99  1  -0.00013363  -0.00155815  0.74617665  1
  In  In100  1  0.50148001  0.83104735  0.50120544  1
  In  In101  1  0.33200923  0.33421134  0.00237978  1
  In  In102  1  0.50133940  0.16493956  0.00050943  1
  In  In103  1  0.83572048  0.49847311  0.50147244  1
  In  In104  1  0.33032899  -0.00342222  0.49946897  1
  In  In105  1  0.83199800  0.16780677  0.00463709  1
  In  In106  1  0.83551791  0.50213326  0.74691448  1
  In  In107  1  0.66519874  0.33898918  0.25035220  1
  Ir  Ir108  1  0.33340975  -0.00071021  0.00381540  1
  Ir  Ir109  1  0.50249599  0.49568926  0.75204419  1
  Ir  Ir110  1  0.16455002  0.83330220  0.49761241  1
  Ir  Ir111  1  -0.00194053  -0.00273639  0.00200902  1
  Ir  Ir112  1  0.66230105  0.33519462  0.00140155  1
  Ir  Ir113  1  0.16670630  0.83283311  0.74768541  1
  Ir  Ir114  1  0.00585085  0.33486520  0.00656375  1
  Ir  Ir115  1  0.50228993  0.16583814  0.75386075  1
  Ir  Ir116  1  0.16325741  0.49730128  0.49166304  1
  Ir  Ir117  1  0.49721070  0.50204644  0.25023124  1
  Ir  Ir118  1  0.16440193  0.50121217  0.25191237  1
  Ir  Ir119  1  0.66331082  -0.00143499  -0.00251649  1
  Ir  Ir120  1  0.00019791  0.66723347  -0.00201468  1
  Ir  Ir121  1  0.83046520  0.83639756  -0.00068849  1
  Ir  Ir122  1  0.16174992  0.16805884  0.49808468  1
  Ir  Ir123  1  0.66285932  0.66523544  0.24811614  1
  Ir  Ir124  1  0.15934523  0.50067115  0.00676443  1
  Ir  Ir125  1  -0.00147356  0.66627218  0.75356817  1
  Ir  Ir126  1  0.49524709  0.83239418  0.24480974  1
  Ir  Ir127  1  0.00548591  0.33078453  0.49599630  1
  Ir  Ir128  1  0.83374429  0.50203383  0.24680678  1
  Ir  Ir129  1  0.33613061  0.66665225  0.25149861  1
  Ir  Ir130  1  0.50437871  0.49889314  0.00226363  1
  Ir  Ir131  1  0.16924063  0.83604844  -0.00643144  1
  Ir  Ir132  1  0.82985754  0.16617275  0.25180512  1
  Ir  Ir133  1  0.83366831  0.83582760  0.49821909  1
  Ir  Ir134  1  0.49876110  0.49732533  0.49783360  1
  Ir  Ir135  1  0.00299236  0.66518844  0.24639625  1
  Ir  Ir136  1  0.66797962  0.67114861  0.00116662  1
  Ir  Ir137  1  0.50009926  0.83900731  0.00297379  1
  Ir  Ir138  1  0.67485684  0.00218649  0.50606454  1
  Ir  Ir139  1  0.66568860  0.33409006  0.49995855  1
  Ir  Ir140  1  0.66655960  0.00320802  0.75242338  1
  Ir  Ir141  1  0.33367514  -0.00725963  0.24579846  1
  Ir  Ir142  1  0.00104152  0.33709232  0.24984552  1
  Ir  Ir143  1  0.16543197  0.16409554  0.00058665  1
  O  O144  1  0.29507414  0.32504110  0.12557628  1
  O  O145  1  0.30110791  0.33090691  0.62346357  1
  O  O146  1  0.31657202  0.66961052  0.13079554  1
  O  O147  1  0.31900200  0.66018683  0.62171631  1
  O  O148  1  0.30852425  0.98085889  0.12535453  1
  O  O149  1  0.29746188  0.99627813  0.62522815  1
  O  O150  1  0.64447513  0.32145677  0.12113793  1
  O  O151  1  0.64644428  0.32158956  0.61884999  1
  O  O152  1  0.64547593  0.66425232  0.12503084  1
  O  O153  1  0.64521350  0.65297545  0.62535379  1
  O  O154  1  0.63505060  0.99354860  0.11691572  1
  O  O155  1  0.64582506  0.98958661  0.62963017  1
  O  O156  1  0.97999755  0.33251780  0.12769405  1
  O  O157  1  0.98452493  0.31908273  0.61552199  1
  O  O158  1  0.97799532  0.66012951  0.12185546  1
  O  O159  1  0.96891649  0.66093820  0.63239051  1
  O  O160  1  0.97002813  0.99182466  0.12327559  1
  O  O161  1  0.96592893  0.99756740  0.61797102  1
  O  O162  1  0.19725337  0.16144448  0.12034696  1
  O  O163  1  0.18634248  0.15731665  0.61635208  1
  O  O164  1  0.18758870  0.48938238  0.13016350  1
  O  O165  1  0.18163944  0.49153527  0.61104617  1
  O  O166  1  0.19727808  0.83407276  0.11562565  1
  O  O167  1  0.18788205  0.82786241  0.62228738  1
  O  O168  1  0.53931068  0.14796193  0.12285548  1
  O  O169  1  0.53521135  0.16170411  0.63347308  1
  O  O170  1  0.53191828  0.49973229  0.12606113  1
  O  O171  1  0.52945368  0.49527055  0.62421869  1
  O  O172  1  0.52112080  0.83602275  0.12406388  1
  O  O173  1  0.53957616  0.82677777  0.62591002  1
  O  O174  1  0.85146769  0.15418844  0.13188233  1
  O  O175  1  0.86869063  0.16104687  0.62020750  1
  O  O176  1  0.86050442  0.50504626  0.12766714  1
  O  O177  1  0.87479433  0.49610275  0.62497546  1
  O  O178  1  0.84918602  0.83917463  0.12050532  1
  O  O179  1  0.85428824  0.82137420  0.61629408  1
  O  O180  1  0.13158060  0.17789647  0.37992939  1
  O  O181  1  0.12718406  0.16868527  0.88245979  1
  O  O182  1  0.13972791  0.51428781  0.37111610  1
  O  O183  1  0.12670442  0.50324108  0.88773480  1
  O  O184  1  0.13561329  0.84292799  0.37907951  1
  O  O185  1  0.14367532  0.83398716  0.86954255  1
  O  O186  1  0.48805398  0.17850811  0.37418527  1
  O  O187  1  0.47036291  0.17603932  0.87376689  1
  O  O188  1  0.46897466  0.50954461  0.37376316  1
  O  O189  1  0.48082901  0.49126846  0.87605802  1
  O  O190  1  0.47122962  0.83608795  0.36354389  1
  O  O191  1  0.47007874  0.84805404  0.88594101  1
  O  O192  1  0.79610627  0.17076548  0.36968825  1
  O  O193  1  0.82379941  0.16657215  0.87928161  1
  O  O194  1  0.81740820  0.49820511  0.36797921  1
  O  O195  1  0.81917806  0.51306821  0.87759388  1
  O  O196  1  0.80699852  0.84636815  0.38061223  1
  O  O197  1  0.80261577  0.83386297  0.87934417  1
  O  O198  1  0.03901407  0.01390057  0.37636570  1
  O  O199  1  0.01367966  0.01237007  0.87965766  1
  O  O200  1  0.03264328  0.33744260  0.37240993  1
  O  O201  1  0.02403523  0.34908774  0.88735438  1
  O  O202  1  0.03038772  0.67339533  0.36744077  1
  O  O203  1  0.02167120  0.66700332  0.87614456  1
  O  O204  1  0.35091352  -0.00320781  0.36478908  1
  O  O205  1  0.36487685  0.01235312  0.88583067  1
  O  O206  1  0.36538830  0.34438692  0.37303998  1
  O  O207  1  0.36408134  0.33632643  0.87920785  1
  O  O208  1  0.36505871  0.67361002  0.36869297  1
  O  O209  1  0.34970310  0.67765851  0.87860560  1
  O  O210  1  0.70188023  0.01346281  0.38505458  1
  O  O211  1  0.69061800  0.00680343  0.87552387  1
  O  O212  1  0.68388074  0.33864740  0.38106864  1
  O  O213  1  0.68689438  0.33904047  0.88266266  1
  O  O214  1  0.67997580  0.65912915  0.36846041  1
  O  O215  1  0.70049383  0.67302405  0.88184408  1
  O  O216  1  0.06733995  0.09271901  0.01748973  1
  O  O217  1  0.06740640  0.10586408  0.52379157  1
  O  O218  1  0.07079584  0.42858127  0.03588441  1
  O  O219  1  0.07017333  0.42709802  0.52304267  1
  O  O220  1  0.07868582  0.75958086  0.01470559  1
  O  O221  1  0.07121417  0.76679116  0.50747450  1
  O  O222  1  0.40090695  0.08940088  0.03221393  1
  O  O223  1  0.40797864  0.08895526  0.51258964  1
  O  O224  1  0.41440236  0.42871936  0.01873864  1
  O  O225  1  0.40477540  0.43379512  0.50848475  1
  O  O226  1  0.40646651  0.77169224  0.02084339  1
  O  O227  1  0.39917417  0.76232635  0.50232735  1
  O  O228  1  0.73260074  0.08913912  0.02893760  1
  O  O229  1  0.74275253  0.09165398  0.53625786  1
  O  O230  1  0.72992958  0.42812337  0.02750926  1
  O  O231  1  0.73066904  0.42933139  0.52404494  1
  O  O232  1  0.73357364  0.76922646  0.01145394  1
  O  O233  1  0.73913963  0.76839154  0.52251521  1
  O  O234  1  0.10159185  0.26400856  0.02911656  1
  O  O235  1  0.10417263  0.26960737  0.51866604  1
  O  O236  1  0.08089115  0.58556510  0.03117151  1
  O  O237  1  0.09336602  0.58762061  0.51506513  1
  O  O238  1  0.08997094  0.92260679  0.01281723  1
  O  O239  1  0.10654122  0.93271554  0.52050379  1
  O  O240  1  0.41715412  0.24881367  0.02991304  1
  O  O241  1  0.43017988  0.26272934  0.50945259  1
  O  O242  1  0.43055113  0.58795368  0.01280709  1
  O  O243  1  0.43248555  0.58952643  0.50535313  1
  O  O244  1  0.42985749  0.93197877  0.02949855  1
  O  O245  1  0.42504022  0.92246013  0.51548946  1
  O  O246  1  0.74962110  0.25853514  0.02121998  1
  O  O247  1  0.75520428  0.26101819  0.51865820  1
  O  O248  1  0.75353343  0.59558740  0.01975372  1
  O  O249  1  0.76056257  0.59417300  0.52681464  1
  O  O250  1  0.76313170  0.93394305  0.02302584  1
  O  O251  1  0.77011620  0.93304223  0.52899171  1
  O  O252  1  0.23885692  0.05934081  0.26936036  1
  O  O253  1  0.24437092  0.07568645  0.77257640  1
  O  O254  1  0.23219420  0.40976247  0.27833556  1
  O  O255  1  0.23395283  0.40369134  0.75999412  1
  O  O256  1  0.24237699  0.73246130  0.27880927  1
  O  O257  1  0.23943336  0.74722122  0.76493676  1
  O  O258  1  0.57971009  0.07517431  0.27611161  1
  O  O259  1  0.57021450  0.06897975  0.77825427  1
  O  O260  1  0.56010578  0.40625768  0.27390331  1
  O  O261  1  0.56685159  0.40218448  0.77202387  1
  O  O262  1  0.56338220  0.73365384  0.27044911  1
  O  O263  1  0.58397396  0.74732093  0.78807281  1
  O  O264  1  0.89681806  0.07250057  0.27429336  1
  O  O265  1  0.90179976  0.06899035  0.75909358  1
  O  O266  1  0.90454448  0.40769539  0.26281192  1
  O  O267  1  0.91071734  0.40906476  0.77573009  1
  O  O268  1  0.91733350  0.74229748  0.26855334  1
  O  O269  1  0.90179627  0.72856916  0.77205062  1
  O  O270  1  0.25135303  0.24306532  0.27772733  1
  O  O271  1  0.26801632  0.23045748  0.78119151  1
  O  O272  1  0.26495595  0.57104141  0.27792881  1
  O  O273  1  0.25342838  0.57544868  0.76739881  1
  O  O274  1  0.27091541  0.89761863  0.27137190  1
  O  O275  1  0.26062978  0.89721400  0.77464272  1
  O  O276  1  0.59718275  0.24052882  0.26917223  1
  O  O277  1  0.58699339  0.24043107  0.77006351  1
  O  O278  1  0.59147141  0.57053837  0.26309356  1
  O  O279  1  0.59427751  0.56585376  0.76078124  1
  O  O280  1  0.58611371  0.90306634  0.26368538  1
  O  O281  1  0.60219833  0.91061708  0.77915925  1
  O  O282  1  0.93029915  0.23508938  0.27418244  1
  O  O283  1  0.94493502  0.22974962  0.77104508  1
  O  O284  1  0.93089236  0.57190838  0.26075097  1
  O  O285  1  0.93652031  0.57426034  0.77952170  1
  O  O286  1  0.92949742  0.90553266  0.28348661  1
  O  O287  1  0.92692145  0.90371761  0.76332709  1
  O  O288  1  0.25176940  0.23629218  0.47271977  1
  O  O289  1  0.26066192  0.22724917  0.97935474  1
  O  O290  1  0.25501094  0.56773703  0.46426366  1
  O  O291  1  0.24519977  0.57703395  0.99150653  1
  O  O292  1  0.25744737  0.89711225  0.46849022  1
  O  O293  1  0.26716375  0.90383830  0.97367804  1
  O  O294  1  0.60111491  0.23992449  0.47745954  1
  O  O295  1  0.58878766  0.24889592  0.97765597  1
  O  O296  1  0.58963306  0.56549523  0.48708526  1
  O  O297  1  0.59941123  0.57239394  0.99151263  1
  O  O298  1  0.60573061  0.91195365  0.48761109  1
  O  O299  1  0.59444640  0.90648962  0.97036041  1
  O  O300  1  0.94330463  0.23502689  0.47484584  1
  O  O301  1  0.93717995  0.24162047  0.98268983  1
  O  O302  1  0.92585510  0.57732595  0.48383183  1
  O  O303  1  0.92767186  0.57892427  0.97955667  1
  O  O304  1  0.92772017  0.90071526  0.46795893  1
  O  O305  1  0.92582692  0.90474386  0.98363807  1
  O  O306  1  0.22158106  0.06797080  0.47732925  1
  O  O307  1  0.24249790  0.07359662  0.97571791  1
  O  O308  1  0.23264108  0.40667236  0.46704206  1
  O  O309  1  0.23384390  0.41420377  0.98894991  1
  O  O310  1  0.22817988  0.73719693  0.46859915  1
  O  O311  1  0.24599262  0.75408184  0.97846620  1
  O  O312  1  0.58962442  0.07720377  0.48236356  1
  O  O313  1  0.56607207  0.06022186  0.97617958  1
  O  O314  1  0.56606905  0.39917025  0.47788762  1
  O  O315  1  0.56927872  0.40260653  0.97854863  1
  O  O316  1  0.56559907  0.73188882  0.47097781  1
  O  O317  1  0.57507807  0.74877345  0.97719125  1
  O  O318  1  0.90577669  0.07305565  0.45911213  1
  O  O319  1  0.90952459  0.07029876  0.99359787  1
  O  O320  1  0.91235968  0.39689959  0.48385223  1
  O  O321  1  0.91648704  0.40967680  0.98798696  1
  O  O322  1  0.90299252  0.74583496  0.47441475  1
  O  O323  1  0.90094063  0.73757257  0.97588029  1
  O  O324  1  0.09757291  0.27454308  0.23435539  1
  O  O325  1  0.10301243  0.26745944  0.72147395  1
  O  O326  1  0.09295369  0.59179920  0.22473045  1
  O  O327  1  0.08426110  0.59452440  0.72756151  1
  O  O328  1  0.10062689  0.92652504  0.23969914  1
  O  O329  1  0.10378514  0.92908072  0.72487428  1
  O  O330  1  0.41576906  0.24826687  0.22102914  1
  O  O331  1  0.43263451  0.25482918  0.73458578  1
  O  O332  1  0.43262092  0.60037241  0.23544459  1
  O  O333  1  0.43154124  0.58407718  0.73951860  1
  O  O334  1  0.42825398  0.92604547  0.21674923  1
  O  O335  1  0.43128106  0.92881785  0.74424731  1
  O  O336  1  0.76025690  0.25572262  0.22993344  1
  O  O337  1  0.75520826  0.25566810  0.73049817  1
  O  O338  1  0.75589053  0.59119250  0.22258935  1
  O  O339  1  0.77460838  0.60774720  0.73022238  1
  O  O340  1  0.76931970  0.93862086  0.23339683  1
  O  O341  1  0.75913056  0.93620106  0.72492413  1
  O  O342  1  0.06691754  0.10077660  0.23905331  1
  O  O343  1  0.07415031  0.09310298  0.72014699  1
  O  O344  1  0.06846036  0.43325986  0.22412226  1
  O  O345  1  0.06948546  0.43132223  0.71929374  1
  O  O346  1  0.07432223  0.75411889  0.23470406  1
  O  O347  1  0.07178193  0.75995332  0.73137569  1
  O  O348  1  0.40165783  0.08446478  0.21794285  1
  O  O349  1  0.41474255  0.09485085  0.74000505  1
  O  O350  1  0.40394279  0.43570295  0.23818075  1
  O  O351  1  0.41297458  0.42540487  0.73798758  1
  O  O352  1  0.39551320  0.76818840  0.22818490  1
  O  O353  1  0.40908581  0.75930460  0.74436052  1
  O  O354  1  0.73691853  0.10143404  0.22595223  1
  O  O355  1  0.73246357  0.09500830  0.72282357  1
  O  O356  1  0.73786202  0.43640835  0.22518196  1
  O  O357  1  0.73219177  0.43807614  0.72359203  1
  O  O358  1  0.73835679  0.75450966  0.23951661  1
  O  O359  1  0.73735243  0.76815931  0.71880607  1
