# generated using pymatgen
data_BaLaInIrO6
_symmetry_space_group_name_H-M   'P 1'
_cell_length_a   17.54057583
_cell_length_b   17.55173743
_cell_length_c   16.49716781
_cell_angle_alpha   90.04266039
_cell_angle_beta   90.00732850
_cell_angle_gamma   89.99854113
_symmetry_Int_Tables_number   1
_chemical_formula_structural   BaLaInIrO6
_chemical_formula_sum   'Ba36 La36 In36 Ir36 O216'
_cell_volume   5078.94170003
_cell_formula_units_Z   36
loop_
 _symmetry_equiv_pos_site_id
 _symmetry_equiv_pos_as_xyz
  1  'x, y, z'
loop_
 _atom_site_type_symbol
 _atom_site_label
 _atom_site_symmetry_multiplicity
 _atom_site_fract_x
 _atom_site_fract_y
 _atom_site_fract_z
 _atom_site_occupancy
  Ba  Ba0  1  0.66830305  0.50717926  0.62505255  1
  Ba  Ba1  1  0.00559567  0.16046193  0.37640298  1
  Ba  Ba2  1  1.00101663  0.50505252  0.62802728  1
  Ba  Ba3  1  0.66806257  0.17744315  0.62710250  1
  Ba  Ba4  1  0.33557321  0.83890131  0.62675541  1
  Ba  Ba5  1  0.82924456  0.67304550  0.12306797  1
  Ba  Ba6  1  0.66843011  0.15321706  0.86929064  1
  Ba  Ba7  1  0.16249319  0.32497244  0.87228364  1
  Ba  Ba8  1  0.50270645  0.32696450  0.37495222  1
  Ba  Ba9  1  0.66230712  0.50527713  0.12273764  1
  Ba  Ba10  1  0.16400102  0.00472376  0.62897057  1
  Ba  Ba11  1  0.50244260  0.34610855  0.62641878  1
  Ba  Ba12  1  -0.00213304  0.47830884  0.87425010  1
  Ba  Ba13  1  0.82968708  0.01081193  0.12630158  1
  Ba  Ba14  1  0.83622160  0.65867854  0.37087857  1
  Ba  Ba15  1  0.83344101  0.01178995  0.62518431  1
  Ba  Ba16  1  0.16251347  0.01029129  0.12598612  1
  Ba  Ba17  1  0.99932057  0.84000620  0.62413521  1
  Ba  Ba18  1  0.50190006  0.65959424  0.37726473  1
  Ba  Ba19  1  0.50458180  0.67428562  0.62904600  1
  Ba  Ba20  1  0.66977138  0.82962660  0.87987680  1
  Ba  Ba21  1  0.66785220  0.49450989  0.37137390  1
  Ba  Ba22  1  0.83110714  0.99578298  0.37558904  1
  Ba  Ba23  1  0.17070784  0.32241640  0.37741618  1
  Ba  Ba24  1  0.66751215  0.84026468  0.12538035  1
  Ba  Ba25  1  1.00500898  0.17971166  0.12824425  1
  Ba  Ba26  1  0.50007774  0.00937142  0.12036848  1
  Ba  Ba27  1  0.33240677  0.15792064  0.87420229  1
  Ba  Ba28  1  0.49416015  0.66571892  0.87741313  1
  Ba  Ba29  1  0.67037833  0.17223683  0.12182314  1
  Ba  Ba30  1  0.33853949  0.17930408  0.12224636  1
  Ba  Ba31  1  0.16914919  0.34339851  0.12276513  1
  Ba  Ba32  1  0.50130291  0.67859175  0.12528993  1
  Ba  Ba33  1  0.66579745  0.49165165  0.87566778  1
  Ba  Ba34  1  0.83750065  0.31905537  0.87044761  1
  Ba  Ba35  1  0.16669792  0.34279744  0.62751574  1
  La  La36  1  0.49293163  0.01761848  0.62725435  1
  La  La37  1  0.33860286  0.50990598  0.12267524  1
  La  La38  1  0.67479936  0.16043427  0.37468072  1
  La  La39  1  0.67504962  0.84827019  0.63228277  1
  La  La40  1  0.50917960  0.31758607  0.87207006  1
  La  La41  1  0.16437792  0.98105294  0.87814270  1
  La  La42  1  0.32844675  0.48637701  0.87340842  1
  La  La43  1  0.16214088  0.67534958  0.12004711  1
  La  La44  1  0.33901240  0.84880927  0.12584629  1
  La  La45  1  1.00201910  0.18145866  0.62491581  1
  La  La46  1  0.34062557  0.51610051  0.62124869  1
  La  La47  1  0.50472921  0.98752629  0.37435664  1
  La  La48  1  -0.00156312  0.82428561  0.37910108  1
  La  La49  1  0.34408848  0.18483034  0.62749399  1
  La  La50  1  0.66107441  0.81846057  0.37225517  1
  La  La51  1  -0.01043385  0.81887170  0.87425276  1
  La  La52  1  0.83649613  0.32454663  0.37529022  1
  La  La53  1  1.00199361  0.50485382  0.12427512  1
  La  La54  1  0.33148681  0.48619548  0.37300500  1
  La  La55  1  -0.00217001  0.15858068  0.87311272  1
  La  La56  1  0.17073843  0.98090399  0.37532558  1
  La  La57  1  0.83734051  0.64187490  0.87799187  1
  La  La58  1  0.33630527  0.82682052  0.88341610  1
  La  La59  1  0.33054794  0.81735630  0.37457101  1
  La  La60  1  0.16791816  0.64875352  0.87104114  1
  La  La61  1  0.16947189  0.65354351  0.37656194  1
  La  La62  1  1.00110198  0.84639120  0.12790045  1
  La  La63  1  0.82947476  0.34399631  0.12101884  1
  La  La64  1  0.83042311  0.99536943  0.87483225  1
  La  La65  1  0.16348011  0.68253581  0.62697809  1
  La  La66  1  0.32280228  0.14878595  0.37481045  1
  La  La67  1  0.50359150  0.34093719  0.11986688  1
  La  La68  1  -0.00528222  0.47793032  0.37413775  1
  La  La69  1  0.82368630  0.68085272  0.63193291  1
  La  La70  1  0.50534179  0.98587146  0.87451284  1
  La  La71  1  0.82504342  0.34763979  0.62785576  1
  In  In72  1  0.49749427  0.50028910  0.25013738  1
  In  In73  1  0.83409232  0.16670314  -0.00130500  1
  In  In74  1  0.17009759  0.16227177  0.50453793  1
  In  In75  1  0.16737968  0.16227982  0.75049720  1
  In  In76  1  0.33312248  -0.00272735  0.50349543  1
  In  In77  1  0.66790303  0.66874297  0.75524150  1
  In  In78  1  0.49709980  0.16726666  0.49587783  1
  In  In79  1  0.16820271  0.82840729  0.24648946  1
  In  In80  1  0.49551341  0.50174201  -0.00543889  1
  In  In81  1  0.16440715  0.50067872  0.24980670  1
  In  In82  1  0.66487881  0.00183814  0.24996744  1
  In  In83  1  0.83197632  0.83471608  0.49947715  1
  In  In84  1  0.66924205  0.33072545  0.24886573  1
  In  In85  1  0.83278985  0.83389354  0.25095629  1
  In  In86  1  -0.00140238  -0.00085532  -0.00060772  1
  In  In87  1  -0.00018395  0.66334563  0.49924889  1
  In  In88  1  0.50164193  0.83477740  0.50428322  1
  In  In89  1  0.16448728  0.16635548  -0.00225115  1
  In  In90  1  0.00191226  0.00210884  0.50175784  1
  In  In91  1  0.00109635  -0.00005567  0.25353523  1
  In  In92  1  0.33124505  -0.00385824  0.75421394  1
  In  In93  1  -0.00030397  0.66537956  0.00064863  1
  In  In94  1  0.66342096  0.00054032  0.50139693  1
  In  In95  1  0.66709646  0.66459876  0.24945392  1
  In  In96  1  0.33393849  0.33454716  -0.00471880  1
  In  In97  1  0.32965259  0.67122146  0.75026073  1
  In  In98  1  0.49801887  0.50236107  0.75085699  1
  In  In99  1  0.66747431  0.66757036  -0.00269163  1
  In  In100  1  0.33558927  0.33430158  0.50019297  1
  In  In101  1  0.49856343  0.16742397  0.25182969  1
  In  In102  1  0.33473505  0.33479824  0.24875710  1
  In  In103  1  0.66810465  0.33452694  0.49908994  1
  In  In104  1  0.33234915  0.00226245  -0.00067264  1
  In  In105  1  0.16498782  0.50134768  0.50260276  1
  In  In106  1  -0.00177081  0.66347985  0.74957506  1
  In  In107  1  0.83512426  0.50278929  0.49943337  1
  Ir  Ir108  1  0.66772383  0.66893044  0.50447706  1
  Ir  Ir109  1  0.83752544  0.17311500  0.25165666  1
  Ir  Ir110  1  0.66896381  0.33147136  0.75352251  1
  Ir  Ir111  1  -0.00313092  0.33096706  0.49996267  1
  Ir  Ir112  1  0.17087152  0.49912319  0.75256236  1
  Ir  Ir113  1  0.49204777  0.83579201  0.25099376  1
  Ir  Ir114  1  -0.00037247  -0.00068817  0.75248918  1
  Ir  Ir115  1  0.32383929  0.66978059  0.00334487  1
  Ir  Ir116  1  0.16422511  0.82750353  -0.00136141  1
  Ir  Ir117  1  -0.00190793  0.33397096  0.00115428  1
  Ir  Ir118  1  0.49975242  0.16682306  0.75250293  1
  Ir  Ir119  1  -0.00125734  0.33259531  0.24881191  1
  Ir  Ir120  1  0.84049942  0.49587065  0.24611182  1
  Ir  Ir121  1  0.33544770  0.33580273  0.75005447  1
  Ir  Ir122  1  0.16805516  0.82922594  0.49976568  1
  Ir  Ir123  1  0.00416900  0.66333664  0.24583916  1
  Ir  Ir124  1  0.33109902  0.66740837  0.49413788  1
  Ir  Ir125  1  0.83666521  0.49255615  -0.00021591  1
  Ir  Ir126  1  0.83341910  0.83560764  0.75500249  1
  Ir  Ir127  1  0.50363184  0.83784571  0.75255638  1
  Ir  Ir128  1  0.66660307  0.33094989  -0.00444351  1
  Ir  Ir129  1  0.83626819  0.49596186  0.75244751  1
  Ir  Ir130  1  0.83684317  0.17186171  0.50181420  1
  Ir  Ir131  1  0.16927685  0.16519458  0.25165873  1
  Ir  Ir132  1  0.16061593  0.83020661  0.75595881  1
  Ir  Ir133  1  0.50496877  0.16871557  -0.00502571  1
  Ir  Ir134  1  0.83584903  0.16259267  0.74548695  1
  Ir  Ir135  1  0.16814435  0.50334115  -0.00225906  1
  Ir  Ir136  1  0.66587118  -0.00056881  -0.00420171  1
  Ir  Ir137  1  0.49840985  0.50686101  0.50080217  1
  Ir  Ir138  1  0.66386729  -0.00038058  0.75082150  1
  Ir  Ir139  1  0.49523944  0.83550078  0.00317990  1
  Ir  Ir140  1  0.83678843  0.83444307  -0.00451657  1
  Ir  Ir141  1  0.32875970  0.66749616  0.25047253  1
  Ir  Ir142  1  -0.00268108  0.32950706  0.74573872  1
  Ir  Ir143  1  0.33378640  -0.00196644  0.25211714  1
  O  O144  1  0.32167011  0.34119812  0.12199213  1
  O  O145  1  0.31426792  0.32649796  0.63134136  1
  O  O146  1  0.29600498  0.65271908  0.12835775  1
  O  O147  1  0.29975844  0.66057979  0.61585119  1
  O  O148  1  0.31040026  0.98768394  0.12985493  1
  O  O149  1  0.31199149  0.98804090  0.63026126  1
  O  O150  1  0.63998413  0.32821738  0.11514674  1
  O  O151  1  0.65443524  0.33290235  0.63295888  1
  O  O152  1  0.65569068  0.66621517  0.12227956  1
  O  O153  1  0.65597694  0.66517014  0.62422395  1
  O  O154  1  0.65010229  1.00178488  0.11698759  1
  O  O155  1  0.63111325  0.99169153  0.63171756  1
  O  O156  1  0.96834918  0.33898765  0.12526390  1
  O  O157  1  0.96489030  0.32658310  0.62167971  1
  O  O158  1  0.97780422  0.64497798  0.12740757  1
  O  O159  1  0.96092027  0.66399211  0.62663821  1
  O  O160  1  0.98037898  0.98289481  0.12628076  1
  O  O161  1  0.98220923  0.99048693  0.63380315  1
  O  O162  1  0.18635956  0.16636067  0.13185504  1
  O  O163  1  0.20644186  0.16042006  0.62939960  1
  O  O164  1  0.19811107  0.50474437  0.11771244  1
  O  O165  1  0.20228774  0.49919614  0.63361102  1
  O  O166  1  0.20184483  0.81799670  0.11693497  1
  O  O167  1  0.18932225  0.82004250  0.62777166  1
  O  O168  1  0.52049246  0.16851105  0.11379595  1
  O  O169  1  0.51852167  0.15703280  0.63304993  1
  O  O170  1  0.50630363  0.48138809  0.12047584  1
  O  O171  1  0.51603610  0.50673956  0.61999863  1
  O  O172  1  0.51672521  0.83403429  0.12732888  1
  O  O173  1  0.53541416  0.83325544  0.63347404  1
  O  O174  1  0.85299813  0.16915089  0.13031384  1
  O  O175  1  0.86583120  0.16573639  0.62296980  1
  O  O176  1  0.86820462  0.48663360  0.12249869  1
  O  O177  1  0.85260961  0.49077960  0.63174869  1
  O  O178  1  0.86532535  0.82851905  0.11605801  1
  O  O179  1  0.85085663  0.81950169  0.63416295  1
  O  O180  1  0.15501779  0.16618246  0.37060570  1
  O  O181  1  0.13057351  0.17258547  0.87140953  1
  O  O182  1  0.12807293  0.51764258  0.37536235  1
  O  O183  1  0.14154573  0.51097116  0.87533240  1
  O  O184  1  0.13889946  0.83476891  0.37893410  1
  O  O185  1  0.12780655  0.83632837  0.87696746  1
  O  O186  1  0.45650631  0.17075352  0.37348494  1
  O  O187  1  0.48092592  0.17766986  0.87479339  1
  O  O188  1  0.47017210  0.50453994  0.38216839  1
  O  O189  1  0.46194022  0.50832902  0.87187282  1
  O  O190  1  0.46385422  0.84357974  0.36981363  1
  O  O191  1  0.47013896  0.84438831  0.87766218  1
  O  O192  1  0.80949537  0.18553993  0.37783720  1
  O  O193  1  0.81911955  0.16174610  0.86538774  1
  O  O194  1  0.82108039  0.49369309  0.36561908  1
  O  O195  1  0.81439509  0.50138519  0.87600437  1
  O  O196  1  0.79536108  0.83648328  0.37734313  1
  O  O197  1  0.81716545  0.85530320  0.87522239  1
  O  O198  1  0.03704212  0.00139807  0.37690455  1
  O  O199  1  0.02753499  0.01229283  0.86998647  1
  O  O200  1  0.02219188  0.33969186  0.37460225  1
  O  O201  1  0.01602319  0.32200639  0.87119991  1
  O  O202  1  0.03530529  0.68119168  0.36517147  1
  O  O203  1  0.03038986  0.67661267  0.87566152  1
  O  O204  1  0.36497851  0.00545387  0.37118733  1
  O  O205  1  0.36822141  -0.01009038  0.87620138  1
  O  O206  1  0.35541686  0.34967836  0.37480020  1
  O  O207  1  0.36867841  0.34442736  0.86747362  1
  O  O208  1  0.35547974  0.68203512  0.37071845  1
  O  O209  1  0.34274117  0.68775431  0.88249118  1
  O  O210  1  0.68267728  0.02254913  0.37664178  1
  O  O211  1  0.69399501  -0.00195140  0.87280275  1
  O  O212  1  0.70157897  0.33736160  0.37388974  1
  O  O213  1  0.68972600  0.33174042  0.87466968  1
  O  O214  1  0.68404306  0.67594266  0.38375634  1
  O  O215  1  0.70584650  0.67260238  0.87640362  1
  O  O216  1  0.06813590  0.09537133  0.01331289  1
  O  O217  1  0.06927998  0.09867168  0.53109109  1
  O  O218  1  0.06984105  0.43571206  0.02259131  1
  O  O219  1  0.06539648  0.42277208  0.51193291  1
  O  O220  1  0.06999445  0.76415545  0.02974777  1
  O  O221  1  0.08080320  0.75866458  0.51987787  1
  O  O222  1  0.41384301  0.09797675  0.01018991  1
  O  O223  1  0.39635542  0.09948390  0.52991973  1
  O  O224  1  0.38985187  0.44174720  0.00773720  1
  O  O225  1  0.40463166  0.44172999  0.52072731  1
  O  O226  1  0.39226858  0.76784693  0.02289893  1
  O  O227  1  0.40076318  0.75960332  0.50886608  1
  O  O228  1  0.73839986  0.08751431  0.00812106  1
  O  O229  1  0.74419107  0.10389017  0.51155120  1
  O  O230  1  0.74315911  0.41984450  0.02351061  1
  O  O231  1  0.74695616  0.42443477  0.51965524  1
  O  O232  1  0.74819345  0.76680440  0.01350550  1
  O  O233  1  0.73473168  0.75967263  0.52970646  1
  O  O234  1  0.08863907  0.26877679  0.01555417  1
  O  O235  1  0.08600670  0.25902865  0.52094070  1
  O  O236  1  0.10130782  0.59578730  0.01989447  1
  O  O237  1  0.10276230  0.60204783  0.52762600  1
  O  O238  1  0.09816203  0.91945450  0.01427092  1
  O  O239  1  0.10300043  0.92118223  0.51334514  1
  O  O240  1  0.44304736  0.26761643  0.00949154  1
  O  O241  1  0.42839366  0.26193491  0.52702228  1
  O  O242  1  0.41314887  0.60238452  0.02300640  1
  O  O243  1  0.42228093  0.59776915  0.52319180  1
  O  O244  1  0.41792031  0.91816571  0.02129958  1
  O  O245  1  0.43687584  0.93467892  0.52311582  1
  O  O246  1  0.76153862  0.26447903  0.01841782  1
  O  O247  1  0.77375059  0.26563143  0.52094138  1
  O  O248  1  0.76860497  0.58402027  0.00729149  1
  O  O249  1  0.76598127  0.60435671  0.52198249  1
  O  O250  1  0.76752170  0.93173830  0.00936143  1
  O  O251  1  0.75086577  0.92216794  0.53200859  1
  O  O252  1  0.23773324  0.06580883  0.27776311  1
  O  O253  1  0.23146933  0.06135746  0.78322999  1
  O  O254  1  0.23730569  0.41094212  0.27179922  1
  O  O255  1  0.24703749  0.40965403  0.77780377  1
  O  O256  1  0.23518451  0.73193814  0.27517800  1
  O  O257  1  0.22273760  0.73164544  0.76594869  1
  O  O258  1  0.56316264  0.06605125  0.26956270  1
  O  O259  1  0.56537303  0.06716220  0.77271598  1
  O  O260  1  0.57318951  0.40331417  0.25546272  1
  O  O261  1  0.57508338  0.40092873  0.77334063  1
  O  O262  1  0.56879266  0.75202151  0.27057291  1
  O  O263  1  0.57315572  0.74969326  0.77180479  1
  O  O264  1  0.90557344  0.08128009  0.26795126  1
  O  O265  1  0.90344650  0.06485231  0.77241442  1
  O  O266  1  0.90520905  0.39962710  0.27139469  1
  O  O267  1  0.90347258  0.39897479  0.75931770  1
  O  O268  1  0.91897802  0.73550441  0.26493647  1
  O  O269  1  0.89899377  0.74124735  0.78195127  1
  O  O270  1  0.26639130  0.22957462  0.27053469  1
  O  O271  1  0.26486996  0.24642867  0.76791902  1
  O  O272  1  0.26239393  0.57720835  0.28071063  1
  O  O273  1  0.25721103  0.57130666  0.77964715  1
  O  O274  1  0.26551297  0.90423817  0.27643967  1
  O  O275  1  0.25538013  0.89318724  0.78406400  1
  O  O276  1  0.60508188  0.22886469  0.27359573  1
  O  O277  1  0.59079412  0.24347135  0.77407345  1
  O  O278  1  0.58795488  0.57724302  0.26347261  1
  O  O279  1  0.59103207  0.57816568  0.76594685  1
  O  O280  1  0.58407831  0.90347472  0.27778720  1
  O  O281  1  0.59392420  0.90985928  0.77574293  1
  O  O282  1  0.92829684  0.24334106  0.27273037  1
  O  O283  1  0.93389844  0.22779139  0.76340757  1
  O  O284  1  0.94047940  0.56352943  0.27033480  1
  O  O285  1  0.92282605  0.56963603  0.77665560  1
  O  O286  1  0.93390967  0.89658437  0.27640996  1
  O  O287  1  0.93100284  0.90506806  0.78031869  1
  O  O288  1  0.26800809  0.23150309  0.48143268  1
  O  O289  1  0.25889599  0.24155702  0.98204385  1
  O  O290  1  0.26477124  0.57648263  0.46944221  1
  O  O291  1  0.25983549  0.57374998  0.96980109  1
  O  O292  1  0.26121900  0.89507512  0.47241116  1
  O  O293  1  0.25587355  0.89542936  0.97454480  1
  O  O294  1  0.60178177  0.23393746  0.47692929  1
  O  O295  1  0.59615138  0.24054811  0.97108124  1
  O  O296  1  0.59574644  0.57591388  0.48347874  1
  O  O297  1  0.58748453  0.57762672  0.98175342  1
  O  O298  1  0.59478785  0.90251066  0.46255295  1
  O  O299  1  0.58165308  0.91350849  0.97611866  1
  O  O300  1  0.92859205  0.24023857  0.48174653  1
  O  O301  1  0.93461937  0.23747158  0.98016015  1
  O  O302  1  0.93706987  0.56279145  0.47248177  1
  O  O303  1  0.92535338  0.56670588  0.98213663  1
  O  O304  1  0.93030416  0.90675661  0.47789749  1
  O  O305  1  0.93403636  0.89493409  0.97840396  1
  O  O306  1  0.23417597  0.06052867  0.46888021  1
  O  O307  1  0.23306318  0.06379681  0.97521572  1
  O  O308  1  0.24424132  0.41484681  0.48243432  1
  O  O309  1  0.23580591  0.41618035  0.97366185  1
  O  O310  1  0.23541560  0.73415461  0.47221265  1
  O  O311  1  0.22355309  0.73040829  0.97867414  1
  O  O312  1  0.55764804  0.06200391  0.48746284  1
  O  O313  1  0.56977816  0.06844003  0.97309121  1
  O  O314  1  0.57126371  0.41751136  0.48510851  1
  O  O315  1  0.56996487  0.39652733  0.97656550  1
  O  O316  1  0.57889929  0.74082494  0.48488182  1
  O  O317  1  0.57117429  0.75170151  0.98560981  1
  O  O318  1  0.90459552  0.08123437  0.48365986  1
  O  O319  1  0.90103305  0.06786669  0.97308949  1
  O  O320  1  0.90613506  0.39904990  0.47739755  1
  O  O321  1  0.90273079  0.39879855  0.98789974  1
  O  O322  1  0.91583716  0.74682878  0.47315364  1
  O  O323  1  0.90152722  0.73899853  0.97009215  1
  O  O324  1  0.09891504  0.26225624  0.23390990  1
  O  O325  1  0.08359498  0.25691107  0.72322399  1
  O  O326  1  0.09679779  0.59903395  0.22147223  1
  O  O327  1  0.10322189  0.59457496  0.73000594  1
  O  O328  1  0.09266430  0.91708612  0.22997099  1
  O  O329  1  0.09778202  0.93160777  0.74697834  1
  O  O330  1  0.43925791  0.27109831  0.22245986  1
  O  O331  1  0.42779950  0.26112619  0.72983640  1
  O  O332  1  0.41679738  0.60105240  0.22809129  1
  O  O333  1  0.41380592  0.59174746  0.72471072  1
  O  O334  1  0.42194669  0.92586046  0.22604373  1
  O  O335  1  0.43967178  0.93049047  0.73144601  1
  O  O336  1  0.77514547  0.26777559  0.23154922  1
  O  O337  1  0.76819655  0.26031066  0.72608686  1
  O  O338  1  0.76813795  0.58242625  0.23552476  1
  O  O339  1  0.77325057  0.59448029  0.73801102  1
  O  O340  1  0.75682340  0.92789317  0.23311696  1
  O  O341  1  0.75781605  0.92768807  0.72946109  1
  O  O342  1  0.07961349  0.09539487  0.23517068  1
  O  O343  1  0.05838817  0.09648783  0.72921048  1
  O  O344  1  0.06118044  0.42991360  0.22983337  1
  O  O345  1  0.07292771  0.42260170  0.73334935  1
  O  O346  1  0.07079973  0.75354078  0.21323315  1
  O  O347  1  0.07181146  0.76142080  0.73204730  1
  O  O348  1  0.39762122  0.08904406  0.23174529  1
  O  O349  1  0.40761928  0.09792236  0.72969860  1
  O  O350  1  0.39077673  0.44619418  0.23952581  1
  O  O351  1  0.39786959  0.43052043  0.72486623  1
  O  O352  1  0.39213583  0.76800901  0.22860971  1
  O  O353  1  0.40943897  0.76864228  0.74457662  1
  O  O354  1  0.74411628  0.10699942  0.24517906  1
  O  O355  1  0.73938038  0.09103442  0.72957163  1
  O  O356  1  0.75316499  0.42455754  0.22053437  1
  O  O357  1  0.74498336  0.42104066  0.73030221  1
  O  O358  1  0.74266947  0.75586196  0.23984155  1
  O  O359  1  0.74133055  0.76690811  0.72864491  1
