# generated using pymatgen
data_BaLaInIrO6
_symmetry_space_group_name_H-M   'P 1'
_cell_length_a   17.53546826
_cell_length_b   17.57018937
_cell_length_c   16.51699076
_cell_angle_alpha   90.02348245
_cell_angle_beta   89.98706335
_cell_angle_gamma   89.97612732
_symmetry_Int_Tables_number   1
_chemical_formula_structural   BaLaInIrO6
_chemical_formula_sum   'Ba36 La36 In36 Ir36 O216'
_cell_volume   5088.90859611
_cell_formula_units_Z   36
loop_
 _symmetry_equiv_pos_site_id
 _symmetry_equiv_pos_as_xyz
  1  'x, y, z'
loop_
 _atom_site_type_symbol
 _atom_site_label
 _atom_site_symmetry_multiplicity
 _atom_site_fract_x
 _atom_site_fract_y
 _atom_site_fract_z
 _atom_site_occupancy
  Ba  Ba0  1  0.66544648  0.49085767  0.37594519  1
  Ba  Ba1  1  0.16741257  0.65838882  0.87628309  1
  Ba  Ba2  1  0.49877275  0.00798246  0.62927485  1
  Ba  Ba3  1  0.33531773  0.17625542  0.12351388  1
  Ba  Ba4  1  0.33532847  0.82687288  0.87128253  1
  Ba  Ba5  1  0.17222886  0.00503322  0.12178300  1
  Ba  Ba6  1  0.16383424  0.99327394  0.37403157  1
  Ba  Ba7  1  0.16872369  0.67050109  0.12461641  1
  Ba  Ba8  1  0.83683974  0.98925098  0.37432367  1
  Ba  Ba9  1  0.50054421  0.67397009  0.12498529  1
  Ba  Ba10  1  -0.00324246  0.15633082  0.37084291  1
  Ba  Ba11  1  0.32763169  0.50461110  0.62635949  1
  Ba  Ba12  1  0.33252985  0.82798171  0.37653341  1
  Ba  Ba13  1  0.16594627  0.32841249  0.37601832  1
  Ba  Ba14  1  1.00177072  0.17764610  0.62450045  1
  Ba  Ba15  1  -0.00542857  0.82728461  0.37732752  1
  Ba  Ba16  1  0.16807009  0.33907007  0.12407065  1
  Ba  Ba17  1  1.00166236  0.50714886  0.62855095  1
  Ba  Ba18  1  0.16788263  0.32629520  0.87628523  1
  Ba  Ba19  1  0.66805756  0.17939494  0.12692814  1
  Ba  Ba20  1  0.33189035  0.49374941  0.37419666  1
  Ba  Ba21  1  0.83862279  0.32321518  0.37531689  1
  Ba  Ba22  1  0.82915368  0.67774484  0.12508590  1
  Ba  Ba23  1  0.49653404  0.34104406  0.12606913  1
  Ba  Ba24  1  0.49821332  0.32657444  0.37629477  1
  Ba  Ba25  1  0.33238512  0.49309491  0.87760451  1
  Ba  Ba26  1  0.33736452  0.17503338  0.62683384  1
  Ba  Ba27  1  0.83637904  0.32411701  0.87788871  1
  Ba  Ba28  1  0.33415795  0.50565893  0.12729932  1
  Ba  Ba29  1  0.99959525  0.50710790  0.12641110  1
  Ba  Ba30  1  0.67140603  0.17788056  0.62842282  1
  Ba  Ba31  1  0.50003985  0.34444386  0.62773365  1
  Ba  Ba32  1  0.33189586  0.16047653  0.87699501  1
  Ba  Ba33  1  0.16442026  0.00893814  0.62480537  1
  Ba  Ba34  1  0.83064438  0.01537302  0.62465968  1
  Ba  Ba35  1  0.49977132  0.65541199  0.37496010  1
  La  La36  1  0.00037529  0.48241609  0.88086463  1
  La  La37  1  0.67404157  0.51392884  0.62455228  1
  La  La38  1  0.66724488  0.50663166  0.13320313  1
  La  La39  1  -0.00432231  0.81780391  0.87377784  1
  La  La40  1  0.66449462  0.82432670  0.37616192  1
  La  La41  1  0.67281795  0.85564218  0.62362649  1
  La  La42  1  0.83025514  0.35079277  0.13094447  1
  La  La43  1  0.17172148  0.65429746  0.37465108  1
  La  La44  1  0.82807083  0.68890908  0.62560170  1
  La  La45  1  -0.00240257  0.14550427  0.87647069  1
  La  La46  1  0.82775446  0.34641731  0.62574411  1
  La  La47  1  0.83774734  0.65092350  0.37251594  1
  La  La48  1  0.17102299  0.98969170  0.87410616  1
  La  La49  1  0.16172758  0.68219298  0.62308390  1
  La  La50  1  0.33580081  0.84309942  0.62147344  1
  La  La51  1  0.83477764  0.01230749  0.12498183  1
  La  La52  1  0.66669928  0.15044019  0.38205699  1
  La  La53  1  0.66035991  0.14743332  0.87222234  1
  La  La54  1  1.00312149  0.84295747  0.12263423  1
  La  La55  1  0.99900859  0.85098851  0.62554700  1
  La  La56  1  0.66088864  0.81847047  0.87162035  1
  La  La57  1  0.32277032  0.16695291  0.37618109  1
  La  La58  1  -0.00266839  0.48362483  0.37401509  1
  La  La59  1  0.67371578  0.84768445  0.12505434  1
  La  La60  1  0.50339282  0.64754423  0.87124306  1
  La  La61  1  1.00541777  0.17763130  0.12404537  1
  La  La62  1  0.50112645  0.98337811  0.87595655  1
  La  La63  1  0.33655010  0.83813251  0.12423539  1
  La  La64  1  0.17344100  0.33779778  0.62515708  1
  La  La65  1  0.50055185  0.67532301  0.62024667  1
  La  La66  1  0.50215098  0.31662722  0.87681632  1
  La  La67  1  0.83599005  0.98213734  0.87468117  1
  La  La68  1  0.50215909  0.99249685  0.37807257  1
  La  La69  1  0.49031040  0.01386430  0.12002663  1
  La  La70  1  0.65935250  0.48298396  0.87315557  1
  La  La71  1  0.83901015  0.64886548  0.87183725  1
  In  In72  1  0.50208674  0.49777142  -0.00053718  1
  In  In73  1  0.83267371  0.16953423  0.75422084  1
  In  In74  1  0.33634596  -0.00191899  0.25042987  1
  In  In75  1  -0.00032509  0.67012499  0.25166722  1
  In  In76  1  0.33282933  0.00053404  0.50017562  1
  In  In77  1  0.66842669  0.66976245  0.25041573  1
  In  In78  1  0.49914948  0.16643065  0.50075651  1
  In  In79  1  0.16528840  0.16265529  0.24882154  1
  In  In80  1  0.16323158  0.83201874  0.74979155  1
  In  In81  1  0.50318365  0.82775136  0.74640879  1
  In  In82  1  0.33289095  -0.00003576  0.75183147  1
  In  In83  1  0.50009224  0.16596293  0.25285406  1
  In  In84  1  0.33603544  0.66870345  -0.00319104  1
  In  In85  1  0.83063995  0.50161392  -0.00227578  1
  In  In86  1  0.66546337  -0.00035085  0.24876275  1
  In  In87  1  0.33508924  0.33420141  0.75438674  1
  In  In88  1  -0.00063279  0.66832364  0.50023831  1
  In  In89  1  0.33485371  0.66944151  0.25005002  1
  In  In90  1  0.33504888  0.33583229  0.50214846  1
  In  In91  1  0.66917520  0.67008436  0.50133367  1
  In  In92  1  0.83253186  0.16807293  -0.00003973  1
  In  In93  1  0.66731173  0.33256003  0.00132870  1
  In  In94  1  -0.00034848  0.33091675  0.24742278  1
  In  In95  1  0.66981329  0.66719921  -0.00401659  1
  In  In96  1  0.33409691  0.33380333  0.25013340  1
  In  In97  1  -0.00241474  0.00147275  0.49856264  1
  In  In98  1  0.66757278  0.33304222  0.49925355  1
  In  In99  1  0.16507855  0.83317249  0.00022523  1
  In  In100  1  0.16280391  0.16772066  0.75242564  1
  In  In101  1  0.66669250  -0.00195289  0.00158758  1
  In  In102  1  0.33383735  0.66687885  0.50137189  1
  In  In103  1  0.16240124  0.50048985  0.50212953  1
  In  In104  1  0.83612931  0.50226413  0.50339871  1
  In  In105  1  -0.00307423  0.66555698  -0.00046626  1
  In  In106  1  0.83280987  0.16609970  0.24799752  1
  In  In107  1  0.16362551  0.50237639  0.75346628  1
  Ir  Ir108  1  0.50648586  0.83572580  0.24912809  1
  Ir  Ir109  1  0.50642023  0.50346031  0.74557380  1
  Ir  Ir110  1  -0.00053738  0.32847655  -0.00326615  1
  Ir  Ir111  1  0.16197133  0.50214974  0.24923115  1
  Ir  Ir112  1  0.50648720  0.16566803  0.75557857  1
  Ir  Ir113  1  0.82911697  0.83240729  0.75112100  1
  Ir  Ir114  1  0.16361430  0.83233785  0.49968594  1
  Ir  Ir115  1  0.83161177  0.50150354  0.75006422  1
  Ir  Ir116  1  0.33718161  -0.00144275  -0.00318213  1
  Ir  Ir117  1  -0.00451936  0.33544026  0.75205910  1
  Ir  Ir118  1  0.67034744  0.66643298  0.74822985  1
  Ir  Ir119  1  0.83192747  0.83565753  -0.00279517  1
  Ir  Ir120  1  0.83334132  0.50039095  0.25240613  1
  Ir  Ir121  1  0.66786171  0.33784279  0.75120309  1
  Ir  Ir122  1  -0.00329093  -0.00342371  0.75535466  1
  Ir  Ir123  1  -0.00458530  0.33223983  0.50488819  1
  Ir  Ir124  1  -0.00202590  -0.00382345  -0.00362781  1
  Ir  Ir125  1  0.50546406  0.49917213  0.25314675  1
  Ir  Ir126  1  0.50575610  0.83368231  0.49901917  1
  Ir  Ir127  1  0.50094958  0.16256424  -0.00584595  1
  Ir  Ir128  1  0.83275586  0.83434026  0.24575092  1
  Ir  Ir129  1  0.66960589  -0.00117400  0.49978199  1
  Ir  Ir130  1  0.16476118  0.83406580  0.25126952  1
  Ir  Ir131  1  0.16420500  0.16882959  0.49993729  1
  Ir  Ir132  1  -0.00741064  0.66800085  0.74665952  1
  Ir  Ir133  1  0.83284340  0.16964131  0.50193447  1
  Ir  Ir134  1  0.67028297  -0.00196459  0.75196221  1
  Ir  Ir135  1  -0.00338753  -0.00791515  0.24233177  1
  Ir  Ir136  1  0.50529808  0.50246549  0.50267664  1
  Ir  Ir137  1  0.33560290  0.66713690  0.74460297  1
  Ir  Ir138  1  0.50556666  0.83410978  -0.00009361  1
  Ir  Ir139  1  0.16104280  0.16432859  -0.00101046  1
  Ir  Ir140  1  0.33409300  0.33297574  -0.00015804  1
  Ir  Ir141  1  0.66901406  0.33550805  0.25080449  1
  Ir  Ir142  1  0.16428156  0.49721934  0.00328533  1
  Ir  Ir143  1  0.82968778  0.83352768  0.50078803  1
  O  O144  1  0.31791367  0.33390300  0.11933779  1
  O  O145  1  0.30953539  0.33319308  0.62868821  1
  O  O146  1  0.32301397  0.67647479  0.12522697  1
  O  O147  1  0.30098763  0.66617746  0.62738194  1
  O  O148  1  0.32345424  0.97962104  0.11774008  1
  O  O149  1  0.31470221  0.98002441  0.62595475  1
  O  O150  1  0.64810556  0.34171361  0.13195986  1
  O  O151  1  0.65095347  0.33384469  0.63251882  1
  O  O152  1  0.65612285  0.64795029  0.12377119  1
  O  O153  1  0.63778716  0.65526241  0.63007872  1
  O  O154  1  0.62863747  0.98469932  0.12447553  1
  O  O155  1  0.64764495  0.99190917  0.62631132  1
  O  O156  1  0.96819880  0.32063204  0.11532849  1
  O  O157  1  0.96521228  0.33186015  0.63076216  1
  O  O158  1  0.97737492  0.66736027  0.12584959  1
  O  O159  1  0.96083925  0.66199805  0.62882165  1
  O  O160  1  0.96727896  0.98226016  0.11749601  1
  O  O161  1  0.97711550  0.99058338  0.63331375  1
  O  O162  1  0.18190006  0.15927984  0.11676463  1
  O  O163  1  0.17973689  0.17027176  0.62013316  1
  O  O164  1  0.18537179  0.49606200  0.12659259  1
  O  O165  1  0.16884344  0.47667026  0.62912465  1
  O  O166  1  0.19579331  0.83075531  0.13104323  1
  O  O167  1  0.19483333  0.82358754  0.62066106  1
  O  O168  1  0.52273040  0.15279671  0.11384498  1
  O  O169  1  0.52439043  0.16312775  0.63748328  1
  O  O170  1  0.53185064  0.49932524  0.13045647  1
  O  O171  1  0.53746753  0.50437983  0.62407019  1
  O  O172  1  0.53766927  0.82688580  0.12629814  1
  O  O173  1  0.53769850  0.81934915  0.61892410  1
  O  O174  1  0.86908953  0.14959027  0.12083452  1
  O  O175  1  0.84943538  0.16948010  0.62439803  1
  O  O176  1  0.84479865  0.49765723  0.12959988  1
  O  O177  1  0.85265930  0.48938541  0.63273115  1
  O  O178  1  0.86553646  0.82866376  0.12060348  1
  O  O179  1  0.86205832  0.82488012  0.62686453  1
  O  O180  1  0.14664036  0.16934703  0.38120813  1
  O  O181  1  0.13091299  0.16752080  0.88065023  1
  O  O182  1  0.13359770  0.51192404  0.37006148  1
  O  O183  1  0.13747140  0.50228066  0.88279789  1
  O  O184  1  0.14043130  0.83923372  0.37585334  1
  O  O185  1  0.13022493  0.84275376  0.87408211  1
  O  O186  1  0.45944203  0.16171245  0.37599713  1
  O  O187  1  0.48442282  0.17636005  0.87475620  1
  O  O188  1  0.48104590  0.50079695  0.37825099  1
  O  O189  1  0.48598715  0.51097414  0.86408742  1
  O  O190  1  0.48208555  0.85211618  0.37305963  1
  O  O191  1  0.48692753  0.84375137  0.87868852  1
  O  O192  1  0.80550377  0.16846874  0.37976299  1
  O  O193  1  0.79530588  0.17232543  0.87698863  1
  O  O194  1  0.81704554  0.50152747  0.37306264  1
  O  O195  1  0.79819113  0.50749444  0.86654630  1
  O  O196  1  0.79978782  0.83879327  0.37444481  1
  O  O197  1  0.79622192  0.84618155  0.87408853  1
  O  O198  1  0.01127061  -0.00485942  0.36509234  1
  O  O199  1  0.03127541  0.00417959  0.87665752  1
  O  O200  1  0.00832666  0.33965697  0.38168660  1
  O  O201  1  0.01842856  0.34492893  0.87560565  1
  O  O202  1  0.03537216  0.67648260  0.37544305  1
  O  O203  1  0.01539716  0.68040738  0.86570063  1
  O  O204  1  0.36620906  -0.00163518  0.37597786  1
  O  O205  1  0.36731906  0.00198298  0.87838903  1
  O  O206  1  0.34538322  0.32852378  0.37644551  1
  O  O207  1  0.36415864  0.33463292  0.88098542  1
  O  O208  1  0.35020950  0.67316601  0.37507445  1
  O  O209  1  0.36863742  0.67139232  0.86368654  1
  O  O210  1  0.68950419  0.00114311  0.38024905  1
  O  O211  1  0.69842853  0.00311579  0.87238457  1
  O  O212  1  0.69064370  0.33658191  0.36897517  1
  O  O213  1  0.68792916  0.34565257  0.87023026  1
  O  O214  1  0.70196177  0.68231936  0.37594709  1
  O  O215  1  0.70256515  0.68412749  0.86471394  1
  O  O216  1  0.05988487  0.09695131  0.01724874  1
  O  O217  1  0.07612085  0.09393298  0.51321409  1
  O  O218  1  0.06788143  0.42547433  0.01401062  1
  O  O219  1  0.05745236  0.42807951  0.50351017  1
  O  O220  1  0.06202482  0.76719076  0.01335965  1
  O  O221  1  0.06977288  0.76758759  0.53229350  1
  O  O222  1  0.40934399  0.08953689  0.01849230  1
  O  O223  1  0.41178384  0.08660364  0.52353221  1
  O  O224  1  0.40493061  0.42244604  0.01440776  1
  O  O225  1  0.41427296  0.43660232  0.51599714  1
  O  O226  1  0.40977478  0.77516494  0.02171684  1
  O  O227  1  0.41238300  0.76356515  0.52687088  1
  O  O228  1  0.74121128  0.08928940  0.02337970  1
  O  O229  1  0.73281282  0.10115785  0.51053815  1
  O  O230  1  0.72783775  0.44012011  0.01791694  1
  O  O231  1  0.73800259  0.43154779  0.52684321  1
  O  O232  1  0.73155629  0.77740067  0.01724816  1
  O  O233  1  0.73648402  0.76992978  0.52949839  1
  O  O234  1  0.08781264  0.25362934  0.02506874  1
  O  O235  1  0.09596570  0.26868687  0.52345729  1
  O  O236  1  0.09287867  0.58561191  0.01492122  1
  O  O237  1  0.09877743  0.60355744  0.52844780  1
  O  O238  1  0.08729832  0.92879663  0.02011508  1
  O  O239  1  0.09025205  0.92025030  0.52055339  1
  O  O240  1  0.43334023  0.26176197  0.00852562  1
  O  O241  1  0.42766436  0.26070022  0.52191231  1
  O  O242  1  0.43356968  0.59710468  0.00127988  1
  O  O243  1  0.43709178  0.59744244  0.52451526  1
  O  O244  1  0.44037150  0.93395506  0.01552961  1
  O  O245  1  0.43063564  0.91545790  0.52027827  1
  O  O246  1  0.76966390  0.27155708  0.03006111  1
  O  O247  1  0.77077866  0.26550974  0.52157942  1
  O  O248  1  0.77388467  0.60839125  -0.00186576  1
  O  O249  1  0.76734834  0.60179629  0.52739253  1
  O  O250  1  0.77006599  0.92922960  0.02550171  1
  O  O251  1  0.75992943  0.92577999  0.52499248  1
  O  O252  1  0.24782253  0.07736809  0.27106051  1
  O  O253  1  0.23342342  0.07008210  0.77404192  1
  O  O254  1  0.23679770  0.41700998  0.26300377  1
  O  O255  1  0.24201623  0.41196502  0.76715123  1
  O  O256  1  0.22853183  0.74111674  0.27475581  1
  O  O257  1  0.24533597  0.73769036  0.76319184  1
  O  O258  1  0.57601683  0.07419832  0.28612327  1
  O  O259  1  0.57544500  0.06634375  0.78192523  1
  O  O260  1  0.57649804  0.40614241  0.27025987  1
  O  O261  1  0.57182062  0.40666779  0.77660368  1
  O  O262  1  0.57415035  0.74626165  0.27289059  1
  O  O263  1  0.57472178  0.73061968  0.77543919  1
  O  O264  1  0.90522130  0.05878736  0.25381384  1
  O  O265  1  0.90556655  0.06621638  0.78285690  1
  O  O266  1  0.90401725  0.40978271  0.25640381  1
  O  O267  1  0.89949104  0.40754471  0.77188654  1
  O  O268  1  0.89335135  0.73716680  0.27734178  1
  O  O269  1  0.89335830  0.73507263  0.77018966  1
  O  O270  1  0.25884371  0.23832122  0.26808569  1
  O  O271  1  0.25668224  0.24125116  0.76593688  1
  O  O272  1  0.24783148  0.57871373  0.26649826  1
  O  O273  1  0.26315601  0.58172668  0.76641878  1
  O  O274  1  0.25703113  0.90194908  0.26280203  1
  O  O275  1  0.24857047  0.91258334  0.77616542  1
  O  O276  1  0.60709234  0.23805839  0.27254625  1
  O  O277  1  0.60314878  0.23922825  0.78064838  1
  O  O278  1  0.59456651  0.57072405  0.26444210  1
  O  O279  1  0.60613824  0.56935719  0.77172278  1
  O  O280  1  0.60098107  0.89871337  0.27504785  1
  O  O281  1  0.60319200  0.90248968  0.76836837  1
  O  O282  1  0.92553254  0.23753116  0.25935391  1
  O  O283  1  0.93668840  0.23598470  0.77516912  1
  O  O284  1  0.92544215  0.56931218  0.27943719  1
  O  O285  1  0.92589897  0.56985227  0.77965274  1
  O  O286  1  0.93098917  0.89505643  0.25446347  1
  O  O287  1  0.92524583  0.89940258  0.77938158  1
  O  O288  1  0.25587777  0.23530345  0.48323296  1
  O  O289  1  0.25467755  0.23562895  0.98321357  1
  O  O290  1  0.25457408  0.57787701  0.48058251  1
  O  O291  1  0.25287547  0.57032347  0.98994136  1
  O  O292  1  0.25510729  0.90066759  0.48800445  1
  O  O293  1  0.25883567  0.91614533  0.97694090  1
  O  O294  1  0.60232529  0.23147809  0.47697974  1
  O  O295  1  0.59654448  0.23018722  0.97389381  1
  O  O296  1  0.59534310  0.57269500  0.48814879  1
  O  O297  1  0.59947691  0.57061180  0.96730783  1
  O  O298  1  0.60379783  0.90096755  0.47950432  1
  O  O299  1  0.60073167  0.89709684  0.97347877  1
  O  O300  1  0.92934697  0.23487342  0.48780328  1
  O  O301  1  0.93846268  0.23188416  0.97449630  1
  O  O302  1  0.93147848  0.57043375  0.46842327  1
  O  O303  1  0.92825744  0.57046191  0.96712938  1
  O  O304  1  0.92273649  0.90190488  0.49418010  1
  O  O305  1  0.93133786  0.89979970  0.96993504  1
  O  O306  1  0.23923912  0.08225410  0.48055819  1
  O  O307  1  0.23383030  0.06845667  0.97329635  1
  O  O308  1  0.23383588  0.40409917  0.49505199  1
  O  O309  1  0.24007185  0.40442950  0.98537750  1
  O  O310  1  0.22606533  0.73748200  0.48276284  1
  O  O311  1  0.24411472  0.74472455  0.98001136  1
  O  O312  1  0.57716315  0.06562756  0.47462023  1
  O  O313  1  0.56682230  0.06789983  0.96954663  1
  O  O314  1  0.57299065  0.41106643  0.48699945  1
  O  O315  1  0.56896389  0.40033473  0.97132456  1
  O  O316  1  0.57655696  0.74659947  0.47562343  1
  O  O317  1  0.56851754  0.73813884  0.97098940  1
  O  O318  1  0.90139212  0.07831997  0.48664188  1
  O  O319  1  0.90512859  0.06172661  0.96981172  1
  O  O320  1  0.90312999  0.39876098  0.49438972  1
  O  O321  1  0.91139992  0.40588957  0.98573555  1
  O  O322  1  0.89090617  0.73526867  0.48063025  1
  O  O323  1  0.89616808  0.74344768  0.96566069  1
  O  O324  1  0.08539616  0.25007662  0.22664873  1
  O  O325  1  0.09048955  0.27322185  0.72845164  1
  O  O326  1  0.09261625  0.59026957  0.23436063  1
  O  O327  1  0.09099462  0.60677662  0.72650193  1
  O  O328  1  0.09064985  0.92413404  0.22373624  1
  O  O329  1  0.08149329  0.92389444  0.72803415  1
  O  O330  1  0.42782921  0.25796511  0.23190225  1
  O  O331  1  0.44001597  0.26016480  0.74606336  1
  O  O332  1  0.43211786  0.58747459  0.23754342  1
  O  O333  1  0.44111671  0.60256828  0.72529276  1
  O  O334  1  0.44184782  0.92597474  0.22546779  1
  O  O335  1  0.42323126  0.91557570  0.73551613  1
  O  O336  1  0.76386514  0.27179467  0.22470241  1
  O  O337  1  0.76419628  0.27401007  0.73092850  1
  O  O338  1  0.76575243  0.59252430  0.24610489  1
  O  O339  1  0.76668310  0.59929908  0.72122556  1
  O  O340  1  0.76588119  0.92718586  0.21602736  1
  O  O341  1  0.76256407  0.92606156  0.72858120  1
  O  O342  1  0.06251602  0.08608296  0.22396353  1
  O  O343  1  0.06281245  0.09047647  0.74245547  1
  O  O344  1  0.07169517  0.42906109  0.24216049  1
  O  O345  1  0.05702414  0.43152411  0.75137891  1
  O  O346  1  0.07157730  0.77049036  0.22514727  1
  O  O347  1  0.05962617  0.76138236  0.72081390  1
  O  O348  1  0.41694646  0.08198909  0.21842360  1
  O  O349  1  0.41621432  0.09458994  0.74007706  1
  O  O350  1  0.41660371  0.42916276  0.23949343  1
  O  O351  1  0.41592351  0.43513523  0.73299284  1
  O  O352  1  0.40975537  0.77329876  0.22824004  1
  O  O353  1  0.40678524  0.75415016  0.71384259  1
  O  O354  1  0.74267249  0.08996201  0.22912921  1
  O  O355  1  0.73507013  0.09245210  0.74076976  1
  O  O356  1  0.73818400  0.43148398  0.22552489  1
  O  O357  1  0.73227634  0.43593080  0.72624452  1
  O  O358  1  0.73545652  0.77384778  0.22702676  1
  O  O359  1  0.73303763  0.76575500  0.72033357  1
