# generated using pymatgen
data_BaLaInIrO6
_symmetry_space_group_name_H-M   'P 1'
_cell_length_a   17.52895651
_cell_length_b   17.55623836
_cell_length_c   16.48520718
_cell_angle_alpha   90.02090204
_cell_angle_beta   90.01011803
_cell_angle_gamma   89.99390707
_symmetry_Int_Tables_number   1
_chemical_formula_structural   BaLaInIrO6
_chemical_formula_sum   'Ba36 La36 In36 Ir36 O216'
_cell_volume   5073.19906385
_cell_formula_units_Z   36
loop_
 _symmetry_equiv_pos_site_id
 _symmetry_equiv_pos_as_xyz
  1  'x, y, z'
loop_
 _atom_site_type_symbol
 _atom_site_label
 _atom_site_symmetry_multiplicity
 _atom_site_fract_x
 _atom_site_fract_y
 _atom_site_fract_z
 _atom_site_occupancy
  Ba  Ba0  1  0.33304893  0.50074406  0.62042186  1
  Ba  Ba1  1  0.67109985  0.84238757  0.12564505  1
  Ba  Ba2  1  0.83735992  0.99243136  0.87620729  1
  Ba  Ba3  1  0.67031567  0.17941328  0.12718671  1
  Ba  Ba4  1  0.49705919  0.33761835  0.62722151  1
  Ba  Ba5  1  -0.00062476  0.15548935  0.37383929  1
  Ba  Ba6  1  0.33390105  0.49548228  0.87420001  1
  Ba  Ba7  1  -0.00381310  0.82399510  0.87490802  1
  Ba  Ba8  1  -0.00234143  0.15305556  0.87520124  1
  Ba  Ba9  1  0.99947177  0.17180253  0.12118379  1
  Ba  Ba10  1  0.16677434  0.32613426  0.37403651  1
  Ba  Ba11  1  0.49467006  0.67260325  0.62507010  1
  Ba  Ba12  1  0.33185583  0.83601637  0.62628126  1
  Ba  Ba13  1  0.16292713  0.65923559  0.37379727  1
  Ba  Ba14  1  0.33325682  0.17184037  0.62451736  1
  Ba  Ba15  1  1.00393591  0.17497063  0.62823218  1
  Ba  Ba16  1  0.66263480  0.15852228  0.37149300  1
  Ba  Ba17  1  0.16865027  0.00327648  0.12374218  1
  Ba  Ba18  1  0.49740728  0.00914811  0.62393008  1
  Ba  Ba19  1  0.16612341  0.98573104  0.87775488  1
  Ba  Ba20  1  0.66642332  0.50915342  0.12163631  1
  Ba  Ba21  1  0.16839869  0.34014127  0.62085277  1
  Ba  Ba22  1  1.00002081  0.83966711  0.12595215  1
  Ba  Ba23  1  0.50427733  0.67590631  0.12610454  1
  Ba  Ba24  1  0.16891093  0.98984714  0.37350770  1
  Ba  Ba25  1  0.32934581  0.15882701  0.37659057  1
  Ba  Ba26  1  0.49874351  0.99369814  0.37632285  1
  Ba  Ba27  1  0.83245831  0.01152187  0.62749462  1
  Ba  Ba28  1  0.82762988  0.67373204  0.12195083  1
  Ba  Ba29  1  0.50200235  0.34858496  0.12708759  1
  Ba  Ba30  1  0.50227994  0.32211403  0.87668261  1
  Ba  Ba31  1  0.66147695  0.15746569  0.87745838  1
  Ba  Ba32  1  -0.00229364  0.82085697  0.37733504  1
  Ba  Ba33  1  0.16535191  0.67668142  0.62609021  1
  Ba  Ba34  1  0.33178873  0.82281141  0.87488791  1
  Ba  Ba35  1  0.50405899  0.32450023  0.37442057  1
  La  La36  1  0.83166706  0.34310522  0.62499438  1
  La  La37  1  0.50181253  0.65051508  0.87405740  1
  La  La38  1  0.49738856  0.01707162  0.12467550  1
  La  La39  1  0.16361828  0.66372704  0.87032527  1
  La  La40  1  0.66305774  0.48623195  0.36794411  1
  La  La41  1  0.66481447  0.81993138  0.37770419  1
  La  La42  1  1.00217469  0.51127717  0.12666183  1
  La  La43  1  0.50299455  0.98789119  0.87743429  1
  La  La44  1  0.66920447  0.85153535  0.62599638  1
  La  La45  1  0.67168705  0.51343833  0.62231463  1
  La  La46  1  0.34062389  0.18427741  0.12902752  1
  La  La47  1  0.66144046  0.48352357  0.87995563  1
  La  La48  1  0.32986778  0.82665203  0.37926872  1
  La  La49  1  0.33296646  0.48591368  0.37316451  1
  La  La50  1  1.00719596  0.84728462  0.62688121  1
  La  La51  1  0.17634867  0.31692216  0.87559997  1
  La  La52  1  0.83022387  0.01189540  0.12535631  1
  La  La53  1  1.00531760  0.51715096  0.62348107  1
  La  La54  1  -0.00063184  0.49112300  0.86963094  1
  La  La55  1  0.66415980  0.82204593  0.87657695  1
  La  La56  1  -0.00316703  0.48759206  0.37990372  1
  La  La57  1  0.32995619  0.84184282  0.12760107  1
  La  La58  1  0.83844306  0.65310763  0.87581899  1
  La  La59  1  0.16106134  0.68063188  0.12275535  1
  La  La60  1  0.82811174  0.68320921  0.62211765  1
  La  La61  1  0.82195278  0.34875786  0.12877607  1
  La  La62  1  0.49664367  0.65463397  0.37638212  1
  La  La63  1  0.83922773  0.98309775  0.36891903  1
  La  La64  1  0.16011116  0.00959556  0.61975911  1
  La  La65  1  0.84041813  0.64743837  0.37344785  1
  La  La66  1  0.83756949  0.31996193  0.87559801  1
  La  La67  1  0.83802241  0.31912729  0.37279170  1
  La  La68  1  0.66783146  0.18821934  0.62191126  1
  La  La69  1  0.33123368  0.15381150  0.87501989  1
  La  La70  1  0.34080346  0.52031406  0.12574239  1
  La  La71  1  0.16666060  0.34773571  0.12603061  1
  In  In72  1  0.33491723  0.33715557  0.00134201  1
  In  In73  1  0.83105446  0.83022905  0.24982920  1
  In  In74  1  0.83364229  0.16531190  0.25088277  1
  In  In75  1  0.50571852  0.49887521  0.50087410  1
  In  In76  1  -0.00123251  0.66314138  0.24989422  1
  In  In77  1  0.33642842  0.33330782  0.75235296  1
  In  In78  1  0.66601704  -0.00208362  0.24956718  1
  In  In79  1  0.33597176  -0.00230516  -0.00005804  1
  In  In80  1  0.00153796  0.33673822  0.75056810  1
  In  In81  1  0.16606428  0.50253408  0.00077240  1
  In  In82  1  0.66897523  0.66686180  0.74758410  1
  In  In83  1  0.16569429  0.50136667  0.49533984  1
  In  In84  1  0.33283630  0.66388540  0.49748737  1
  In  In85  1  0.16420527  0.16654565  0.49891626  1
  In  In86  1  -0.00461569  -0.00261884  0.49718884  1
  In  In87  1  0.33295372  0.66349696  0.75167244  1
  In  In88  1  0.66927062  0.00252417  0.50005803  1
  In  In89  1  0.17045477  0.16572391  0.00228401  1
  In  In90  1  0.83256069  0.16736134  -0.00050766  1
  In  In91  1  0.50231433  0.83182391  0.50002157  1
  In  In92  1  0.16751459  0.16604748  0.24675596  1
  In  In93  1  0.83612013  0.49926544  -0.00403025  1
  In  In94  1  0.00182333  0.33726124  0.00066712  1
  In  In95  1  0.50056213  0.83095616  0.75120518  1
  In  In96  1  0.83152398  0.16751375  0.74946845  1
  In  In97  1  0.83213559  0.83345612  0.74912709  1
  In  In98  1  0.33585933  -0.00182602  0.25088192  1
  In  In99  1  0.50209703  0.16332759  0.75084337  1
  In  In100  1  -0.00114641  0.33480279  0.24514870  1
  In  In101  1  0.83123086  0.16635798  0.50015833  1
  In  In102  1  0.16311839  0.50026628  0.75140215  1
  In  In103  1  0.49909653  0.83231963  0.00285983  1
  In  In104  1  0.66889928  0.66724978  -0.00435936  1
  In  In105  1  0.33275699  -0.00355577  0.50286308  1
  In  In106  1  0.66557873  0.66626822  0.25339717  1
  In  In107  1  0.16717550  0.16478939  0.75275442  1
  Ir  Ir108  1  0.66746269  0.33611350  0.00097548  1
  Ir  Ir109  1  0.66565548  -0.00191664  -0.00176913  1
  Ir  Ir110  1  0.83249871  0.49789065  0.25673418  1
  Ir  Ir111  1  0.33269613  0.66965569  0.24755064  1
  Ir  Ir112  1  -0.00226207  -0.00741489  0.00196478  1
  Ir  Ir113  1  0.16509432  0.82532697  -0.00086465  1
  Ir  Ir114  1  0.33710461  0.33269626  0.49572127  1
  Ir  Ir115  1  0.83220645  0.50109376  0.74479650  1
  Ir  Ir116  1  -0.00682257  0.33871421  0.49851556  1
  Ir  Ir117  1  -0.00667270  0.66644198  0.74990133  1
  Ir  Ir118  1  0.00004290  -0.00745901  0.24777512  1
  Ir  Ir119  1  0.67103810  0.33954378  0.50091243  1
  Ir  Ir120  1  0.83303767  0.49974515  0.50263735  1
  Ir  Ir121  1  0.49789775  0.83183723  0.25152519  1
  Ir  Ir122  1  0.00033426  0.66724009  -0.00272057  1
  Ir  Ir123  1  0.50021770  0.17098600  0.24801212  1
  Ir  Ir124  1  0.66572698  -0.00021398  0.75358592  1
  Ir  Ir125  1  0.16186642  0.83330224  0.74973069  1
  Ir  Ir126  1  0.50874069  0.49823324  0.75426262  1
  Ir  Ir127  1  0.49963188  0.50351051  0.00130457  1
  Ir  Ir128  1  0.33120893  -0.00335622  0.75168441  1
  Ir  Ir129  1  0.00064000  -0.00508281  0.75158984  1
  Ir  Ir130  1  0.50068219  0.16727299  0.00617232  1
  Ir  Ir131  1  0.66824574  0.34014359  0.25056229  1
  Ir  Ir132  1  0.33316901  0.33788206  0.24971134  1
  Ir  Ir133  1  0.49594835  0.50416056  0.24836819  1
  Ir  Ir134  1  0.16213342  0.82911398  0.50045988  1
  Ir  Ir135  1  0.17152784  0.50174153  0.24674424  1
  Ir  Ir136  1  0.67275884  0.66436450  0.49847895  1
  Ir  Ir137  1  0.67006920  0.34009246  0.74702863  1
  Ir  Ir138  1  0.83114202  0.83567807  -0.00165371  1
  Ir  Ir139  1  0.33189321  0.66665053  0.00401435  1
  Ir  Ir140  1  0.16840820  0.82733146  0.25120082  1
  Ir  Ir141  1  0.50289510  0.16986259  0.49619787  1
  Ir  Ir142  1  0.83092698  0.82897144  0.50316200  1
  Ir  Ir143  1  -0.00850589  0.66537300  0.50305556  1
  O  O144  1  0.30479894  0.32852062  0.13037998  1
  O  O145  1  0.32235949  0.33387861  0.61747027  1
  O  O146  1  0.29895651  0.66065730  0.12634501  1
  O  O147  1  0.31787434  0.65333543  0.62449600  1
  O  O148  1  0.31943104  0.97921148  0.12557879  1
  O  O149  1  0.29738865  0.99568187  0.63375270  1
  O  O150  1  0.64833119  0.34042639  0.12512343  1
  O  O151  1  0.64478953  0.33131140  0.62360229  1
  O  O152  1  0.65657194  0.66502461  0.12472024  1
  O  O153  1  0.64487491  0.65156907  0.61692937  1
  O  O154  1  0.63425033  0.99390387  0.11735567  1
  O  O155  1  0.64564140  0.98816156  0.63370977  1
  O  O156  1  0.95639892  0.34302840  0.12390266  1
  O  O157  1  0.96682007  0.33508581  0.61837396  1
  O  O158  1  0.97650165  0.65407549  0.11891329  1
  O  O159  1  0.96184441  0.65540208  0.62684756  1
  O  O160  1  0.96851298  0.99402523  0.12434491  1
  O  O161  1  0.98447998  0.98986863  0.63045410  1
  O  O162  1  0.20561544  0.16136463  0.12456252  1
  O  O163  1  0.18017956  0.15140237  0.62654238  1
  O  O164  1  0.20498225  0.49162502  0.13026723  1
  O  O165  1  0.17888420  0.50084946  0.62208397  1
  O  O166  1  0.19477009  0.81945831  0.12613191  1
  O  O167  1  0.18136943  0.84110854  0.62474211  1
  O  O168  1  0.52461477  0.16070019  0.12682007  1
  O  O169  1  0.53063283  0.16805421  0.61766416  1
  O  O170  1  0.51950585  0.50778323  0.12418548  1
  O  O171  1  0.53485550  0.49797822  0.63215089  1
  O  O172  1  0.52251376  0.82776970  0.13320822  1
  O  O173  1  0.53683667  0.82464197  0.62682209  1
  O  O174  1  0.84997950  0.15558706  0.12409851  1
  O  O175  1  0.85312969  0.17762415  0.62514341  1
  O  O176  1  0.86132156  0.49009958  0.13243618  1
  O  O177  1  0.86834438  0.48639930  0.62340259  1
  O  O178  1  0.84881307  0.82683575  0.11828263  1
  O  O179  1  0.86762996  0.81864216  0.62049381  1
  O  O180  1  0.14858771  0.17277816  0.37283995  1
  O  O181  1  0.14284007  0.18114828  0.87831477  1
  O  O182  1  0.13364780  0.50244326  0.36607479  1
  O  O183  1  0.13159124  0.52181633  0.87823480  1
  O  O184  1  0.14396625  0.82608852  0.37573131  1
  O  O185  1  0.14284801  0.81745706  0.87578079  1
  O  O186  1  0.47905800  0.17088686  0.37004219  1
  O  O187  1  0.47448862  0.16231945  0.88640648  1
  O  O188  1  0.47099208  0.50929183  0.36726803  1
  O  O189  1  0.48238824  0.50743185  0.87838313  1
  O  O190  1  0.46723769  0.83505113  0.36760490  1
  O  O191  1  0.48146132  0.85244711  0.87656259  1
  O  O192  1  0.80955901  0.18368631  0.37580368  1
  O  O193  1  0.80944182  0.17533539  0.87452447  1
  O  O194  1  0.80040170  0.50998061  0.38041262  1
  O  O195  1  0.79795527  0.51419542  0.86150139  1
  O  O196  1  0.80222981  0.84449483  0.38409592  1
  O  O197  1  0.80421318  0.83864249  0.87681476  1
  O  O198  1  0.01707166  -0.00899497  0.36730499  1
  O  O199  1  0.01736118  -0.00997638  0.87669325  1
  O  O200  1  0.01601313  0.35069165  0.37734407  1
  O  O201  1  0.04186793  0.35652503  0.87660997  1
  O  O202  1  0.01102772  0.66143290  0.38216593  1
  O  O203  1  0.02712327  0.67071517  0.87248396  1
  O  O204  1  0.34897666  -0.02037462  0.37514249  1
  O  O205  1  0.36626384  0.00302738  0.87161844  1
  O  O206  1  0.35717972  0.34655770  0.37074246  1
  O  O207  1  0.35688182  0.34513761  0.87800275  1
  O  O208  1  0.36274927  0.68176802  0.36474738  1
  O  O209  1  0.36452315  0.66782584  0.88591677  1
  O  O210  1  0.70320880  0.00004958  0.37580600  1
  O  O211  1  0.68959994  0.00366907  0.87521348  1
  O  O212  1  0.70063034  0.34791160  0.37599583  1
  O  O213  1  0.69892885  0.34488512  0.87265559  1
  O  O214  1  0.70594815  0.67488405  0.38343850  1
  O  O215  1  0.70672166  0.68188465  0.86996618  1
  O  O216  1  0.07149650  0.07957101  0.01469974  1
  O  O217  1  0.07339506  0.08508004  0.51767549  1
  O  O218  1  0.06820352  0.43760330  0.03716292  1
  O  O219  1  0.05789391  0.43436166  0.51531038  1
  O  O220  1  0.07355826  0.75430850  0.02212704  1
  O  O221  1  0.06028820  0.76112313  0.52570882  1
  O  O222  1  0.41043282  0.09997945  0.03184622  1
  O  O223  1  0.41470964  0.09786295  0.50972129  1
  O  O224  1  0.40510512  0.43845659  0.02759627  1
  O  O225  1  0.41037000  0.42122111  0.50509024  1
  O  O226  1  0.39427090  0.76287210  0.02595754  1
  O  O227  1  0.40741561  0.75834807  0.50638017  1
  O  O228  1  0.73708882  0.08515803  0.01900089  1
  O  O229  1  0.73030740  0.10269981  0.52958014  1
  O  O230  1  0.74077965  0.42349698  0.01458285  1
  O  O231  1  0.73891044  0.43366459  0.52914969  1
  O  O232  1  0.73897957  0.77118370  0.00681085  1
  O  O233  1  0.73491030  0.76177556  0.52803044  1
  O  O234  1  0.10181450  0.26881810  0.02921618  1
  O  O235  1  0.08178320  0.26793116  0.51422109  1
  O  O236  1  0.09362243  0.60268745  0.02600794  1
  O  O237  1  0.08132183  0.59510534  0.51993482  1
  O  O238  1  0.09403206  0.91820270  0.01789106  1
  O  O239  1  0.09163654  0.91926860  0.52127042  1
  O  O240  1  0.43069177  0.25589823  0.02725171  1
  O  O241  1  0.42946140  0.25895727  0.51064908  1
  O  O242  1  0.42710982  0.59779228  0.02256443  1
  O  O243  1  0.43635064  0.59442206  0.50165986  1
  O  O244  1  0.44158148  0.93830927  0.01785726  1
  O  O245  1  0.42558261  0.92354285  0.52061319  1
  O  O246  1  0.76156783  0.27107292  0.02160703  1
  O  O247  1  0.76117164  0.27271367  0.52439690  1
  O  O248  1  0.76550551  0.59334957  0.00454686  1
  O  O249  1  0.76795517  0.59603848  0.52790884  1
  O  O250  1  0.76573693  0.93334293  0.02240459  1
  O  O251  1  0.76254466  0.91656282  0.52957692  1
  O  O252  1  0.24453997  0.07337851  0.26537141  1
  O  O253  1  0.24991282  0.07148886  0.77749472  1
  O  O254  1  0.24482256  0.41314409  0.27565173  1
  O  O255  1  0.23174421  0.40094173  0.77114279  1
  O  O256  1  0.24024776  0.73622110  0.26894556  1
  O  O257  1  0.23009533  0.74134905  0.76843751  1
  O  O258  1  0.56796214  0.07641272  0.26016062  1
  O  O259  1  0.56997842  0.06401428  0.77425948  1
  O  O260  1  0.57485075  0.41740248  0.27313602  1
  O  O261  1  0.58256742  0.41093234  0.77649144  1
  O  O262  1  0.56195546  0.73724109  0.28026163  1
  O  O263  1  0.57425371  0.73478368  0.78488532  1
  O  O264  1  0.90642995  0.05954896  0.26681665  1
  O  O265  1  0.91323331  0.07043355  0.76239929  1
  O  O266  1  0.89884878  0.40778804  0.27919551  1
  O  O267  1  0.89379533  0.40956784  0.77430766  1
  O  O268  1  0.89944883  0.73057042  0.27164220  1
  O  O269  1  0.89642185  0.72821048  0.76824522  1
  O  O270  1  0.26691649  0.24830187  0.26409846  1
  O  O271  1  0.26446071  0.23629453  0.77933610  1
  O  O272  1  0.26981954  0.56929981  0.27029246  1
  O  O273  1  0.24768719  0.58382728  0.77954609  1
  O  O274  1  0.26437476  0.89008861  0.26375019  1
  O  O275  1  0.25633753  0.90374720  0.77133844  1
  O  O276  1  0.59551234  0.24769282  0.26553618  1
  O  O277  1  0.60309705  0.24577810  0.76012036  1
  O  O278  1  0.58728322  0.57405766  0.27982169  1
  O  O279  1  0.60274971  0.56551366  0.77649530  1
  O  O280  1  0.59387816  0.89446921  0.27736872  1
  O  O281  1  0.60352245  0.90455174  0.77457471  1
  O  O282  1  0.92398535  0.24375454  0.27072449  1
  O  O283  1  0.91945300  0.25190183  0.77777299  1
  O  O284  1  0.92853391  0.56190357  0.27713071  1
  O  O285  1  0.92585540  0.56984648  0.77628094  1
  O  O286  1  0.92764203  0.90534653  0.26753698  1
  O  O287  1  0.93064941  0.90440747  0.75697641  1
  O  O288  1  0.26086100  0.24873157  0.48843413  1
  O  O289  1  0.27155769  0.23530929  0.97477579  1
  O  O290  1  0.26324794  0.56889398  0.46524725  1
  O  O291  1  0.26682295  0.57399754  0.99105972  1
  O  O292  1  0.25393550  0.89454100  0.48099512  1
  O  O293  1  0.25730428  0.89456341  0.99161347  1
  O  O294  1  0.60372018  0.24352647  0.48616608  1
  O  O295  1  0.59369011  0.24241880  0.98586735  1
  O  O296  1  0.60979726  0.57043971  0.47200470  1
  O  O297  1  0.59210060  0.57163879  0.97044455  1
  O  O298  1  0.60273785  0.90014995  0.48082840  1
  O  O299  1  0.60362626  0.90491684  0.97410439  1
  O  O300  1  0.92338146  0.25144932  0.47553349  1
  O  O301  1  0.92308614  0.24705017  0.97506882  1
  O  O302  1  0.92612312  0.56722845  0.47558399  1
  O  O303  1  0.93454162  0.57538676  0.97218352  1
  O  O304  1  0.91923480  0.89976705  0.48454318  1
  O  O305  1  0.92479410  0.90155927  0.98660802  1
  O  O306  1  0.23963320  0.06939102  0.49164153  1
  O  O307  1  0.25027328  0.07524049  0.97178320  1
  O  O308  1  0.25061093  0.40833607  0.48014466  1
  O  O309  1  0.22624454  0.39778430  0.98440409  1
  O  O310  1  0.23564762  0.74253440  0.48340988  1
  O  O311  1  0.23053969  0.72606370  0.98275829  1
  O  O312  1  0.57135635  0.08098091  0.48261435  1
  O  O313  1  0.56688892  0.06364455  0.98200947  1
  O  O314  1  0.58630570  0.41322909  0.47260649  1
  O  O315  1  0.57656783  0.41373390  0.97846442  1
  O  O316  1  0.58051510  0.73007007  0.46668578  1
  O  O317  1  0.57011030  0.73706285  0.97059243  1
  O  O318  1  0.89651599  0.06486513  0.47328741  1
  O  O319  1  0.91018627  0.06569922  0.99140925  1
  O  O320  1  0.89715266  0.40630937  0.47319813  1
  O  O321  1  0.90771752  0.41228387  0.95782247  1
  O  O322  1  0.89189840  0.72956950  0.48044798  1
  O  O323  1  0.89879103  0.73525443  0.97433552  1
  O  O324  1  0.09757831  0.26684523  0.22158067  1
  O  O325  1  0.09422603  0.26236570  0.73271605  1
  O  O326  1  0.09847574  0.58903062  0.21757401  1
  O  O327  1  0.08256213  0.60031870  0.73051267  1
  O  O328  1  0.09611646  0.91977758  0.23060510  1
  O  O329  1  0.09308957  0.92517857  0.72463332  1
  O  O330  1  0.42284394  0.26239579  0.22445022  1
  O  O331  1  0.42735444  0.25312883  0.73834820  1
  O  O332  1  0.42254341  0.59685418  0.22602710  1
  O  O333  1  0.43900903  0.58817462  0.74678407  1
  O  O334  1  0.43884675  0.92706679  0.22392231  1
  O  O335  1  0.41896031  0.92714081  0.73282183  1
  O  O336  1  0.76289001  0.27476190  0.23243871  1
  O  O337  1  0.75967777  0.27253752  0.72433501  1
  O  O338  1  0.76610860  0.59073295  0.24376455  1
  O  O339  1  0.76800899  0.59301097  0.71475139  1
  O  O340  1  0.76937325  0.93342504  0.22819498  1
  O  O341  1  0.75551988  0.92952851  0.73297420  1
  O  O342  1  0.06839481  0.08238881  0.23121543  1
  O  O343  1  0.07659918  0.07822350  0.73666254  1
  O  O344  1  0.07729484  0.43441064  0.22172316  1
  O  O345  1  0.05393252  0.44477520  0.73141508  1
  O  O346  1  0.08059845  0.75219871  0.23159000  1
  O  O347  1  0.06274245  0.76441151  0.72524047  1
  O  O348  1  0.41097523  0.09981914  0.22390638  1
  O  O349  1  0.40252541  0.08497248  0.73497473  1
  O  O350  1  0.39951498  0.43678418  0.22781474  1
  O  O351  1  0.41779207  0.43037025  0.73478228  1
  O  O352  1  0.39718047  0.76842811  0.22669195  1
  O  O353  1  0.40840835  0.75451495  0.73813393  1
  O  O354  1  0.74216873  0.08991064  0.22910658  1
  O  O355  1  0.72628204  0.09732226  0.72817633  1
  O  O356  1  0.73780479  0.43211387  0.23264419  1
  O  O357  1  0.73906885  0.43450246  0.71733429  1
  O  O358  1  0.72830703  0.76801261  0.25107227  1
  O  O359  1  0.73731273  0.76384594  0.71385498  1
