# generated using pymatgen
data_BaLaInIrO6
_symmetry_space_group_name_H-M   'P 1'
_cell_length_a   17.52298216
_cell_length_b   17.55674789
_cell_length_c   16.50496236
_cell_angle_alpha   90.04050427
_cell_angle_beta   89.99683172
_cell_angle_gamma   89.97990964
_symmetry_Int_Tables_number   1
_chemical_formula_structural   BaLaInIrO6
_chemical_formula_sum   'Ba36 La36 In36 Ir36 O216'
_cell_volume   5077.69363424
_cell_formula_units_Z   36
loop_
 _symmetry_equiv_pos_site_id
 _symmetry_equiv_pos_as_xyz
  1  'x, y, z'
loop_
 _atom_site_type_symbol
 _atom_site_label
 _atom_site_symmetry_multiplicity
 _atom_site_fract_x
 _atom_site_fract_y
 _atom_site_fract_z
 _atom_site_occupancy
  Ba  Ba0  1  0.66187490  0.15462366  0.38447655  1
  Ba  Ba1  1  0.00109502  0.49521453  0.87413444  1
  Ba  Ba2  1  0.50399318  0.33605014  0.12552473  1
  Ba  Ba3  1  0.16535253  0.65525596  0.37539788  1
  Ba  Ba4  1  0.33040447  0.49737693  0.87468959  1
  Ba  Ba5  1  0.16358433  0.67860818  0.12129816  1
  Ba  Ba6  1  0.49731146  0.67731458  0.12963544  1
  Ba  Ba7  1  0.65996712  0.82412308  0.37282994  1
  Ba  Ba8  1  1.00223311  0.83940270  0.62893775  1
  Ba  Ba9  1  0.50396800  0.98587227  0.87466038  1
  Ba  Ba10  1  0.83166393  0.99636938  0.87574311  1
  Ba  Ba11  1  0.99971024  0.84065187  0.12776991  1
  Ba  Ba12  1  1.00283892  0.17757485  0.62492933  1
  Ba  Ba13  1  0.66364351  0.15809468  0.87470780  1
  Ba  Ba14  1  0.17014079  0.65985776  0.86840873  1
  Ba  Ba15  1  0.50048263  0.66081621  0.87757415  1
  Ba  Ba16  1  0.66586177  0.50792936  0.62288450  1
  Ba  Ba17  1  0.33510847  0.82597102  0.87598935  1
  Ba  Ba18  1  0.66009156  0.82433992  0.87470172  1
  Ba  Ba19  1  0.16644775  0.00838302  0.62680027  1
  Ba  Ba20  1  0.66846781  0.17414244  0.62974469  1
  Ba  Ba21  1  0.83424035  0.67843780  0.12394169  1
  Ba  Ba22  1  0.83406413  0.66316618  0.87634251  1
  Ba  Ba23  1  0.83428637  0.65906153  0.36666419  1
  Ba  Ba24  1  0.66871380  0.84209266  0.12241541  1
  Ba  Ba25  1  0.16768767  0.00559820  0.12569911  1
  Ba  Ba26  1  0.49776571  0.00821577  0.12653747  1
  Ba  Ba27  1  0.50089204  0.98939247  0.37438040  1
  Ba  Ba28  1  0.50186746  0.32117706  0.37798492  1
  Ba  Ba29  1  0.66603886  0.49057368  0.37105215  1
  Ba  Ba30  1  0.49944379  0.67604792  0.62284464  1
  Ba  Ba31  1  1.00075416  0.17199834  0.12324583  1
  Ba  Ba32  1  0.50439729  0.34083201  0.62670093  1
  Ba  Ba33  1  0.33667834  0.17724649  0.12519709  1
  Ba  Ba34  1  0.17151038  0.67380182  0.62347422  1
  Ba  Ba35  1  0.34086588  0.51448046  0.62259873  1
  La  La36  1  0.83126775  0.98401128  0.38125684  1
  La  La37  1  0.83733798  0.31412904  0.37667128  1
  La  La38  1  0.66766368  0.84865087  0.62440995  1
  La  La39  1  0.83885132  0.31641152  0.87367039  1
  La  La40  1  -0.00224729  0.81832740  0.87904095  1
  La  La41  1  -0.00326270  0.82055525  0.37643134  1
  La  La42  1  0.49761855  0.00923610  0.62530563  1
  La  La43  1  1.00317065  0.51222319  0.62182239  1
  La  La44  1  0.33169530  0.81910898  0.37401736  1
  La  La45  1  0.33887615  0.83861178  0.63092452  1
  La  La46  1  0.33191223  0.14896363  0.37095179  1
  La  La47  1  0.33017847  0.14962970  0.87238634  1
  La  La48  1  0.33291129  0.48749551  0.37557753  1
  La  La49  1  0.82558127  0.35062444  0.62856881  1
  La  La50  1  0.33960992  0.84598265  0.12808050  1
  La  La51  1  0.16801992  0.98486566  0.87639142  1
  La  La52  1  0.17017681  0.31884004  0.87251412  1
  La  La53  1  0.66105805  0.16779584  0.14066188  1
  La  La54  1  0.66048264  0.49272307  0.87566587  1
  La  La55  1  0.50008912  0.32432475  0.87426001  1
  La  La56  1  0.82510050  0.34910559  0.12420046  1
  La  La57  1  -0.00921255  0.48342225  0.37022296  1
  La  La58  1  0.82941908  0.00892394  0.13195711  1
  La  La59  1  0.34043730  0.17896490  0.62295628  1
  La  La60  1  0.67261178  0.51822550  0.12528844  1
  La  La61  1  0.17053720  0.98253532  0.37500190  1
  La  La62  1  0.16575326  0.35226775  0.62386427  1
  La  La63  1  0.82359495  0.68267962  0.62570955  1
  La  La64  1  1.00149338  0.51571011  0.12196356  1
  La  La65  1  -0.00116101  0.15244985  0.87542580  1
  La  La66  1  0.50506513  0.65260287  0.37654469  1
  La  La67  1  0.83021870  0.01577127  0.62598147  1
  La  La68  1  0.33377554  0.51585537  0.12326894  1
  La  La69  1  -0.00336358  0.14448105  0.37601404  1
  La  La70  1  0.16799091  0.31994958  0.37324826  1
  La  La71  1  0.16348667  0.34829008  0.12463935  1
  In  In72  1  0.33148329  0.00047039  -0.00005562  1
  In  In73  1  0.66754420  0.66765120  -0.00136502  1
  In  In74  1  -0.00249483  0.66570727  0.74715897  1
  In  In75  1  0.16716598  0.16803791  -0.00043736  1
  In  In76  1  0.66729696  0.66910024  0.49883303  1
  In  In77  1  0.83630644  0.50097229  0.49851172  1
  In  In78  1  0.16833688  0.83393898  0.74699505  1
  In  In79  1  0.66972281  0.33122064  0.49943927  1
  In  In80  1  0.66900978  0.33272691  -0.00136901  1
  In  In81  1  0.66473574  0.00075238  0.25552741  1
  In  In82  1  0.66821229  0.33359000  0.75341102  1
  In  In83  1  0.49759794  0.16838497  -0.00138881  1
  In  In84  1  0.16653859  0.16672367  0.50017716  1
  In  In85  1  0.33285600  0.66882370  0.00097659  1
  In  In86  1  0.50047624  0.49694695  0.00222486  1
  In  In87  1  -0.00114247  0.66540452  0.50045997  1
  In  In88  1  0.83254568  0.83971781  -0.00092885  1
  In  In89  1  0.83314737  0.83558706  0.25133113  1
  In  In90  1  0.33187206  -0.00376942  0.50153905  1
  In  In91  1  -0.00003438  0.33454549  -0.00065148  1
  In  In92  1  0.66559215  0.00200874  0.75132311  1
  In  In93  1  0.00319968  0.66461763  0.25055647  1
  In  In94  1  0.49898301  0.49844170  0.49879570  1
  In  In95  1  0.83345111  0.83930814  0.75027683  1
  In  In96  1  0.00128896  0.33523997  0.74822837  1
  In  In97  1  0.00084484  0.33163861  0.49968613  1
  In  In98  1  0.16648235  0.49743339  -0.00319529  1
  In  In99  1  -0.00132849  -0.00135733  0.00204841  1
  In  In100  1  0.83275343  0.16744893  0.00413125  1
  In  In101  1  0.33028846  0.66497084  0.25268010  1
  In  In102  1  -0.00129050  0.33049775  0.24645651  1
  In  In103  1  0.49919338  0.49443548  0.24611696  1
  In  In104  1  0.00079798  -0.00369149  0.50414388  1
  In  In105  1  0.16515904  0.16658596  0.24975674  1
  In  In106  1  0.33150472  0.33428693  0.75086452  1
  In  In107  1  0.33097501  0.33051657  0.49724339  1
  Ir  Ir108  1  0.84033454  0.16634526  0.74804015  1
  Ir  Ir109  1  0.66460671  0.66571761  0.25075668  1
  Ir  Ir110  1  0.33325908  -0.00162172  0.25464821  1
  Ir  Ir111  1  0.83206438  0.50114453  0.75451439  1
  Ir  Ir112  1  0.49935406  0.50169900  0.75235897  1
  Ir  Ir113  1  0.33667840  0.66695874  0.74644255  1
  Ir  Ir114  1  0.83187757  0.83592116  0.50177819  1
  Ir  Ir115  1  0.16542248  0.49464894  0.25285434  1
  Ir  Ir116  1  0.83190461  0.49497527  0.24674008  1
  Ir  Ir117  1  0.49864167  0.83477267  0.50052227  1
  Ir  Ir118  1  0.33291609  -0.00114594  0.74874428  1
  Ir  Ir119  1  0.32924395  0.33271743  0.24773205  1
  Ir  Ir120  1  0.66365204  0.00627251  0.00449793  1
  Ir  Ir121  1  0.66565524  -0.00164579  0.50520379  1
  Ir  Ir122  1  0.50259631  0.83050030  0.74672102  1
  Ir  Ir123  1  0.83501527  0.16396854  0.25718995  1
  Ir  Ir124  1  0.33124735  0.33321938  -0.00113555  1
  Ir  Ir125  1  0.16985801  0.83182923  0.49575815  1
  Ir  Ir126  1  0.66629616  0.66593718  0.74715868  1
  Ir  Ir127  1  0.16693987  0.49997799  0.74136063  1
  Ir  Ir128  1  0.67256348  0.32785760  0.24921769  1
  Ir  Ir129  1  0.83237083  0.49993042  -0.00050619  1
  Ir  Ir130  1  0.49714560  0.16941047  0.25523211  1
  Ir  Ir131  1  0.50001284  0.83589641  0.00462444  1
  Ir  Ir132  1  0.16908454  0.16610282  0.74981390  1
  Ir  Ir133  1  0.49364321  0.16570367  0.74656712  1
  Ir  Ir134  1  0.16509715  0.83355836  0.00194518  1
  Ir  Ir135  1  0.00054494  0.66563406  -0.00052458  1
  Ir  Ir136  1  0.16748022  0.83700929  0.25230050  1
  Ir  Ir137  1  0.49524578  0.83406894  0.25193806  1
  Ir  Ir138  1  0.83500924  0.16239648  0.49920618  1
  Ir  Ir139  1  -0.00051361  -0.00151237  0.25724338  1
  Ir  Ir140  1  0.16518307  0.50014143  0.49634343  1
  Ir  Ir141  1  0.49791337  0.16219595  0.50398741  1
  Ir  Ir142  1  0.33531371  0.67249942  0.49763105  1
  Ir  Ir143  1  0.00355186  0.00370637  0.75121413  1
  O  O144  1  0.29791848  0.32544202  0.12228614  1
  O  O145  1  0.30027769  0.31877378  0.62427229  1
  O  O146  1  0.31094555  0.66109222  0.12833604  1
  O  O147  1  0.31852724  0.67758945  0.62050783  1
  O  O148  1  0.31729356  0.98990275  0.13231345  1
  O  O149  1  0.31340825  0.98151253  0.62911152  1
  O  O150  1  0.65676216  0.31107891  0.12895334  1
  O  O151  1  0.65799878  0.32961293  0.62867125  1
  O  O152  1  0.64819413  0.65821211  0.13084860  1
  O  O153  1  0.65040948  0.66531132  0.62860291  1
  O  O154  1  0.65030966  1.01253560  0.12597645  1
  O  O155  1  0.63558917  0.99390268  0.62367859  1
  O  O156  1  0.95946165  0.32578755  0.12408960  1
  O  O157  1  0.96219920  0.33434208  0.62498996  1
  O  O158  1  0.98648835  0.65773684  0.12238013  1
  O  O159  1  0.96205616  0.65415312  0.62220996  1
  O  O160  1  0.96790804  0.99592941  0.13717187  1
  O  O161  1  0.96996916  0.99567329  0.63136323  1
  O  O162  1  0.18802857  0.15724587  0.12566439  1
  O  O163  1  0.20461797  0.15915267  0.63075319  1
  O  O164  1  0.19866448  0.48760886  0.13421283  1
  O  O165  1  0.19431046  0.49056748  0.61779083  1
  O  O166  1  0.19938718  0.83445619  0.12824414  1
  O  O167  1  0.20084133  0.83415046  0.61590894  1
  O  O168  1  0.52231740  0.16983272  0.13236670  1
  O  O169  1  0.52009204  0.14962475  0.62509204  1
  O  O170  1  0.53861034  0.48868670  0.12582044  1
  O  O171  1  0.51410668  0.50154119  0.63199004  1
  O  O172  1  0.52047206  0.83714034  0.12786212  1
  O  O173  1  0.53065610  0.83107817  0.62315220  1
  O  O174  1  0.85184294  0.15040912  0.13722639  1
  O  O175  1  0.85846366  0.14961229  0.62237228  1
  O  O176  1  0.86408093  0.48609904  0.12173584  1
  O  O177  1  0.86514161  0.48760758  0.63407001  1
  O  O178  1  0.84795828  0.85215516  0.12598777  1
  O  O179  1  0.85290597  0.82475241  0.61973563  1
  O  O180  1  0.12916360  0.18474073  0.37333312  1
  O  O181  1  0.13396401  0.18130419  0.86647856  1
  O  O182  1  0.12960949  0.49947054  0.37487095  1
  O  O183  1  0.15121882  0.50244391  0.86338537  1
  O  O184  1  0.13441440  0.84172733  0.37409847  1
  O  O185  1  0.13820509  0.84133041  0.88091708  1
  O  O186  1  0.46840891  0.16686029  0.38088175  1
  O  O187  1  0.46492784  0.17885734  0.86510054  1
  O  O188  1  0.46942786  0.50901480  0.37033418  1
  O  O189  1  0.48218210  0.50319809  0.87056544  1
  O  O190  1  0.46681899  0.83603970  0.37587360  1
  O  O191  1  0.48254848  0.83146002  0.87655046  1
  O  O192  1  0.80954334  0.17558083  0.37881767  1
  O  O193  1  0.81595904  0.17303840  0.86754550  1
  O  O194  1  0.81455643  0.50488352  0.36554258  1
  O  O195  1  0.79820419  0.50914375  0.87736300  1
  O  O196  1  0.81064841  0.84512798  0.38269737  1
  O  O197  1  0.80918522  0.84153644  0.87359515  1
  O  O198  1  0.03190013  0.00530685  0.37546566  1
  O  O199  1  0.03248318  0.01405310  0.86949791  1
  O  O200  1  0.03325085  0.34752860  0.37204623  1
  O  O201  1  0.03607476  0.34274045  0.87144684  1
  O  O202  1  0.01512758  0.68009867  0.37592281  1
  O  O203  1  0.01639329  0.67181075  0.87801347  1
  O  O204  1  0.35408575  0.00485824  0.37368491  1
  O  O205  1  0.35482973  0.00788174  0.86714112  1
  O  O206  1  0.35156699  0.34917758  0.36556372  1
  O  O207  1  0.36240793  0.34124467  0.87924987  1
  O  O208  1  0.36476304  0.67861483  0.37767878  1
  O  O209  1  0.34817044  0.66606914  0.86847887  1
  O  O210  1  0.69296265  -0.00077666  0.38485143  1
  O  O211  1  0.67872837  0.00012537  0.88152028  1
  O  O212  1  0.70041820  0.33197764  0.36910179  1
  O  O213  1  0.70401257  0.34554977  0.87393960  1
  O  O214  1  0.68374389  0.66774014  0.36967796  1
  O  O215  1  0.68233811  0.66351116  0.86600314  1
  O  O216  1  0.06728661  0.09762494  0.00442159  1
  O  O217  1  0.06760104  0.09652969  0.51067953  1
  O  O218  1  0.07059225  0.43097535  0.03383043  1
  O  O219  1  0.07220792  0.43588828  0.52454768  1
  O  O220  1  0.06761598  0.76400875  0.01011864  1
  O  O221  1  0.07908651  0.76251427  0.51501072  1
  O  O222  1  0.40137227  0.09799522  0.00553935  1
  O  O223  1  0.40344631  0.09536837  0.52242157  1
  O  O224  1  0.39269001  0.42812539  0.02617158  1
  O  O225  1  0.40029191  0.42716410  0.50605196  1
  O  O226  1  0.40537152  0.76910609  0.02518474  1
  O  O227  1  0.39571198  0.77525833  0.51635169  1
  O  O228  1  0.72569275  0.10408626  0.02204646  1
  O  O229  1  0.74117061  0.08885330  0.52711470  1
  O  O230  1  0.73796766  0.43668782  0.02598164  1
  O  O231  1  0.75079198  0.42118740  0.52281690  1
  O  O232  1  0.74416672  0.75741851  0.01289743  1
  O  O233  1  0.73697732  0.77014167  0.52511566  1
  O  O234  1  0.10659958  0.27300466  0.01700589  1
  O  O235  1  0.10451378  0.27203302  0.52476649  1
  O  O236  1  0.08640932  0.59097964  0.01479677  1
  O  O237  1  0.09771091  0.58916583  0.52022233  1
  O  O238  1  0.09795648  0.92437506  0.01509006  1
  O  O239  1  0.10135463  0.92253239  0.51176315  1
  O  O240  1  0.42445674  0.27057692  0.01041545  1
  O  O241  1  0.42637373  0.25079153  0.52353216  1
  O  O242  1  0.42440923  0.58887420  0.02092183  1
  O  O243  1  0.42440349  0.60271945  0.50740740  1
  O  O244  1  0.42399711  0.92118143  0.01677700  1
  O  O245  1  0.43355277  0.92753532  0.52632711  1
  O  O246  1  0.77633502  0.27360472  0.01213937  1
  O  O247  1  0.77567647  0.26023641  0.51864817  1
  O  O248  1  0.76561999  0.58831051  0.02235699  1
  O  O249  1  0.77053555  0.60330954  0.52076045  1
  O  O250  1  0.76019990  0.94557978  0.02437802  1
  O  O251  1  0.76517649  0.93344456  0.52742289  1
  O  O252  1  0.24062061  0.06798080  0.28170689  1
  O  O253  1  0.23712835  0.07043200  0.77917479  1
  O  O254  1  0.23045211  0.39700991  0.27258823  1
  O  O255  1  0.22927266  0.40190408  0.76326036  1
  O  O256  1  0.24033311  0.75016499  0.27540758  1
  O  O257  1  0.25176857  0.74278596  0.75857466  1
  O  O258  1  0.57026859  0.08073742  0.26707252  1
  O  O259  1  0.56818094  0.07835371  0.76251848  1
  O  O260  1  0.58131600  0.39715498  0.26799209  1
  O  O261  1  0.57022541  0.41143424  0.77593254  1
  O  O262  1  0.56544277  0.73559875  0.27615060  1
  O  O263  1  0.57200942  0.73475624  0.76579119  1
  O  O264  1  0.90101119  0.06434805  0.28418151  1
  O  O265  1  0.91325293  0.07566065  0.77162166  1
  O  O266  1  0.89753386  0.40154204  0.27373244  1
  O  O267  1  0.89533649  0.40546592  0.77733436  1
  O  O268  1  0.91491787  0.74811743  0.26424575  1
  O  O269  1  0.91124295  0.74859623  0.76521936  1
  O  O270  1  0.26634787  0.23928936  0.27925762  1
  O  O271  1  0.26007153  0.23207165  0.77825262  1
  O  O272  1  0.25908804  0.55990224  0.27731281  1
  O  O273  1  0.26148209  0.57466457  0.75883105  1
  O  O274  1  0.26384824  0.90475759  0.27727381  1
  O  O275  1  0.25734394  0.91391096  0.77457973  1
  O  O276  1  0.60232584  0.23309559  0.26633375  1
  O  O277  1  0.57775471  0.24578146  0.77130498  1
  O  O278  1  0.58979307  0.58042603  0.26768772  1
  O  O279  1  0.59887557  0.56796891  0.77153604  1
  O  O280  1  0.58696358  0.90527373  0.26340516  1
  O  O281  1  0.59324628  0.90067634  0.75597795  1
  O  O282  1  0.92954468  0.23004220  0.28257431  1
  O  O283  1  0.93130768  0.23558627  0.77513410  1
  O  O284  1  0.93037457  0.56022835  0.26206162  1
  O  O285  1  0.92121797  0.56923289  0.76724039  1
  O  O286  1  0.93394008  0.90884461  0.28590945  1
  O  O287  1  0.93843699  0.91215920  0.77512207  1
  O  O288  1  0.26591937  0.23283099  0.46680658  1
  O  O289  1  0.26919117  0.23784980  0.96647001  1
  O  O290  1  0.26659939  0.56957754  0.47392308  1
  O  O291  1  0.25933609  0.57041758  0.99586781  1
  O  O292  1  0.25942882  0.90086025  0.46730756  1
  O  O293  1  0.25341160  0.90573998  0.98519300  1
  O  O294  1  0.58764316  0.23444393  0.49239679  1
  O  O295  1  0.58612578  0.24587785  0.97368175  1
  O  O296  1  0.58654023  0.58117025  0.47855926  1
  O  O297  1  0.60487898  0.56493220  0.98477798  1
  O  O298  1  0.59957376  0.89901579  0.49218391  1
  O  O299  1  0.59623599  0.90764491  0.99013851  1
  O  O300  1  0.92958075  0.22792763  0.47191464  1
  O  O301  1  0.93362591  0.23556691  0.96824889  1
  O  O302  1  0.94122505  0.55806384  0.47906869  1
  O  O303  1  0.93277396  0.56680685  0.99254411  1
  O  O304  1  0.92622012  0.90217239  0.47548939  1
  O  O305  1  0.93652924  0.90075764  0.97116954  1
  O  O306  1  0.23593924  0.06767380  0.47126639  1
  O  O307  1  0.23620953  0.07112913  0.96623271  1
  O  O308  1  0.22863007  0.40521134  0.47363824  1
  O  O309  1  0.23341523  0.39203432  0.97961224  1
  O  O310  1  0.24302002  0.74373700  0.47262590  1
  O  O311  1  0.23500568  0.74580293  0.98449732  1
  O  O312  1  0.56640951  0.06452750  0.49016551  1
  O  O313  1  0.57231447  0.07192380  0.98574909  1
  O  O314  1  0.57795611  0.40783760  0.48494467  1
  O  O315  1  0.57229758  0.40324282  0.96711244  1
  O  O316  1  0.56191232  0.74094271  0.47560372  1
  O  O317  1  0.57051237  0.74645944  0.99313919  1
  O  O318  1  0.89820162  0.06632282  0.47670931  1
  O  O319  1  0.90093183  0.07076840  0.99322600  1
  O  O320  1  0.90635904  0.40034332  0.46482881  1
  O  O321  1  0.89491537  0.40540713  0.97445687  1
  O  O322  1  0.90136041  0.74594961  0.48084013  1
  O  O323  1  0.91594496  0.74107826  0.98591175  1
  O  O324  1  0.10234586  0.27065848  0.22448728  1
  O  O325  1  0.10798029  0.26341821  0.72355291  1
  O  O326  1  0.09774616  0.58539072  0.22999064  1
  O  O327  1  0.08925556  0.58392654  0.72135792  1
  O  O328  1  0.09646702  0.93273169  0.23869092  1
  O  O329  1  0.09325737  0.93357435  0.73876500  1
  O  O330  1  0.42448723  0.26467989  0.23565847  1
  O  O331  1  0.41894825  0.25038988  0.72268431  1
  O  O332  1  0.41868379  0.58525609  0.22741606  1
  O  O333  1  0.42881261  0.59566783  0.73409236  1
  O  O334  1  0.42234135  0.92349877  0.22737358  1
  O  O335  1  0.42932061  0.92519899  0.72138476  1
  O  O336  1  0.77366412  0.26272803  0.23045524  1
  O  O337  1  0.77520427  0.26134321  0.73147844  1
  O  O338  1  0.75616053  0.58770993  0.22300828  1
  O  O339  1  0.76588338  0.60040952  0.72613839  1
  O  O340  1  0.76906876  0.93982636  0.24438968  1
  O  O341  1  0.75854174  0.92927506  0.71549511  1
  O  O342  1  0.06337818  0.09207300  0.24160563  1
  O  O343  1  0.07516955  0.09811914  0.73083479  1
  O  O344  1  0.07076852  0.43358317  0.22275045  1
  O  O345  1  0.07595088  0.43059070  0.71443959  1
  O  O346  1  0.08012101  0.76496375  0.23795055  1
  O  O347  1  0.07951879  0.75556865  0.73687109  1
  O  O348  1  0.39915423  0.10054839  0.24331126  1
  O  O349  1  0.40313793  0.09094308  0.71813382  1
  O  O350  1  0.39101359  0.42643557  0.22360447  1
  O  O351  1  0.41126799  0.42773386  0.73504081  1
  O  O352  1  0.40034679  0.76992521  0.23383382  1
  O  O353  1  0.40541817  0.76412703  0.72861569  1
  O  O354  1  0.73875487  0.10099161  0.23614846  1
  O  O355  1  0.75169929  0.09072359  0.73228627  1
  O  O356  1  0.73746451  0.42509793  0.21961680  1
  O  O357  1  0.74414856  0.43300652  0.73330620  1
  O  O358  1  0.73963473  0.75285391  0.23752751  1
  O  O359  1  0.73418329  0.75871199  0.72264715  1
