# generated using pymatgen
data_BaLaInIrO6
_symmetry_space_group_name_H-M   'P 1'
_cell_length_a   17.50209251
_cell_length_b   17.53820192
_cell_length_c   16.49622974
_cell_angle_alpha   90.07638611
_cell_angle_beta   90.00153146
_cell_angle_gamma   90.00753232
_symmetry_Int_Tables_number   1
_chemical_formula_structural   BaLaInIrO6
_chemical_formula_sum   'Ba36 La36 In36 Ir36 O216'
_cell_volume   5063.59948728
_cell_formula_units_Z   36
loop_
 _symmetry_equiv_pos_site_id
 _symmetry_equiv_pos_as_xyz
  1  'x, y, z'
loop_
 _atom_site_type_symbol
 _atom_site_label
 _atom_site_symmetry_multiplicity
 _atom_site_fract_x
 _atom_site_fract_y
 _atom_site_fract_z
 _atom_site_occupancy
  Ba  Ba0  1  0.16462709  0.65790442  0.87670627  1
  Ba  Ba1  1  0.49564897  0.67387427  0.62560605  1
  Ba  Ba2  1  0.16780190  0.01058821  0.62338223  1
  Ba  Ba3  1  0.82923228  0.32536362  0.37611532  1
  Ba  Ba4  1  0.16976966  0.99337075  0.37193856  1
  Ba  Ba5  1  0.16607008  0.00945787  0.12655646  1
  Ba  Ba6  1  0.99968213  0.17193485  0.62452855  1
  Ba  Ba7  1  1.00115290  0.50565475  0.12818176  1
  Ba  Ba8  1  -0.00158236  0.82941568  0.37450580  1
  Ba  Ba9  1  0.83311126  0.99537278  0.37429227  1
  Ba  Ba10  1  0.83717175  0.32182412  0.87318500  1
  Ba  Ba11  1  1.00156599  0.17153375  0.12524775  1
  Ba  Ba12  1  0.66772287  0.84296451  0.12460353  1
  Ba  Ba13  1  0.33849173  0.51134695  0.12658148  1
  Ba  Ba14  1  0.83858058  0.98818561  0.87068789  1
  Ba  Ba15  1  0.33626770  0.49002914  0.37677325  1
  Ba  Ba16  1  0.50057991  0.67501208  0.12082744  1
  Ba  Ba17  1  0.33837868  0.16038349  0.37530456  1
  Ba  Ba18  1  0.49611883  0.00313489  0.62356112  1
  Ba  Ba19  1  1.00149491  0.84082257  0.12522076  1
  Ba  Ba20  1  0.33330563  0.51257997  0.62590588  1
  Ba  Ba21  1  0.66336402  0.82593970  0.37419519  1
  Ba  Ba22  1  0.49478868  0.34232931  0.12616037  1
  Ba  Ba23  1  0.33619512  0.17785379  0.12905192  1
  Ba  Ba24  1  0.33240596  0.17233738  0.62712397  1
  Ba  Ba25  1  0.66799486  0.51221559  0.62868115  1
  Ba  Ba26  1  0.83231526  0.00920649  0.62392061  1
  Ba  Ba27  1  0.66857380  0.17983687  0.12208089  1
  Ba  Ba28  1  0.16839497  0.33961106  0.13080600  1
  Ba  Ba29  1  0.33422707  0.84229125  0.62896163  1
  Ba  Ba30  1  0.66441487  0.48855385  0.87604681  1
  Ba  Ba31  1  0.66066746  0.15738006  0.37393418  1
  Ba  Ba32  1  0.83278569  0.34172999  0.62562813  1
  Ba  Ba33  1  0.33269179  0.82850448  0.37509395  1
  Ba  Ba34  1  0.66226999  0.49187989  0.37590905  1
  Ba  Ba35  1  0.16445672  0.99090876  0.87279680  1
  La  La36  1  0.83165301  0.01557737  0.12570806  1
  La  La37  1  0.49475033  0.01422246  0.12915922  1
  La  La38  1  0.66657540  0.14787444  0.87348990  1
  La  La39  1  0.17206932  0.31985131  0.37387268  1
  La  La40  1  0.66774607  0.84818568  0.62574319  1
  La  La41  1  0.00342869  0.14879891  0.87103650  1
  La  La42  1  0.67652030  0.18148510  0.62525589  1
  La  La43  1  0.17537011  0.65609132  0.36885635  1
  La  La44  1  0.33733242  0.84516199  0.12301960  1
  La  La45  1  0.82655498  0.68346100  0.62768031  1
  La  La46  1  0.32965443  0.48364442  0.87425272  1
  La  La47  1  -0.00295254  0.15151220  0.37255869  1
  La  La48  1  0.49268740  0.34267729  0.62001382  1
  La  La49  1  0.66884571  0.51368099  0.12765180  1
  La  La50  1  0.82756795  0.68171424  0.12533591  1
  La  La51  1  0.50109889  0.98200577  0.37346457  1
  La  La52  1  0.16862132  0.31704289  0.87530650  1
  La  La53  1  0.32907856  0.14819378  0.87212913  1
  La  La54  1  0.16748145  0.67830893  0.12473164  1
  La  La55  1  0.49950167  0.31799205  0.87699421  1
  La  La56  1  0.83439416  0.65993932  0.37167045  1
  La  La57  1  1.00482678  0.51754841  0.62819236  1
  La  La58  1  0.49971006  0.65365853  0.37042941  1
  La  La59  1  0.50634615  0.31762430  0.37162980  1
  La  La60  1  -0.00188365  0.48280465  0.87800600  1
  La  La61  1  0.16100743  0.68451417  0.62802616  1
  La  La62  1  0.32839758  0.81792132  0.87141021  1
  La  La63  1  0.50552111  0.98216142  0.87318955  1
  La  La64  1  0.16021796  0.34963372  0.62501216  1
  La  La65  1  1.00405937  0.85311909  0.62651161  1
  La  La66  1  -0.00358466  0.81977756  0.87314751  1
  La  La67  1  0.66504533  0.81876345  0.87279449  1
  La  La68  1  0.84095015  0.65134255  0.87591496  1
  La  La69  1  0.82694459  0.35094057  0.12021930  1
  La  La70  1  0.49905143  0.65220999  0.87366417  1
  La  La71  1  -0.00425864  0.48708446  0.37667749  1
  In  In72  1  -0.00128528  0.33166911  0.25276591  1
  In  In73  1  0.00106822  0.66854909  0.50003538  1
  In  In74  1  -0.00196558  -0.00272803  0.00182428  1
  In  In75  1  0.83467181  0.16524705  0.75334705  1
  In  In76  1  0.16442234  0.83305276  0.49800247  1
  In  In77  1  0.66726704  -0.00465470  -0.00018542  1
  In  In78  1  0.66479344  -0.00014992  0.49949067  1
  In  In79  1  0.49969037  0.49723832  -0.00095816  1
  In  In80  1  0.33292739  0.33170047  -0.00086920  1
  In  In81  1  0.50179133  0.16244428  0.50311747  1
  In  In82  1  0.83237633  0.50250174  0.25289665  1
  In  In83  1  0.83584611  0.50354900  0.50332407  1
  In  In84  1  0.66741123  0.66715925  -0.00413378  1
  In  In85  1  0.50017842  0.82799766  0.50130656  1
  In  In86  1  0.16789453  0.83437860  -0.00083383  1
  In  In87  1  0.66312411  0.33611576  0.50194666  1
  In  In88  1  0.33021796  0.66740063  0.49956928  1
  In  In89  1  0.49932924  0.49870366  0.50020020  1
  In  In90  1  0.83081014  0.17101593  0.24917571  1
  In  In91  1  0.16709976  0.50021794  0.00038782  1
  In  In92  1  0.49837232  0.49762138  0.75165993  1
  In  In93  1  0.16496857  0.50220795  0.49937466  1
  In  In94  1  0.83132575  0.83609604  0.24872451  1
  In  In95  1  0.00070319  0.33038549  0.00137679  1
  In  In96  1  0.50040737  0.16456751  -0.00433029  1
  In  In97  1  0.83327966  0.83385044  0.50109979  1
  In  In98  1  0.66657135  0.66877884  0.50072282  1
  In  In99  1  0.83372529  0.49949344  0.75128015  1
  In  In100  1  0.00255574  0.66608917  0.25232302  1
  In  In101  1  0.00334932  0.33171049  0.74923608  1
  In  In102  1  -0.00092099  0.66443104  0.00426253  1
  In  In103  1  0.50103990  0.16428440  0.74912398  1
  In  In104  1  0.83315283  0.16897648  0.49970524  1
  In  In105  1  0.16916627  0.16480717  0.00047986  1
  In  In106  1  0.33380431  0.00050458  0.24749402  1
  In  In107  1  0.33423371  0.00074833  0.49956173  1
  Ir  Ir108  1  0.32990891  0.66824861  0.75575467  1
  Ir  Ir109  1  0.83220391  0.16587490  -0.00110692  1
  Ir  Ir110  1  0.66228583  0.33753070  0.24174742  1
  Ir  Ir111  1  0.83147585  0.83222910  -0.00398818  1
  Ir  Ir112  1  0.16677313  0.16883310  0.25472518  1
  Ir  Ir113  1  0.00312925  0.00282618  0.49959998  1
  Ir  Ir114  1  0.32833953  0.33073133  0.50271519  1
  Ir  Ir115  1  0.33002852  0.33344625  0.74657590  1
  Ir  Ir116  1  0.66603830  -0.00543296  0.75409384  1
  Ir  Ir117  1  0.66591057  0.66659075  0.24687922  1
  Ir  Ir118  1  -0.00177592  0.66846708  0.75214850  1
  Ir  Ir119  1  0.50166572  0.16717594  0.24747519  1
  Ir  Ir120  1  0.49630020  0.83211619  -0.00305595  1
  Ir  Ir121  1  0.16978088  0.83004925  0.24636802  1
  Ir  Ir122  1  0.83187980  0.50044728  -0.00008000  1
  Ir  Ir123  1  0.16994820  0.50207939  0.25051255  1
  Ir  Ir124  1  0.16612218  0.50268951  0.75048833  1
  Ir  Ir125  1  0.16419595  0.83230760  0.75141399  1
  Ir  Ir126  1  0.33530867  0.66882773  -0.00228770  1
  Ir  Ir127  1  0.33556383  0.66798602  0.24474246  1
  Ir  Ir128  1  0.16421653  0.17138468  0.49985093  1
  Ir  Ir129  1  0.33482293  -0.00334909  0.75620445  1
  Ir  Ir130  1  0.50000564  0.83114930  0.24067620  1
  Ir  Ir131  1  0.66211184  0.32949971  0.75877648  1
  Ir  Ir132  1  0.00157836  -0.00041312  0.25136760  1
  Ir  Ir133  1  0.16976750  0.16842157  0.74666605  1
  Ir  Ir134  1  0.83463494  0.83148677  0.75292140  1
  Ir  Ir135  1  0.66882261  0.33244143  -0.00301080  1
  Ir  Ir136  1  0.50152554  0.50051179  0.24839948  1
  Ir  Ir137  1  0.33935573  -0.00463216  -0.00304291  1
  Ir  Ir138  1  0.49920071  0.83057892  0.75878086  1
  Ir  Ir139  1  0.66167450  0.00000484  0.24394121  1
  Ir  Ir140  1  0.00405103  -0.00240791  0.74892349  1
  Ir  Ir141  1  0.66814507  0.67246870  0.75334293  1
  Ir  Ir142  1  0.33517008  0.33508158  0.25736240  1
  Ir  Ir143  1  0.00511518  0.33440818  0.49951552  1
  O  O144  1  0.31846545  0.33350773  0.13465107  1
  O  O145  1  0.29505492  0.32905203  0.62464011  1
  O  O146  1  0.30468512  0.66518424  0.11998391  1
  O  O147  1  0.29866684  0.66606500  0.63661079  1
  O  O148  1  0.31730815  0.98719911  0.11750392  1
  O  O149  1  0.31767085  0.99600131  0.63640332  1
  O  O150  1  0.64539032  0.33947824  0.11685319  1
  O  O151  1  0.63095523  0.32145392  0.63999049  1
  O  O152  1  0.64994806  0.65788812  0.12526349  1
  O  O153  1  0.64512093  0.67164047  0.63711783  1
  O  O154  1  0.63156627  1.00065042  0.12480266  1
  O  O155  1  0.64532097  0.98803296  0.63702758  1
  O  O156  1  0.96494947  0.32872011  0.12556019  1
  O  O157  1  0.98484387  0.32775140  0.61910479  1
  O  O158  1  0.96148157  0.66160293  0.12643765  1
  O  O159  1  0.96496864  0.65583915  0.63480409  1
  O  O160  1  0.97116695  0.99956544  0.13064279  1
  O  O161  1  0.98396960  0.99266302  0.62423213  1
  O  O162  1  0.18511612  0.16771594  0.13267485  1
  O  O163  1  0.18551051  0.16533128  0.62252637  1
  O  O164  1  0.19242454  0.49308544  0.13214132  1
  O  O165  1  0.18827651  0.48877136  0.63201105  1
  O  O166  1  0.20080281  0.82209492  0.12638333  1
  O  O167  1  0.18455612  0.82583780  0.63244971  1
  O  O168  1  0.51820324  0.15532168  0.12569295  1
  O  O169  1  0.53961921  0.16028639  0.62977069  1
  O  O170  1  0.53017248  0.49676478  0.12754848  1
  O  O171  1  0.51734955  0.48187188  0.62901549  1
  O  O172  1  0.52120137  0.82774255  0.11712913  1
  O  O173  1  0.52908714  0.82636460  0.63974726  1
  O  O174  1  0.85028754  0.15736819  0.12006778  1
  O  O175  1  0.84637307  0.16983549  0.62773502  1
  O  O176  1  0.84857840  0.49135937  0.12107154  1
  O  O177  1  0.86783395  0.49904844  0.62916047  1
  O  O178  1  0.85095747  0.81976786  0.11685640  1
  O  O179  1  0.86747321  0.82067109  0.63423642  1
  O  O180  1  0.13549264  0.17897862  0.37926727  1
  O  O181  1  0.14163373  0.17447043  0.86514552  1
  O  O182  1  0.13510619  0.51514039  0.36943251  1
  O  O183  1  0.13422357  0.50725768  0.86713386  1
  O  O184  1  0.14919604  0.83004029  0.36532759  1
  O  O185  1  0.13446980  0.83327444  0.87017685  1
  O  O186  1  0.48846787  0.17918478  0.36782311  1
  O  O187  1  0.46476746  0.17986097  0.87067368  1
  O  O188  1  0.48653698  0.51238272  0.36802091  1
  O  O189  1  0.46788522  0.51095090  0.87295642  1
  O  O190  1  0.48410706  0.84071969  0.35982725  1
  O  O191  1  0.46469887  0.84303453  0.87927033  1
  O  O192  1  0.81181973  0.16296792  0.37376596  1
  O  O193  1  0.80285094  0.16506450  0.87995144  1
  O  O194  1  0.80988541  0.52141022  0.37741750  1
  O  O195  1  0.81117522  0.51326912  0.87978975  1
  O  O196  1  0.81507415  0.83749770  0.37413055  1
  O  O197  1  0.80174549  0.83715532  0.87448282  1
  O  O198  1  0.02303040  0.01112801  0.37630025  1
  O  O199  1  0.01332495  0.00589899  0.86992084  1
  O  O200  1  0.03531158  0.34790157  0.38190987  1
  O  O201  1  0.03307809  0.34460741  0.87344158  1
  O  O202  1  0.04115353  0.67566616  0.37604374  1
  O  O203  1  0.01660368  0.68270967  0.87246623  1
  O  O204  1  0.36370910  -0.00072162  0.36938172  1
  O  O205  1  0.36816512  0.00539225  0.87753084  1
  O  O206  1  0.36430095  0.33169874  0.38138752  1
  O  O207  1  0.36176100  0.34180332  0.86369995  1
  O  O208  1  0.36328631  0.67399180  0.36367590  1
  O  O209  1  0.36454030  0.67991228  0.87720670  1
  O  O210  1  0.68067667  -0.00437118  0.36224651  1
  O  O211  1  0.68923418  -0.00010676  0.87210836  1
  O  O212  1  0.67718424  0.33421081  0.36144748  1
  O  O213  1  0.69149958  0.33407319  0.87816089  1
  O  O214  1  0.69616786  0.66901959  0.36614214  1
  O  O215  1  0.70218356  0.67808152  0.87071573  1
  O  O216  1  0.06997074  0.09587341  0.00135894  1
  O  O217  1  0.07008139  0.10265363  0.50843346  1
  O  O218  1  0.06469179  0.43536067  0.00771144  1
  O  O219  1  0.06767353  0.42989846  0.52687560  1
  O  O220  1  0.07690897  0.75645011  0.01796333  1
  O  O221  1  0.06610843  0.76647058  0.53486754  1
  O  O222  1  0.40757330  0.08437231  0.01832819  1
  O  O223  1  0.40381147  0.09673372  0.51695875  1
  O  O224  1  0.39936620  0.43238083  0.00480344  1
  O  O225  1  0.39908530  0.41698614  0.52329482  1
  O  O226  1  0.39734510  0.76974103  0.01808460  1
  O  O227  1  0.40227966  0.76047966  0.51784088  1
  O  O228  1  0.74000903  0.09641791  0.01393803  1
  O  O229  1  0.73112198  0.09800704  0.52416495  1
  O  O230  1  0.73417061  0.43346745  0.02467044  1
  O  O231  1  0.74012033  0.42775025  0.51757581  1
  O  O232  1  0.73783786  0.76667898  0.01112383  1
  O  O233  1  0.73512872  0.76508471  0.53535248  1
  O  O234  1  0.10336680  0.26596975  0.00655946  1
  O  O235  1  0.10323156  0.27152598  0.51973560  1
  O  O236  1  0.10199841  0.59961636  0.02660575  1
  O  O237  1  0.09555849  0.59702387  0.54120878  1
  O  O238  1  0.09451530  0.92701744  0.01693076  1
  O  O239  1  0.08832961  0.92959901  0.51474875  1
  O  O240  1  0.43290781  0.26345714  0.00780776  1
  O  O241  1  0.42294636  0.26507265  0.52319094  1
  O  O242  1  0.42724791  0.60362213  0.00753939  1
  O  O243  1  0.42340677  0.59054867  0.50858527  1
  O  O244  1  0.43465638  0.92933759  0.02370712  1
  O  O245  1  0.43239974  0.92706789  0.50163873  1
  O  O246  1  0.76971783  0.26819169  0.02085804  1
  O  O247  1  0.75329184  0.25937949  0.52128160  1
  O  O248  1  0.76809234  0.59625798  0.02109789  1
  O  O249  1  0.77078489  0.60700858  0.52556185  1
  O  O250  1  0.77102205  0.92986332  0.02345982  1
  O  O251  1  0.75856428  0.92573314  0.52192280  1
  O  O252  1  0.24221700  0.08245101  0.26388044  1
  O  O253  1  0.24498276  0.07436874  0.77536577  1
  O  O254  1  0.23836002  0.40497862  0.28010734  1
  O  O255  1  0.23318604  0.40497890  0.77662834  1
  O  O256  1  0.23670862  0.73253551  0.26497381  1
  O  O257  1  0.23836183  0.74275728  0.77581836  1
  O  O258  1  0.56303306  0.06531771  0.26491835  1
  O  O259  1  0.57460456  0.06351558  0.78225061  1
  O  O260  1  0.56539335  0.40272339  0.26987441  1
  O  O261  1  0.56825454  0.39603767  0.77873075  1
  O  O262  1  0.56809767  0.73339477  0.26877558  1
  O  O263  1  0.57209486  0.74008687  0.78672859  1
  O  O264  1  0.91389967  0.07248075  0.26369606  1
  O  O265  1  0.91553290  0.07094249  0.76543073  1
  O  O266  1  0.90887707  0.41057871  0.27241068  1
  O  O267  1  0.91564878  0.41327496  0.77573727  1
  O  O268  1  0.90046640  0.73538259  0.26826409  1
  O  O269  1  0.90194355  0.73686301  0.78030766  1
  O  O270  1  0.25637378  0.24694821  0.27902394  1
  O  O271  1  0.26461446  0.23663793  0.77622482  1
  O  O272  1  0.26196666  0.57700075  0.27261385  1
  O  O273  1  0.26411221  0.56954186  0.77819590  1
  O  O274  1  0.25945325  0.90194631  0.25658284  1
  O  O275  1  0.26099779  0.90038390  0.77828444  1
  O  O276  1  0.59188956  0.24380097  0.26289550  1
  O  O277  1  0.59562448  0.23799104  0.78828133  1
  O  O278  1  0.59668171  0.57181502  0.26223512  1
  O  O279  1  0.59270015  0.58427762  0.77439511  1
  O  O280  1  0.58786950  0.90806622  0.26559113  1
  O  O281  1  0.59637119  0.89840154  0.78049940  1
  O  O282  1  0.93209038  0.23372579  0.27695856  1
  O  O283  1  0.93525546  0.23313372  0.77665825  1
  O  O284  1  0.93168443  0.57189804  0.28207428  1
  O  O285  1  0.93432883  0.57634672  0.78219966  1
  O  O286  1  0.92951447  0.91275506  0.26288474  1
  O  O287  1  0.93763028  0.89506584  0.76806215  1
  O  O288  1  0.25500992  0.24211778  0.47645309  1
  O  O289  1  0.26522538  0.23447259  0.96815406  1
  O  O290  1  0.25424213  0.57620709  0.47380104  1
  O  O291  1  0.27259021  0.57272575  0.97444246  1
  O  O292  1  0.25520513  0.91063721  0.48841010  1
  O  O293  1  0.27387101  0.90136950  0.97731380  1
  O  O294  1  0.58904583  0.24168431  0.48492693  1
  O  O295  1  0.60607759  0.23564759  0.97300620  1
  O  O296  1  0.59518889  0.57260021  0.48983734  1
  O  O297  1  0.59068644  0.57624014  0.98101884  1
  O  O298  1  0.59836142  0.89776181  0.49860642  1
  O  O299  1  0.59160390  0.89728720  0.97012662  1
  O  O300  1  0.94125155  0.24071457  0.47405510  1
  O  O301  1  0.92873161  0.22721489  0.97366471  1
  O  O302  1  0.94326720  0.56225181  0.48057450  1
  O  O303  1  0.92664223  0.56657459  0.97283361  1
  O  O304  1  0.93486141  0.91001115  0.49480017  1
  O  O305  1  0.92816699  0.89381420  0.97528293  1
  O  O306  1  0.23396577  0.08227158  0.48319382  1
  O  O307  1  0.25087761  0.06896947  0.97708609  1
  O  O308  1  0.23323166  0.39737284  0.48180771  1
  O  O309  1  0.23747648  0.40461987  0.96636949  1
  O  O310  1  0.22577386  0.72980527  0.48368392  1
  O  O311  1  0.24699777  0.73899750  0.98041385  1
  O  O312  1  0.56323754  0.06050183  0.47012058  1
  O  O313  1  0.57259461  0.06951651  0.96733156  1
  O  O314  1  0.55905775  0.39573827  0.48083587  1
  O  O315  1  0.57080193  0.39424369  0.97388828  1
  O  O316  1  0.56485686  0.72991411  0.46995570  1
  O  O317  1  0.56472421  0.74027907  0.96819504  1
  O  O318  1  0.91616587  0.07571182  0.48426395  1
  O  O319  1  0.89738073  0.07094912  0.98884986  1
  O  O320  1  0.91548110  0.40226767  0.47800310  1
  O  O321  1  0.89885312  0.40861514  0.98343289  1
  O  O322  1  0.89568775  0.72865181  0.48044879  1
  O  O323  1  0.89480673  0.73670909  0.97518606  1
  O  O324  1  0.09742212  0.25856404  0.24374422  1
  O  O325  1  0.11038729  0.26771378  0.73135960  1
  O  O326  1  0.10694175  0.59579224  0.22442410  1
  O  O327  1  0.09615977  0.59906100  0.72381079  1
  O  O328  1  0.09762435  0.92260277  0.23048712  1
  O  O329  1  0.09314790  0.92221489  0.72549140  1
  O  O330  1  0.43180719  0.26409377  0.23989747  1
  O  O331  1  0.42581863  0.26937519  0.72355372  1
  O  O332  1  0.43375603  0.59907201  0.23295860  1
  O  O333  1  0.42122630  0.60020078  0.74029507  1
  O  O334  1  0.43195968  0.92276558  0.21823084  1
  O  O335  1  0.43152301  0.92710863  0.74183342  1
  O  O336  1  0.76015512  0.27397234  0.22159432  1
  O  O337  1  0.74888837  0.25700703  0.73482891  1
  O  O338  1  0.75987593  0.59937736  0.22200533  1
  O  O339  1  0.76447765  0.60621258  0.73290010  1
  O  O340  1  0.75788037  0.93478388  0.22025071  1
  O  O341  1  0.75888487  0.92100365  0.72726564  1
  O  O342  1  0.07424170  0.09671152  0.24008687  1
  O  O343  1  0.07103105  0.09758964  0.73833517  1
  O  O344  1  0.08154240  0.42994562  0.23804979  1
  O  O345  1  0.07392692  0.43625821  0.72464180  1
  O  O346  1  0.08513914  0.75560015  0.22143005  1
  O  O347  1  0.06805890  0.76389129  0.72454414  1
  O  O348  1  0.41543415  0.09207521  0.22873041  1
  O  O349  1  0.40354718  0.08784993  0.74185839  1
  O  O350  1  0.40739945  0.42942197  0.23632544  1
  O  O351  1  0.39705278  0.42343688  0.73065557  1
  O  O352  1  0.40267305  0.76452653  0.21883700  1
  O  O353  1  0.40024971  0.76449852  0.74282210  1
  O  O354  1  0.73834941  0.08535204  0.22426022  1
  O  O355  1  0.72731863  0.09320878  0.73660528  1
  O  O356  1  0.73004224  0.43077259  0.22313498  1
  O  O357  1  0.73471072  0.41964909  0.73731583  1
  O  O358  1  0.73753542  0.75348449  0.22721685  1
  O  O359  1  0.73620834  0.76826466  0.72950936  1
