# generated using pymatgen
data_BaLaInIrO6
_symmetry_space_group_name_H-M   'P 1'
_cell_length_a   17.49786008
_cell_length_b   17.53022018
_cell_length_c   16.49107585
_cell_angle_alpha   90.01367164
_cell_angle_beta   89.99880454
_cell_angle_gamma   90.00909206
_symmetry_Int_Tables_number   1
_chemical_formula_structural   BaLaInIrO6
_chemical_formula_sum   'Ba36 La36 In36 Ir36 O216'
_cell_volume   5058.49449416
_cell_formula_units_Z   36
loop_
 _symmetry_equiv_pos_site_id
 _symmetry_equiv_pos_as_xyz
  1  'x, y, z'
loop_
 _atom_site_type_symbol
 _atom_site_label
 _atom_site_symmetry_multiplicity
 _atom_site_fract_x
 _atom_site_fract_y
 _atom_site_fract_z
 _atom_site_occupancy
  Ba  Ba0  1  0.83316350  0.00870758  0.12889492  1
  Ba  Ba1  1  0.17213288  0.32519286  0.87164017  1
  Ba  Ba2  1  0.33290411  0.49269663  0.87709791  1
  Ba  Ba3  1  0.17263311  0.65733663  0.87881899  1
  Ba  Ba4  1  0.49808673  0.99295803  0.37917072  1
  Ba  Ba5  1  0.66666706  0.50950372  0.12324074  1
  Ba  Ba6  1  0.17195596  0.67184202  0.12866500  1
  Ba  Ba7  1  0.66638232  0.82612897  0.37894873  1
  Ba  Ba8  1  1.00109544  0.51465545  0.62655573  1
  Ba  Ba9  1  0.33036845  0.15730369  0.37558629  1
  Ba  Ba10  1  0.16882080  0.33994023  0.12569291  1
  Ba  Ba11  1  0.32938494  0.49334605  0.37535477  1
  Ba  Ba12  1  -0.00426369  0.82325502  0.37634263  1
  Ba  Ba13  1  0.83300484  0.33967470  0.12505266  1
  Ba  Ba14  1  0.16402344  0.00699774  0.62327985  1
  Ba  Ba15  1  0.16780837  0.00747343  0.12278382  1
  Ba  Ba16  1  0.33519425  0.82380088  0.87279191  1
  Ba  Ba17  1  0.66598614  0.17578224  0.12260305  1
  Ba  Ba18  1  0.50278219  0.65801999  0.87775960  1
  Ba  Ba19  1  0.49948194  0.34482008  0.62124110  1
  Ba  Ba20  1  0.33621868  0.84021439  0.11964836  1
  Ba  Ba21  1  0.82979846  0.34593684  0.62332859  1
  Ba  Ba22  1  0.83332783  0.67458828  0.62607327  1
  Ba  Ba23  1  0.33132558  0.15642088  0.87224099  1
  Ba  Ba24  1  0.66321299  0.84388514  0.12565446  1
  Ba  Ba25  1  0.66922884  0.49399066  0.37388593  1
  Ba  Ba26  1  0.16359939  0.65898849  0.37873347  1
  Ba  Ba27  1  0.83404653  0.00485698  0.62595394  1
  Ba  Ba28  1  0.67069241  0.51339121  0.62195117  1
  Ba  Ba29  1  -0.00024504  0.15608746  0.37805474  1
  Ba  Ba30  1  0.16901266  0.98909441  0.37684767  1
  Ba  Ba31  1  0.49787367  0.32488775  0.86591129  1
  Ba  Ba32  1  0.33236519  0.50896377  0.62779180  1
  Ba  Ba33  1  0.49858055  0.67561587  0.12666618  1
  Ba  Ba34  1  0.33724810  0.17190971  0.12400351  1
  Ba  Ba35  1  0.66627687  0.82568644  0.87831033  1
  La  La36  1  -0.00885287  0.48613897  0.37714183  1
  La  La37  1  0.50182807  0.98915886  0.87990614  1
  La  La38  1  0.33862502  0.51523975  0.12456645  1
  La  La39  1  0.48901384  0.34896020  0.12093625  1
  La  La40  1  0.67056685  0.18348654  0.62688790  1
  La  La41  1  0.50548574  0.31947899  0.37375237  1
  La  La42  1  1.00692227  0.51492975  0.12405281  1
  La  La43  1  0.33515689  0.18152463  0.62542929  1
  La  La44  1  0.00004421  0.48320288  0.87236218  1
  La  La45  1  0.50374013  0.65540317  0.37589085  1
  La  La46  1  0.17672792  0.98289005  0.87234453  1
  La  La47  1  0.49138625  0.00829245  0.12448160  1
  La  La48  1  0.82469060  0.67880841  0.12682027  1
  La  La49  1  0.32688181  0.82224437  0.37225091  1
  La  La50  1  -0.00317884  0.81490221  0.87069796  1
  La  La51  1  1.00241340  0.84470069  0.62463826  1
  La  La52  1  0.83999144  0.65140051  0.38103789  1
  La  La53  1  1.00737206  0.18543610  0.62048329  1
  La  La54  1  0.49708900  0.68314074  0.62578292  1
  La  La55  1  0.49349392  0.01337852  0.62849744  1
  La  La56  1  0.33306770  0.84424701  0.62582724  1
  La  La57  1  0.83712286  0.64684730  0.87165563  1
  La  La58  1  0.83422891  0.31800806  0.37496360  1
  La  La59  1  0.66369028  0.15259767  0.87254840  1
  La  La60  1  0.83931609  0.98340461  0.37579926  1
  La  La61  1  0.83569235  0.31866929  0.87515368  1
  La  La62  1  0.66332772  0.15815655  0.37780212  1
  La  La63  1  0.66161689  0.48523926  0.87055207  1
  La  La64  1  0.00180478  0.15545900  0.87963097  1
  La  La65  1  0.16686271  0.34765630  0.61878919  1
  La  La66  1  1.01309767  0.84615762  0.12386416  1
  La  La67  1  0.16035324  0.68470409  0.62690153  1
  La  La68  1  1.00877884  0.18090343  0.12793757  1
  La  La69  1  0.16866784  0.31984418  0.37375352  1
  La  La70  1  0.82926595  0.98725977  0.88305903  1
  La  La71  1  0.66900575  0.84354850  0.62745746  1
  In  In72  1  0.16373659  0.49714544  0.25290957  1
  In  In73  1  0.16484051  0.50432090  0.75018046  1
  In  In74  1  0.16670647  0.16566895  0.74763341  1
  In  In75  1  0.50004043  0.49806618  0.25210431  1
  In  In76  1  0.66596884  0.33279409  0.24582349  1
  In  In77  1  0.00059190  0.33366386  0.74888130  1
  In  In78  1  0.33657753  0.66532490  -0.00370034  1
  In  In79  1  0.00142321  0.00062832  0.75300734  1
  In  In80  1  0.83616107  0.49815156  0.24683519  1
  In  In81  1  0.49871089  0.83687787  0.25522371  1
  In  In82  1  0.33405540  0.66809608  0.25334163  1
  In  In83  1  -0.00192638  0.66511047  0.24931796  1
  In  In84  1  0.66615826  0.66836001  0.75109897  1
  In  In85  1  0.66592150  0.00035416  0.50284325  1
  In  In86  1  0.83354453  0.83229648  0.74920475  1
  In  In87  1  -0.00110784  0.00167336  0.25104780  1
  In  In88  1  0.83474966  0.83043917  0.24924160  1
  In  In89  1  0.49806003  0.16633229  0.50020083  1
  In  In90  1  0.33258350  0.33364422  0.74768910  1
  In  In91  1  0.33195397  0.00012544  0.25061409  1
  In  In92  1  0.83532959  0.16136709  0.75150964  1
  In  In93  1  0.66795239  0.33659325  0.49830567  1
  In  In94  1  0.00111137  0.33350150  0.00115811  1
  In  In95  1  0.33282899  0.66661216  0.50383530  1
  In  In96  1  0.66595312  0.00137884  0.00584764  1
  In  In97  1  0.50059142  0.50364216  0.74719054  1
  In  In98  1  0.66806823  0.66840763  0.25314773  1
  In  In99  1  0.83391437  0.16626065  0.00113789  1
  In  In100  1  0.83466332  0.16370305  0.50376936  1
  In  In101  1  0.83333236  0.49720188  -0.00091718  1
  In  In102  1  0.16792251  0.16393918  0.49827679  1
  In  In103  1  0.33370651  0.33302164  0.25159251  1
  In  In104  1  0.83882773  0.83077044  -0.00060723  1
  In  In105  1  0.00350539  -0.00081104  -0.00415274  1
  In  In106  1  0.16590734  0.82968005  -0.00171293  1
  In  In107  1  0.50084178  0.16984348  -0.00339755  1
  Ir  Ir108  1  0.83255613  0.83002211  0.50325402  1
  Ir  Ir109  1  -0.00277760  0.66137969  -0.00575436  1
  Ir  Ir110  1  0.00141411  0.66772138  0.75118910  1
  Ir  Ir111  1  0.16706704  0.83349863  0.50031146  1
  Ir  Ir112  1  0.83456538  0.50354916  0.50236829  1
  Ir  Ir113  1  0.50238464  0.83506940  -0.00300856  1
  Ir  Ir114  1  0.16477045  0.83279124  0.25366918  1
  Ir  Ir115  1  0.33130259  0.33478583  0.00118799  1
  Ir  Ir116  1  0.66460027  0.66897215  0.50053673  1
  Ir  Ir117  1  0.33259610  0.33703752  0.49591007  1
  Ir  Ir118  1  0.83245606  0.16614803  0.25297792  1
  Ir  Ir119  1  0.49928920  0.50331190  0.49962055  1
  Ir  Ir120  1  0.33459890  0.00121295  -0.00606825  1
  Ir  Ir121  1  0.66739556  0.00580852  0.25441155  1
  Ir  Ir122  1  0.16608565  0.49939794  0.00428270  1
  Ir  Ir123  1  0.66053234  0.00063215  0.74798505  1
  Ir  Ir124  1  0.33486943  -0.00257386  0.74794616  1
  Ir  Ir125  1  0.50303223  0.16270953  0.74687495  1
  Ir  Ir126  1  0.16706796  0.83308401  0.74663940  1
  Ir  Ir127  1  0.16100718  0.49982992  0.49922454  1
  Ir  Ir128  1  0.50056643  0.83730429  0.74842020  1
  Ir  Ir129  1  0.66484332  0.33462339  -0.00494959  1
  Ir  Ir130  1  0.49812684  0.83318588  0.50705855  1
  Ir  Ir131  1  0.50434998  0.16625352  0.25054012  1
  Ir  Ir132  1  0.83054112  0.49963016  0.75230865  1
  Ir  Ir133  1  0.33387331  -0.00529815  0.50548220  1
  Ir  Ir134  1  -0.00235507  0.32982580  0.25435510  1
  Ir  Ir135  1  0.67026146  0.66709453  0.00048200  1
  Ir  Ir136  1  0.33137191  0.67213920  0.74604430  1
  Ir  Ir137  1  0.16497411  0.16820120  0.24722615  1
  Ir  Ir138  1  0.67027708  0.33192606  0.75148616  1
  Ir  Ir139  1  -0.00291681  -0.00445361  0.50133230  1
  Ir  Ir140  1  0.50336169  0.49615471  -0.00256578  1
  Ir  Ir141  1  0.00089150  0.66751152  0.50551433  1
  Ir  Ir142  1  -0.00022275  0.33680293  0.49684125  1
  Ir  Ir143  1  0.16604682  0.16804551  0.00205385  1
  O  O144  1  0.31969511  0.33081934  0.12034641  1
  O  O145  1  0.30275117  0.32703398  0.61415542  1
  O  O146  1  0.32451666  0.65725818  0.12328480  1
  O  O147  1  0.30051896  0.67404152  0.62800399  1
  O  O148  1  0.32070314  1.00058222  0.11600455  1
  O  O149  1  0.31183039  0.98441383  0.62704030  1
  O  O150  1  0.62997703  0.33030350  0.11405304  1
  O  O151  1  0.64832834  0.32420309  0.62985181  1
  O  O152  1  0.64891212  0.66435393  0.11818905  1
  O  O153  1  0.63359495  0.66804859  0.61957863  1
  O  O154  1  0.63123399  1.00447213  0.13482303  1
  O  O155  1  0.62904246  0.98567298  0.63041439  1
  O  O156  1  0.97954142  0.31735301  0.13235833  1
  O  O157  1  0.97736155  0.32637248  0.61756366  1
  O  O158  1  0.96324590  0.65225431  0.11301105  1
  O  O159  1  0.98207597  0.67582032  0.62821605  1
  O  O160  1  0.98244144  0.98421191  0.12378212  1
  O  O161  1  0.98285012  0.98458780  0.62161400  1
  O  O162  1  0.18808417  0.16565386  0.12468305  1
  O  O163  1  0.20025396  0.16272663  0.62021418  1
  O  O164  1  0.19771347  0.49526917  0.12257913  1
  O  O165  1  0.18047269  0.48848965  0.61776164  1
  O  O166  1  0.18144505  0.83316470  0.13361220  1
  O  O167  1  0.19653378  0.82593563  0.62290442  1
  O  O168  1  0.51799734  0.14990560  0.12821764  1
  O  O169  1  0.53374294  0.15408278  0.62801572  1
  O  O170  1  0.51908400  0.48664849  0.11759929  1
  O  O171  1  0.52108203  0.50073534  0.61759455  1
  O  O172  1  0.51349506  0.83592069  0.11838478  1
  O  O173  1  0.53272066  0.82449686  0.62755974  1
  O  O174  1  0.86837172  0.16332881  0.13281896  1
  O  O175  1  0.87390298  0.16201682  0.62774748  1
  O  O176  1  0.87128349  0.49436473  0.12139079  1
  O  O177  1  0.85291599  0.50085058  0.62745967  1
  O  O178  1  0.87650728  0.81851836  0.12274239  1
  O  O179  1  0.86383128  0.83151607  0.62164717  1
  O  O180  1  0.14883851  0.17535859  0.37003146  1
  O  O181  1  0.13890310  0.17093731  0.88072408  1
  O  O182  1  0.12891402  0.50356745  0.38185844  1
  O  O183  1  0.13780176  0.50255000  0.88334840  1
  O  O184  1  0.14351595  0.83384793  0.37802287  1
  O  O185  1  0.13627810  0.83912342  0.86735648  1
  O  O186  1  0.47977089  0.17932130  0.36988730  1
  O  O187  1  0.48106015  0.16788188  0.86537789  1
  O  O188  1  0.47800253  0.51369935  0.38232310  1
  O  O189  1  0.48522817  0.49868819  0.87876315  1
  O  O190  1  0.46375527  0.83845698  0.39020149  1
  O  O191  1  0.48032878  0.85055612  0.87107098  1
  O  O192  1  0.80179077  0.17502696  0.37333315  1
  O  O193  1  0.79816382  0.17952547  0.87360779  1
  O  O194  1  0.82031194  0.51131018  0.38219369  1
  O  O195  1  0.80136845  0.50845367  0.87132854  1
  O  O196  1  0.81497404  0.83824400  0.38346797  1
  O  O197  1  0.81401000  0.84804296  0.87270973  1
  O  O198  1  0.01733434  -0.00092061  0.38219222  1
  O  O199  1  0.04515908  0.01935196  0.87335089  1
  O  O200  1  0.03135874  0.34373295  0.37529958  1
  O  O201  1  0.02420021  0.34521150  0.87579753  1
  O  O202  1  0.01487699  0.66503346  0.38607974  1
  O  O203  1  0.02654909  0.67433056  0.87279935  1
  O  O204  1  0.34845996  -0.00496881  0.38462596  1
  O  O205  1  0.36386566  0.00071383  0.86921287  1
  O  O206  1  0.36906527  0.33674398  0.37861346  1
  O  O207  1  0.34479093  0.33428954  0.88078403  1
  O  O208  1  0.36443557  0.68007807  0.38216146  1
  O  O209  1  0.35164280  0.66636588  0.86591706  1
  O  O210  1  0.70163483  0.01330547  0.37438533  1
  O  O211  1  0.69323062  0.01091618  0.86678690  1
  O  O212  1  0.69832060  0.33203366  0.37298595  1
  O  O213  1  0.69924562  0.34297023  0.87329490  1
  O  O214  1  0.70043388  0.67052333  0.38364098  1
  O  O215  1  0.69816389  0.67058329  0.88122754  1
  O  O216  1  0.07023492  0.10511954  0.02274502  1
  O  O217  1  0.06367285  0.09218055  0.52235160  1
  O  O218  1  0.07003421  0.43525521  0.02445117  1
  O  O219  1  0.07161085  0.42493090  0.52152882  1
  O  O220  1  0.05938148  0.75768251  0.01749240  1
  O  O221  1  0.07417212  0.76127302  0.53028783  1
  O  O222  1  0.41049319  0.08571410  0.01159399  1
  O  O223  1  0.40354320  0.08754155  0.53056207  1
  O  O224  1  0.40387655  0.42815507  0.02535434  1
  O  O225  1  0.40731549  0.43092967  0.51902615  1
  O  O226  1  0.41791760  0.75963372  0.00622544  1
  O  O227  1  0.40954727  0.76442840  0.53635560  1
  O  O228  1  0.73925446  0.09526084  0.01193763  1
  O  O229  1  0.73463329  0.09679331  0.53178300  1
  O  O230  1  0.73040746  0.42760140  0.00963085  1
  O  O231  1  0.74444462  0.43237609  0.51409148  1
  O  O232  1  0.74288446  0.75359508  0.02389231  1
  O  O233  1  0.73486974  0.76408236  0.52879638  1
  O  O234  1  0.09502063  0.25527999  0.02185124  1
  O  O235  1  0.09100896  0.26403225  0.51945117  1
  O  O236  1  0.09046323  0.58990731  0.02642119  1
  O  O237  1  0.09832679  0.60001742  0.52772362  1
  O  O238  1  0.09412706  0.92125390  0.01651764  1
  O  O239  1  0.08727834  0.91753591  0.52425340  1
  O  O240  1  0.42833989  0.26847545  0.01830064  1
  O  O241  1  0.41539590  0.25724624  0.52100549  1
  O  O242  1  0.42866959  0.58163247  0.01762169  1
  O  O243  1  0.43528268  0.59939691  0.52352030  1
  O  O244  1  0.43478939  0.93415926  0.01313025  1
  O  O245  1  0.42894592  0.92529801  0.53758953  1
  O  O246  1  0.75818888  0.26969683  0.01097287  1
  O  O247  1  0.75642658  0.25506972  0.52025333  1
  O  O248  1  0.76590600  0.60140942  0.01888778  1
  O  O249  1  0.76375713  0.60004931  0.51652891  1
  O  O250  1  0.76184508  0.92713660  0.01378457  1
  O  O251  1  0.75753338  0.91769101  0.52218575  1
  O  O252  1  0.23725773  0.07818790  0.26288981  1
  O  O253  1  0.23755791  0.06049980  0.77125929  1
  O  O254  1  0.23173628  0.39871306  0.27904349  1
  O  O255  1  0.23406019  0.40508478  0.74915854  1
  O  O256  1  0.23652397  0.74687771  0.27335912  1
  O  O257  1  0.23490254  0.73969260  0.76236207  1
  O  O258  1  0.58131208  0.08136809  0.28278294  1
  O  O259  1  0.56805888  0.06754703  0.77520110  1
  O  O260  1  0.56193208  0.39487755  0.26983895  1
  O  O261  1  0.58387098  0.40631170  0.76695303  1
  O  O262  1  0.56819068  0.73957257  0.27738807  1
  O  O263  1  0.56544318  0.74359320  0.76316752  1
  O  O264  1  0.89723648  0.07382870  0.27843888  1
  O  O265  1  0.89640753  0.05924237  0.78239683  1
  O  O266  1  0.90677683  0.39614623  0.28258405  1
  O  O267  1  0.89579721  0.40610579  0.77561521  1
  O  O268  1  0.89731384  0.72609143  0.27284170  1
  O  O269  1  0.90543576  0.73063867  0.77749598  1
  O  O270  1  0.25465455  0.24016331  0.26650280  1
  O  O271  1  0.26813148  0.23180856  0.75374186  1
  O  O272  1  0.25566061  0.57505387  0.26488213  1
  O  O273  1  0.26304245  0.57966640  0.76342411  1
  O  O274  1  0.25950766  0.90084876  0.27224327  1
  O  O275  1  0.26309642  0.90307256  0.76750366  1
  O  O276  1  0.59564101  0.23392203  0.27571779  1
  O  O277  1  0.60417353  0.22916486  0.76689631  1
  O  O278  1  0.59112408  0.57684555  0.26808195  1
  O  O279  1  0.59868341  0.57071112  0.77252725  1
  O  O280  1  0.59599782  0.91723759  0.27303188  1
  O  O281  1  0.59029511  0.91051138  0.77523339  1
  O  O282  1  0.92252731  0.23863011  0.27863623  1
  O  O283  1  0.93155765  0.23586367  0.78177605  1
  O  O284  1  0.93482725  0.56256606  0.27628608  1
  O  O285  1  0.92994311  0.56858922  0.77816742  1
  O  O286  1  0.91717610  0.91388814  0.27285578  1
  O  O287  1  0.94043374  0.89379953  0.76406427  1
  O  O288  1  0.25702154  0.25256643  0.47444870  1
  O  O289  1  0.26177404  0.23834645  0.98407635  1
  O  O290  1  0.25171365  0.57081084  0.48597573  1
  O  O291  1  0.25710563  0.56772108  0.99000043  1
  O  O292  1  0.26693961  0.89808530  0.48313187  1
  O  O293  1  0.25935251  0.91561452  0.97591070  1
  O  O294  1  0.58992057  0.24358361  0.47565350  1
  O  O295  1  0.60197839  0.23957061  0.97068353  1
  O  O296  1  0.58976725  0.57963364  0.47276877  1
  O  O297  1  0.60021726  0.56622801  0.97422535  1
  O  O298  1  0.58750592  0.90277458  0.48828478  1
  O  O299  1  0.58632062  0.91119309  0.98147846  1
  O  O300  1  0.92571207  0.24989680  0.47672025  1
  O  O301  1  0.93159796  0.23444264  0.97604244  1
  O  O302  1  0.93069374  0.57330530  0.47915294  1
  O  O303  1  0.93333820  0.56919704  0.96572511  1
  O  O304  1  0.92301299  0.90444659  0.48034721  1
  O  O305  1  0.93473313  0.90128818  0.96371593  1
  O  O306  1  0.24598503  0.06782426  0.48548563  1
  O  O307  1  0.23599414  0.06837219  0.97440007  1
  O  O308  1  0.22879121  0.40373992  0.47510021  1
  O  O309  1  0.23716431  0.40722032  0.98206580  1
  O  O310  1  0.24142352  0.74831293  0.48145957  1
  O  O311  1  0.24475508  0.74353096  0.98817781  1
  O  O312  1  0.57654813  0.07776578  0.47929418  1
  O  O313  1  0.57381685  0.07477607  0.97004832  1
  O  O314  1  0.56551469  0.40801920  0.47477429  1
  O  O315  1  0.57343650  0.40372421  0.97354745  1
  O  O316  1  0.56376438  0.73506914  0.48006942  1
  O  O317  1  0.57539887  0.74053957  0.98260231  1
  O  O318  1  0.90346531  0.06275671  0.47684556  1
  O  O319  1  0.90682716  0.07013271  0.96737119  1
  O  O320  1  0.90517284  0.40837774  0.47165866  1
  O  O321  1  0.90165534  0.40091911  0.96903941  1
  O  O322  1  0.90205751  0.73449196  0.48058740  1
  O  O323  1  0.90651461  0.72761420  0.96569319  1
  O  O324  1  0.09013376  0.25847804  0.23144332  1
  O  O325  1  0.09903775  0.26664411  0.71461738  1
  O  O326  1  0.08575303  0.58660489  0.22289739  1
  O  O327  1  0.09885908  0.60737758  0.72700296  1
  O  O328  1  0.09214578  0.91972944  0.23562367  1
  O  O329  1  0.09961975  0.92322689  0.73268244  1
  O  O330  1  0.43925477  0.26107782  0.22783069  1
  O  O331  1  0.42949973  0.24918276  0.72125665  1
  O  O332  1  0.42504839  0.58982514  0.23563366  1
  O  O333  1  0.42732922  0.60731166  0.72464180  1
  O  O334  1  0.43254786  0.93606253  0.22906847  1
  O  O335  1  0.43358815  0.93282328  0.72659857  1
  O  O336  1  0.76434150  0.25504778  0.23275851  1
  O  O337  1  0.75709269  0.25913048  0.73069394  1
  O  O338  1  0.77012273  0.60009166  0.23177116  1
  O  O339  1  0.76661325  0.59459830  0.73994862  1
  O  O340  1  0.75358624  0.93219042  0.23801643  1
  O  O341  1  0.74897573  0.92862329  0.72853715  1
  O  O342  1  0.07011141  0.10068133  0.22816275  1
  O  O343  1  0.06071571  0.10668791  0.72453698  1
  O  O344  1  0.06008824  0.42481127  0.23054955  1
  O  O345  1  0.06300406  0.43801094  0.74328670  1
  O  O346  1  0.06950433  0.76478103  0.22911436  1
  O  O347  1  0.06866585  0.76619972  0.72460880  1
  O  O348  1  0.41606147  0.09355116  0.23749147  1
  O  O349  1  0.40463179  0.09287197  0.71857763  1
  O  O350  1  0.40087374  0.42919545  0.22133555  1
  O  O351  1  0.41141779  0.42368830  0.73624220  1
  O  O352  1  0.39779571  0.77155134  0.24570944  1
  O  O353  1  0.40516976  0.76844038  0.72062452  1
  O  O354  1  0.73871932  0.09827589  0.23312030  1
  O  O355  1  0.72473803  0.09533252  0.72482235  1
  O  O356  1  0.74166361  0.42539853  0.23125808  1
  O  O357  1  0.73397050  0.43270007  0.73723735  1
  O  O358  1  0.74136543  0.76053002  0.22454154  1
  O  O359  1  0.73374991  0.76560153  0.72485109  1
