# generated using pymatgen
data_BaLaInIrO6
_symmetry_space_group_name_H-M   'P 1'
_cell_length_a   17.51203115
_cell_length_b   17.53509301
_cell_length_c   16.47576889
_cell_angle_alpha   89.93663695
_cell_angle_beta   90.02724904
_cell_angle_gamma   89.98692950
_symmetry_Int_Tables_number   1
_chemical_formula_structural   BaLaInIrO6
_chemical_formula_sum   'Ba36 La36 In36 Ir36 O216'
_cell_volume   5059.29449787
_cell_formula_units_Z   36
loop_
 _symmetry_equiv_pos_site_id
 _symmetry_equiv_pos_as_xyz
  1  'x, y, z'
loop_
 _atom_site_type_symbol
 _atom_site_label
 _atom_site_symmetry_multiplicity
 _atom_site_fract_x
 _atom_site_fract_y
 _atom_site_fract_z
 _atom_site_occupancy
  Ba  Ba0  1  0.83633457  0.65411500  0.37502891  1
  Ba  Ba1  1  0.83377154  0.65622323  0.87105923  1
  Ba  Ba2  1  0.66479845  0.50790632  0.12513965  1
  Ba  Ba3  1  0.16680222  0.67955696  0.62277535  1
  Ba  Ba4  1  0.33467460  0.49309427  0.37767308  1
  Ba  Ba5  1  0.16738147  0.98791074  0.87897853  1
  Ba  Ba6  1  0.66687883  0.82030291  0.37497132  1
  Ba  Ba7  1  -0.00118415  0.15868000  0.87621575  1
  Ba  Ba8  1  0.16185824  0.34410028  0.62781782  1
  Ba  Ba9  1  -0.00396463  0.81826335  0.37419159  1
  Ba  Ba10  1  0.33583816  0.17548352  0.12125779  1
  Ba  Ba11  1  0.50301665  0.65760150  0.37942754  1
  Ba  Ba12  1  0.66572683  0.82761304  0.87183701  1
  Ba  Ba13  1  0.49799540  0.99352475  0.87800562  1
  Ba  Ba14  1  0.49732667  0.32554208  0.87761497  1
  Ba  Ba15  1  0.50482941  0.66254264  0.87011533  1
  Ba  Ba16  1  0.83322316  0.67115058  0.12523486  1
  Ba  Ba17  1  0.33188767  0.15480442  0.37163082  1
  Ba  Ba18  1  1.00079967  0.84234557  0.12398558  1
  Ba  Ba19  1  0.66681922  0.15983243  0.87545912  1
  Ba  Ba20  1  0.33670234  0.84154424  0.62212324  1
  Ba  Ba21  1  0.50119819  0.00533395  0.62593204  1
  Ba  Ba22  1  0.16861167  0.66094219  0.37633832  1
  Ba  Ba23  1  0.66574559  0.17018045  0.62546449  1
  Ba  Ba24  1  0.16862466  0.34176420  0.12874681  1
  Ba  Ba25  1  0.82928431  0.33909632  0.62887310  1
  Ba  Ba26  1  1.00335131  0.50770066  0.12647439  1
  Ba  Ba27  1  0.83338137  0.67817906  0.62172993  1
  Ba  Ba28  1  0.83111105  0.00629493  0.62679094  1
  Ba  Ba29  1  0.66681726  0.84171162  0.62534692  1
  Ba  Ba30  1  0.33264388  0.82336895  0.87624931  1
  Ba  Ba31  1  1.00082248  0.84098215  0.62111625  1
  Ba  Ba32  1  0.66560457  0.17417359  0.12588437  1
  Ba  Ba33  1  -0.00223070  0.82844847  0.87511407  1
  Ba  Ba34  1  0.50284831  0.99182901  0.37003532  1
  Ba  Ba35  1  0.33495327  0.51416852  0.12614064  1
  La  La36  1  0.49614626  0.01063609  0.12300457  1
  La  La37  1  0.00114459  0.49128395  0.37544887  1
  La  La38  1  0.83858543  0.98185119  0.38024775  1
  La  La39  1  1.00055430  0.17999327  0.62300785  1
  La  La40  1  0.49677271  0.34080746  0.62876957  1
  La  La41  1  0.66365075  0.15228621  0.37975341  1
  La  La42  1  0.15850714  0.01565086  0.12218684  1
  La  La43  1  0.32449471  0.14895446  0.87058291  1
  La  La44  1  0.33049171  0.81940769  0.37348420  1
  La  La45  1  0.32898543  0.48793450  0.87894086  1
  La  La46  1  0.17212415  0.31650569  0.88234134  1
  La  La47  1  0.83219964  0.00220238  0.12515043  1
  La  La48  1  0.83206713  0.31718722  0.87519538  1
  La  La49  1  0.17178358  0.98532912  0.37405418  1
  La  La50  1  0.16903284  0.65838133  0.87661553  1
  La  La51  1  0.83315274  0.32192980  0.37149947  1
  La  La52  1  -0.00448001  0.48426916  0.87576518  1
  La  La53  1  0.33205569  0.84592837  0.12778361  1
  La  La54  1  0.33861895  0.17841878  0.62243082  1
  La  La55  1  0.50673835  0.32294921  0.37170600  1
  La  La56  1  -0.00206803  0.15236280  0.37449153  1
  La  La57  1  0.16284978  0.00620611  0.62609165  1
  La  La58  1  0.49643676  0.68539171  0.12753050  1
  La  La59  1  0.17175284  0.32372764  0.37687796  1
  La  La60  1  0.67278071  0.51259107  0.62692440  1
  La  La61  1  0.33830087  0.51685457  0.62501538  1
  La  La62  1  0.84074941  0.98785257  0.87404289  1
  La  La63  1  0.82990465  0.35172212  0.12096345  1
  La  La64  1  1.00254606  0.51916662  0.62445425  1
  La  La65  1  0.66358862  0.48873745  0.87724336  1
  La  La66  1  0.15940669  0.67745642  0.12663943  1
  La  La67  1  1.00833134  0.18340869  0.11920137  1
  La  La68  1  0.49096159  0.35252742  0.12362461  1
  La  La69  1  0.66458259  0.49161852  0.37302943  1
  La  La70  1  0.67008583  0.84291054  0.12381352  1
  La  La71  1  0.49764569  0.68761364  0.62456964  1
  In  In72  1  0.16532512  0.83607070  0.49966212  1
  In  In73  1  0.00092281  0.66447933  -0.00174139  1
  In  In74  1  0.83352244  0.82958450  0.24950332  1
  In  In75  1  0.33287673  0.66494455  0.75456336  1
  In  In76  1  0.33598539  0.33436282  0.25447136  1
  In  In77  1  0.16653565  0.50068970  0.00005876  1
  In  In78  1  0.83264610  0.83060306  -0.00005211  1
  In  In79  1  0.16672336  0.16686861  0.74542385  1
  In  In80  1  0.83427936  0.16435841  0.00711250  1
  In  In81  1  0.66968306  0.33198915  0.24749833  1
  In  In82  1  -0.00360134  0.33382061  0.25091912  1
  In  In83  1  0.49854303  0.16675792  0.50065607  1
  In  In84  1  0.66361079  0.33265649  0.74881040  1
  In  In85  1  0.66737556  0.00300045  0.75437270  1
  In  In86  1  0.32981896  0.33600129  0.74951999  1
  In  In87  1  0.50185361  0.16831337  0.25015405  1
  In  In88  1  0.00009297  0.00238301  0.74729598  1
  In  In89  1  0.66595734  0.66533764  0.00154574  1
  In  In90  1  -0.00080868  0.33649427  0.74840726  1
  In  In91  1  0.33538393  0.66538935  0.49941056  1
  In  In92  1  0.50408523  0.49723400  0.50408715  1
  In  In93  1  0.49983032  0.16905912  -0.00222012  1
  In  In94  1  0.16483580  0.16528814  0.25080169  1
  In  In95  1  0.66843436  -0.00048626  0.24925704  1
  In  In96  1  0.33091008  -0.00183683  0.00202287  1
  In  In97  1  0.16420082  0.83567362  0.24639357  1
  In  In98  1  0.00304480  0.66885271  0.75073630  1
  In  In99  1  0.16668506  0.49740210  0.50385496  1
  In  In100  1  0.83343127  0.49437858  0.50069071  1
  In  In101  1  0.66854633  0.66420394  0.74850034  1
  In  In102  1  0.49860050  0.83620879  0.75221782  1
  In  In103  1  0.83454076  0.16764560  0.49789919  1
  In  In104  1  0.16692412  0.16574597  0.49881373  1
  In  In105  1  0.16676035  0.50063408  0.25314156  1
  In  In106  1  0.49726003  0.50611958  -0.00318089  1
  In  In107  1  0.50106693  0.83777975  0.49451507  1
  Ir  Ir108  1  0.00025283  0.66232954  0.25132842  1
  Ir  Ir109  1  -0.00207933  0.00514709  0.24952142  1
  Ir  Ir110  1  -0.00105393  0.66386561  0.49835522  1
  Ir  Ir111  1  0.83424577  0.16721445  0.75320543  1
  Ir  Ir112  1  0.16861145  0.83667255  0.75196208  1
  Ir  Ir113  1  0.50176613  0.49724644  0.74794879  1
  Ir  Ir114  1  -0.00174543  0.33335996  -0.00256712  1
  Ir  Ir115  1  0.66635048  -0.00240696  0.00409243  1
  Ir  Ir116  1  0.66670579  0.33408920  0.49791914  1
  Ir  Ir117  1  0.50002686  0.83380333  0.00730068  1
  Ir  Ir118  1  0.33498609  0.66949741  0.24512776  1
  Ir  Ir119  1  0.82983612  0.49948803  0.24978707  1
  Ir  Ir120  1  0.00009831  0.33281462  0.49836333  1
  Ir  Ir121  1  0.33301266  0.67041954  0.00328848  1
  Ir  Ir122  1  0.16597825  0.16833279  0.00012666  1
  Ir  Ir123  1  0.49843555  0.83237081  0.24584709  1
  Ir  Ir124  1  0.50071160  0.50239038  0.25143384  1
  Ir  Ir125  1  0.66878139  0.66196101  0.49779466  1
  Ir  Ir126  1  0.83286693  0.49437372  -0.00397311  1
  Ir  Ir127  1  -0.00038817  0.00068704  0.00309135  1
  Ir  Ir128  1  0.83336768  0.83255632  0.50054361  1
  Ir  Ir129  1  0.67193421  0.00087441  0.49738372  1
  Ir  Ir130  1  0.32746176  0.00086887  0.74553276  1
  Ir  Ir131  1  0.83821576  0.16562062  0.25030928  1
  Ir  Ir132  1  0.00035169  0.00342836  0.49527047  1
  Ir  Ir133  1  0.16978249  0.83075185  -0.00011691  1
  Ir  Ir134  1  0.33212810  -0.00481570  0.25115904  1
  Ir  Ir135  1  0.32951273  0.00048164  0.49616270  1
  Ir  Ir136  1  0.33301282  0.33461540  -0.00092040  1
  Ir  Ir137  1  0.66156455  0.66396828  0.25081750  1
  Ir  Ir138  1  0.83366981  0.83537604  0.74764829  1
  Ir  Ir139  1  0.33475779  0.33298539  0.50257502  1
  Ir  Ir140  1  0.66724191  0.33542940  0.00146733  1
  Ir  Ir141  1  0.16487551  0.50085325  0.75296075  1
  Ir  Ir142  1  0.49309752  0.16782914  0.74929226  1
  Ir  Ir143  1  0.83389116  0.49634100  0.75244118  1
  O  O144  1  0.31960490  0.33518735  0.11967688  1
  O  O145  1  0.30849460  0.31961267  0.62111902  1
  O  O146  1  0.30069135  0.67115377  0.12336086  1
  O  O147  1  0.31490304  0.65373596  0.62914879  1
  O  O148  1  0.29868899  0.98864277  0.13186950  1
  O  O149  1  0.29786637  0.99790898  0.61973551  1
  O  O150  1  0.63194698  0.33265752  0.12123230  1
  O  O151  1  0.63548020  0.32562322  0.61827722  1
  O  O152  1  0.63291210  0.66030962  0.13198242  1
  O  O153  1  0.63908930  0.65011682  0.61751798  1
  O  O154  1  0.63211489  0.98987972  0.12237451  1
  O  O155  1  0.65545813  1.00260212  0.61860832  1
  O  O156  1  0.96517067  0.32626070  0.11984683  1
  O  O157  1  0.97596587  0.31971482  0.61820454  1
  O  O158  1  0.98578657  0.66413031  0.13076567  1
  O  O159  1  0.98337364  0.65988720  0.62136188  1
  O  O160  1  0.96792311  0.99920566  0.12740197  1
  O  O161  1  0.98034606  0.99843798  0.61438040  1
  O  O162  1  0.18455835  0.15698354  0.12125841  1
  O  O163  1  0.20240611  0.15372822  0.62063379  1
  O  O164  1  0.18396214  0.49616576  0.12588203  1
  O  O165  1  0.19963260  0.49476358  0.63453281  1
  O  O166  1  0.19507701  0.82092487  0.12102438  1
  O  O167  1  0.18426875  0.84393192  0.63008970  1
  O  O168  1  0.51700305  0.15021067  0.12442061  1
  O  O169  1  0.51454603  0.16722892  0.62873890  1
  O  O170  1  0.51437834  0.49170471  0.12904548  1
  O  O171  1  0.53767988  0.47919381  0.63062086  1
  O  O172  1  0.53211078  0.82781125  0.12724872  1
  O  O173  1  0.51218220  0.83169091  0.62153936  1
  O  O174  1  0.87469597  0.15215393  0.13319513  1
  O  O175  1  0.86245294  0.16546183  0.62867875  1
  O  O176  1  0.85666292  0.48756780  0.12235213  1
  O  O177  1  0.86674099  0.49139082  0.63126941  1
  O  O178  1  0.85266738  0.83963253  0.12563664  1
  O  O179  1  0.85277199  0.83651273  0.62413845  1
  O  O180  1  0.13413108  0.18020426  0.37537388  1
  O  O181  1  0.14927100  0.17522710  0.87849683  1
  O  O182  1  0.13546912  0.50389050  0.37958140  1
  O  O183  1  0.13284565  0.51355811  0.87142394  1
  O  O184  1  0.14515164  0.84930174  0.37164259  1
  O  O185  1  0.14673539  0.83300846  0.87669004  1
  O  O186  1  0.47833524  0.18274743  0.37659810  1
  O  O187  1  0.46172836  0.16881988  0.86990088  1
  O  O188  1  0.48590623  0.50050550  0.37229670  1
  O  O189  1  0.46485846  0.50579338  0.86666013  1
  O  O190  1  0.46703545  0.83489375  0.36546314  1
  O  O191  1  0.48218982  0.83435821  0.88634461  1
  O  O192  1  0.80005525  0.18045668  0.36726573  1
  O  O193  1  0.81667893  0.17606149  0.87616397  1
  O  O194  1  0.80144336  0.49850414  0.37106967  1
  O  O195  1  0.79979786  0.49860488  0.87413286  1
  O  O196  1  0.81707142  0.83896707  0.37829948  1
  O  O197  1  0.81782891  0.84601604  0.86988590  1
  O  O198  1  0.03442427  0.01391057  0.37140155  1
  O  O199  1  0.01812076  0.00186870  0.88121095  1
  O  O200  1  0.03280215  0.34453471  0.38181966  1
  O  O201  1  0.03277745  0.34052358  0.87697481  1
  O  O202  1  0.01860490  0.65302245  0.37491519  1
  O  O203  1  0.03401412  0.66669691  0.87334303  1
  O  O204  1  0.35664506  0.00123562  0.37408973  1
  O  O205  1  0.34550892  0.00922516  0.86873728  1
  O  O206  1  0.37002874  0.33777059  0.38493728  1
  O  O207  1  0.34857838  0.34543965  0.87865187  1
  O  O208  1  0.35465598  0.67724873  0.36573525  1
  O  O209  1  0.35532181  0.66666664  0.88391833  1
  O  O210  1  0.69916834  0.00697692  0.37718995  1
  O  O211  1  0.70197294  0.00201985  0.88519765  1
  O  O212  1  0.69764685  0.35053647  0.37829567  1
  O  O213  1  0.69687108  0.34373655  0.88002226  1
  O  O214  1  0.68774234  0.66366852  0.37333030  1
  O  O215  1  0.68285509  0.66890557  0.87450670  1
  O  O216  1  0.07274831  0.09463124  0.02835386  1
  O  O217  1  0.06061502  0.10068526  0.51838776  1
  O  O218  1  0.06544624  0.42638360  0.00756751  1
  O  O219  1  0.06041549  0.42964670  0.52615863  1
  O  O220  1  0.08139332  0.76210017  0.01849932  1
  O  O221  1  0.07101628  0.75508808  0.50818310  1
  O  O222  1  0.41033912  0.08640755  0.01496667  1
  O  O223  1  0.39425514  0.09712393  0.52091776  1
  O  O224  1  0.40398807  0.42728753  0.01243826  1
  O  O225  1  0.40277360  0.42478050  0.53380947  1
  O  O226  1  0.40217303  0.76761398  0.03323384  1
  O  O227  1  0.41555937  0.75413563  0.51303451  1
  O  O228  1  0.74248473  0.08248902  0.02990389  1
  O  O229  1  0.73961222  0.09391149  0.50883589  1
  O  O230  1  0.74175169  0.42280793  0.02258795  1
  O  O231  1  0.72938045  0.42873661  0.52506568  1
  O  O232  1  0.73236486  0.76383020  0.02490996  1
  O  O233  1  0.73918350  0.75963302  0.51727219  1
  O  O234  1  0.09220606  0.26191476  0.02105857  1
  O  O235  1  0.08870406  0.26209485  0.52101263  1
  O  O236  1  0.10510848  0.60436515  0.01846263  1
  O  O237  1  0.08571085  0.59158346  0.52209020  1
  O  O238  1  0.10144615  0.93098158  0.02555465  1
  O  O239  1  0.09913100  0.94188229  0.51444469  1
  O  O240  1  0.42870151  0.26948142  0.02361731  1
  O  O241  1  0.42902639  0.26793783  0.52829843  1
  O  O242  1  0.42882678  0.60771296  0.02662255  1
  O  O243  1  0.43420203  0.59121451  0.52928652  1
  O  O244  1  0.43030800  0.92503883  0.03095297  1
  O  O245  1  0.42127989  0.93461913  0.51145480  1
  O  O246  1  0.76247518  0.26624615  0.02229582  1
  O  O247  1  0.76166209  0.26867328  0.50767082  1
  O  O248  1  0.76467622  0.58491379  0.01482007  1
  O  O249  1  0.75671792  0.58980352  0.51836412  1
  O  O250  1  0.75446556  0.92760456  0.02936111  1
  O  O251  1  0.76824600  0.93202816  0.50773491  1
  O  O252  1  0.23394032  0.06026904  0.27019896  1
  O  O253  1  0.23855081  0.06958584  0.76560464  1
  O  O254  1  0.23762099  0.40284445  0.28020813  1
  O  O255  1  0.22804254  0.40617846  0.78185497  1
  O  O256  1  0.24773135  0.74231470  0.26489301  1
  O  O257  1  0.23216468  0.73883708  0.77277568  1
  O  O258  1  0.58605588  0.08206865  0.27372140  1
  O  O259  1  0.56707591  0.08170045  0.76708577  1
  O  O260  1  0.56972311  0.40895154  0.27205135  1
  O  O261  1  0.57019125  0.40873813  0.77452028  1
  O  O262  1  0.56455275  0.73341378  0.26376981  1
  O  O263  1  0.57294640  0.73678794  0.74664391  1
  O  O264  1  0.90599039  0.07396119  0.28527131  1
  O  O265  1  0.90151364  0.07432031  0.77382332  1
  O  O266  1  0.89519663  0.40484686  0.27159660  1
  O  O267  1  0.90090184  0.40453949  0.78369512  1
  O  O268  1  0.91007267  0.73402486  0.26468612  1
  O  O269  1  0.90747246  0.74697513  0.76153918  1
  O  O270  1  0.25493479  0.24393537  0.26847427  1
  O  O271  1  0.26249155  0.23782784  0.77682581  1
  O  O272  1  0.26557351  0.58075125  0.26585070  1
  O  O273  1  0.26171800  0.56304299  0.77821515  1
  O  O274  1  0.26846754  0.90089008  0.27225793  1
  O  O275  1  0.26236342  0.90510302  0.76617366  1
  O  O276  1  0.60195029  0.24053487  0.28270793  1
  O  O277  1  0.58339921  0.23939899  0.76616396  1
  O  O278  1  0.59775710  0.56648610  0.27428413  1
  O  O279  1  0.59859975  0.55821074  0.76886586  1
  O  O280  1  0.58936412  0.90119310  0.26373612  1
  O  O281  1  0.58858718  0.91494413  0.76523577  1
  O  O282  1  0.92377338  0.23698259  0.28453285  1
  O  O283  1  0.92031753  0.24134528  0.76784762  1
  O  O284  1  0.93029022  0.56440606  0.27302204  1
  O  O285  1  0.93118601  0.56178199  0.77071963  1
  O  O286  1  0.92534565  0.91867835  0.27303328  1
  O  O287  1  0.91991340  0.91212587  0.76398380  1
  O  O288  1  0.26326868  0.24421731  0.47690174  1
  O  O289  1  0.26211669  0.23883478  0.97263582  1
  O  O290  1  0.26375080  0.56835925  0.49293372  1
  O  O291  1  0.26825773  0.57459127  0.97422973  1
  O  O292  1  0.26528287  0.90840233  0.46890175  1
  O  O293  1  0.26238239  0.89867449  0.99172254  1
  O  O294  1  0.60100446  0.24197998  0.47108668  1
  O  O295  1  0.59695246  0.24665999  0.98221906  1
  O  O296  1  0.60767259  0.56367211  0.48082927  1
  O  O297  1  0.59713157  0.56744330  0.97429094  1
  O  O298  1  0.59861560  0.91320726  0.48098838  1
  O  O299  1  0.59617189  0.90197651  0.98742013  1
  O  O300  1  0.93537068  0.23731222  0.47169583  1
  O  O301  1  0.92883558  0.24228894  0.98540502  1
  O  O302  1  0.93329229  0.56594876  0.48588526  1
  O  O303  1  0.92817146  0.55952235  0.97424661  1
  O  O304  1  0.92725128  0.91000343  0.47401926  1
  O  O305  1  0.92292626  0.91712698  0.98297826  1
  O  O306  1  0.23253339  0.06208751  0.47486930  1
  O  O307  1  0.23985352  0.08020202  0.98382062  1
  O  O308  1  0.23819259  0.39621594  0.47758269  1
  O  O309  1  0.23842091  0.40267660  0.97311057  1
  O  O310  1  0.24830561  0.74981515  0.48040364  1
  O  O311  1  0.23260117  0.73228959  0.97885259  1
  O  O312  1  0.58321917  0.07618717  0.47970016  1
  O  O313  1  0.58037208  0.07129060  0.98443454  1
  O  O314  1  0.57072410  0.39573494  0.47712273  1
  O  O315  1  0.57957552  0.40895784  0.98126945  1
  O  O316  1  0.58057123  0.73503010  0.49087525  1
  O  O317  1  0.56332194  0.73930518  0.99639534  1
  O  O318  1  0.90787564  0.07093470  0.46705921  1
  O  O319  1  0.90437523  0.06582831  0.98185310  1
  O  O320  1  0.90692948  0.39831788  0.46728763  1
  O  O321  1  0.90110868  0.39831634  0.97066448  1
  O  O322  1  0.90523591  0.73789803  0.48413482  1
  O  O323  1  0.90855811  0.73833318  0.98292795  1
  O  O324  1  0.08226248  0.25322132  0.22343309  1
  O  O325  1  0.08713539  0.25624364  0.73074810  1
  O  O326  1  0.09595267  0.60095287  0.23087352  1
  O  O327  1  0.09977911  0.59125903  0.72772247  1
  O  O328  1  0.09495677  0.93992196  0.22372410  1
  O  O329  1  0.10244185  0.93253176  0.73303493  1
  O  O330  1  0.43866146  0.27155114  0.22938832  1
  O  O331  1  0.42618684  0.26039352  0.72487191  1
  O  O332  1  0.43321480  0.60104171  0.22640800  1
  O  O333  1  0.43667300  0.58758248  0.71831843  1
  O  O334  1  0.42827859  0.92654891  0.21884440  1
  O  O335  1  0.41697099  0.93225987  0.73562791  1
  O  O336  1  0.77548108  0.26235288  0.22224708  1
  O  O337  1  0.76177127  0.25833206  0.74304124  1
  O  O338  1  0.75715475  0.59434830  0.23246530  1
  O  O339  1  0.76217639  0.58372917  0.72553821  1
  O  O340  1  0.75942711  0.92594554  0.22573309  1
  O  O341  1  0.76149489  0.92342726  0.74026596  1
  O  O342  1  0.06432404  0.09511492  0.22296056  1
  O  O343  1  0.07140345  0.09517580  0.71503851  1
  O  O344  1  0.06527646  0.43043470  0.24464185  1
  O  O345  1  0.06631013  0.43994565  0.72902252  1
  O  O346  1  0.07435755  0.75245024  0.23271793  1
  O  O347  1  0.07915650  0.76819131  0.73571124  1
  O  O348  1  0.40662457  0.08239543  0.23029719  1
  O  O349  1  0.39146356  0.10270235  0.72942151  1
  O  O350  1  0.41187600  0.43159889  0.23345647  1
  O  O351  1  0.40535787  0.43159728  0.72449793  1
  O  O352  1  0.40329434  0.76440004  0.21963631  1
  O  O353  1  0.41138112  0.75337425  0.73370607  1
  O  O354  1  0.75602945  0.09083815  0.22326050  1
  O  O355  1  0.74615402  0.09630421  0.73912095  1
  O  O356  1  0.74277950  0.42650037  0.22872048  1
  O  O357  1  0.73703847  0.43186422  0.72982796  1
  O  O358  1  0.72774229  0.75840055  0.22800368  1
  O  O359  1  0.74821143  0.75981437  0.73421618  1
