# generated using pymatgen
data_BaLaInIrO6
_symmetry_space_group_name_H-M   'P 1'
_cell_length_a   17.52556087
_cell_length_b   17.55128959
_cell_length_c   16.49803426
_cell_angle_alpha   89.99468507
_cell_angle_beta   90.01390865
_cell_angle_gamma   90.03079196
_symmetry_Int_Tables_number   1
_chemical_formula_structural   BaLaInIrO6
_chemical_formula_sum   'Ba36 La36 In36 Ir36 O216'
_cell_volume   5074.73164351
_cell_formula_units_Z   36
loop_
 _symmetry_equiv_pos_site_id
 _symmetry_equiv_pos_as_xyz
  1  'x, y, z'
loop_
 _atom_site_type_symbol
 _atom_site_label
 _atom_site_symmetry_multiplicity
 _atom_site_fract_x
 _atom_site_fract_y
 _atom_site_fract_z
 _atom_site_occupancy
  Ba  Ba0  1  0.83353438  0.67430140  0.62982103  1
  Ba  Ba1  1  0.50560724  0.65541341  0.87428481  1
  Ba  Ba2  1  0.66472041  0.82269404  0.37934192  1
  Ba  Ba3  1  -0.00087491  0.49362863  0.37578120  1
  Ba  Ba4  1  0.16356119  0.67436288  0.62301635  1
  Ba  Ba5  1  0.99895094  0.50614709  0.62527811  1
  Ba  Ba6  1  0.16317119  0.67644026  0.12450541  1
  Ba  Ba7  1  0.33185347  0.15943548  0.87190464  1
  Ba  Ba8  1  0.50063145  0.34312089  0.63117068  1
  Ba  Ba9  1  0.99958377  0.18385633  0.11918960  1
  Ba  Ba10  1  0.50266935  0.99181092  0.87300151  1
  Ba  Ba11  1  0.83070301  0.65571361  0.37724171  1
  Ba  Ba12  1  1.00391640  0.84388500  0.12347539  1
  Ba  Ba13  1  0.66253633  0.15523801  0.87396968  1
  Ba  Ba14  1  0.66561451  0.15784814  0.37114170  1
  Ba  Ba15  1  0.99796126  0.17606120  0.62918337  1
  Ba  Ba16  1  0.16475082  0.00828158  0.62661175  1
  Ba  Ba17  1  0.82866262  0.00988952  0.62437141  1
  Ba  Ba18  1  0.83380535  0.33801098  0.12478530  1
  Ba  Ba19  1  0.83689980  0.67712937  0.13035363  1
  Ba  Ba20  1  -0.00057037  0.82685877  0.87492729  1
  Ba  Ba21  1  0.33329326  0.84234145  0.12410080  1
  Ba  Ba22  1  0.83527232  0.65813594  0.87730739  1
  Ba  Ba23  1  0.00063002  0.15613587  0.88003659  1
  Ba  Ba24  1  0.17045659  0.99325392  0.87240124  1
  Ba  Ba25  1  0.33407154  0.83006987  0.87643400  1
  Ba  Ba26  1  0.50102886  0.01253996  0.62410064  1
  Ba  Ba27  1  0.83461103  0.32716829  0.37392838  1
  Ba  Ba28  1  0.67051261  0.17617683  0.62626208  1
  Ba  Ba29  1  -0.00762827  0.16148751  0.37163143  1
  Ba  Ba30  1  0.49684472  0.00765992  0.12331138  1
  Ba  Ba31  1  0.49535675  0.32235409  0.87253084  1
  Ba  Ba32  1  0.99689777  0.83893387  0.62836059  1
  Ba  Ba33  1  0.00774453  0.49391452  0.87350359  1
  Ba  Ba34  1  0.50608209  0.65431750  0.37532402  1
  Ba  Ba35  1  0.32958189  0.16002084  0.37365274  1
  La  La36  1  0.49770583  0.68233078  0.62334414  1
  La  La37  1  0.33155392  0.48526243  0.37735275  1
  La  La38  1  0.16248507  0.01062096  0.11644417  1
  La  La39  1  0.82958451  0.01229176  0.11838057  1
  La  La40  1  0.49626943  0.68364977  0.12559353  1
  La  La41  1  0.33499796  0.18089431  0.11721426  1
  La  La42  1  0.33803849  0.85352563  0.62567233  1
  La  La43  1  -0.00396391  0.81936546  0.37718873  1
  La  La44  1  0.67118678  0.84926052  0.12486390  1
  La  La45  1  0.33977782  0.18188530  0.63031991  1
  La  La46  1  0.33846327  0.51233513  0.62865377  1
  La  La47  1  0.83041432  0.34633323  0.62360755  1
  La  La48  1  0.16767699  0.31791060  0.37663566  1
  La  La49  1  0.16420624  0.34533023  0.62981558  1
  La  La50  1  0.34103088  0.51486677  0.12430111  1
  La  La51  1  0.84062540  0.98917840  0.37210146  1
  La  La52  1  0.49495472  0.34208331  0.12077550  1
  La  La53  1  0.66234930  0.48671219  0.87568191  1
  La  La54  1  0.66914712  0.17858528  0.11953347  1
  La  La55  1  0.99944359  0.50549885  0.12259109  1
  La  La56  1  0.50869382  0.31670382  0.38042891  1
  La  La57  1  0.16100600  0.98917875  0.37559771  1
  La  La58  1  0.33099562  0.81704026  0.37310494  1
  La  La59  1  0.16178156  0.34665030  0.12515287  1
  La  La60  1  0.16002252  0.67238717  0.87384583  1
  La  La61  1  0.84103061  0.31778955  0.87549268  1
  La  La62  1  0.67695306  0.84986148  0.62969532  1
  La  La63  1  0.32958426  0.49490824  0.86957804  1
  La  La64  1  0.83618920  0.98667842  0.87197843  1
  La  La65  1  0.16911862  0.64939184  0.37304881  1
  La  La66  1  0.17127208  0.31841115  0.87828625  1
  La  La67  1  0.67067659  0.51182892  0.12740505  1
  La  La68  1  0.50438501  0.98522823  0.37473466  1
  La  La69  1  0.66147965  0.48662616  0.37904148  1
  La  La70  1  0.67239191  0.51152108  0.63179108  1
  La  La71  1  0.66130744  0.82085350  0.87404047  1
  In  In72  1  0.83357855  0.49914770  0.75612064  1
  In  In73  1  0.33482274  0.66644216  0.74780151  1
  In  In74  1  0.83170283  0.16819956  0.49911664  1
  In  In75  1  0.66712588  0.66427742  0.00203269  1
  In  In76  1  0.33525883  0.00239749  0.00168581  1
  In  In77  1  0.00093385  0.66527933  0.25120634  1
  In  In78  1  0.16620078  0.83570690  0.25015630  1
  In  In79  1  0.33853057  0.66210247  -0.00379645  1
  In  In80  1  0.00070535  0.00185496  0.50031210  1
  In  In81  1  0.16763287  0.83342507  0.49652656  1
  In  In82  1  0.66497792  0.66614499  0.25039165  1
  In  In83  1  0.49868706  0.49783290  0.25227483  1
  In  In84  1  0.50425450  0.83525198  0.74609243  1
  In  In85  1  0.66924214  0.33283606  0.75199790  1
  In  In86  1  0.16740326  0.83380272  -0.00072986  1
  In  In87  1  -0.00158206  0.66431048  0.00034965  1
  In  In88  1  0.83189062  0.49887103  0.24966273  1
  In  In89  1  0.33527999  0.00307244  0.74867960  1
  In  In90  1  0.33438773  0.66471603  0.49833676  1
  In  In91  1  0.33384242  0.33343949  0.24898796  1
  In  In92  1  0.00148086  0.33440705  0.50084033  1
  In  In93  1  0.83099872  0.83431600  0.00124849  1
  In  In94  1  0.66484921  0.00243650  0.49724744  1
  In  In95  1  0.00040648  0.66429080  0.50047824  1
  In  In96  1  0.66657949  0.33417519  -0.00087814  1
  In  In97  1  0.16403752  0.16836180  0.74753625  1
  In  In98  1  0.49857751  0.83419657  0.25078616  1
  In  In99  1  0.16879531  0.83209443  0.74700932  1
  In  In100  1  0.33248553  0.00275336  0.49302319  1
  In  In101  1  0.16526676  0.16412276  0.24929001  1
  In  In102  1  0.66086631  0.33242694  0.24825490  1
  In  In103  1  0.83195789  0.16602464  0.24551929  1
  In  In104  1  0.33564820  0.33549739  0.50254901  1
  In  In105  1  0.83135824  0.83126624  0.49910846  1
  In  In106  1  0.17276551  0.49942492  0.00022956  1
  In  In107  1  0.49665668  0.16230245  0.24795636  1
  Ir  Ir108  1  0.66622840  0.00114047  0.00143583  1
  Ir  Ir109  1  0.83144393  0.16473572  -0.00288506  1
  Ir  Ir110  1  0.33031766  0.33346212  0.00015720  1
  Ir  Ir111  1  -0.00427053  0.00499998  -0.00087070  1
  Ir  Ir112  1  0.00013315  0.33413039  0.75387981  1
  Ir  Ir113  1  0.66127498  0.66175903  0.50629706  1
  Ir  Ir114  1  -0.00533709  0.00024455  0.75420919  1
  Ir  Ir115  1  0.83380627  0.84138024  0.24880324  1
  Ir  Ir116  1  0.00073829  0.66447851  0.74958787  1
  Ir  Ir117  1  -0.00118662  0.00228683  0.24342478  1
  Ir  Ir118  1  0.83233490  0.49649456  0.00165336  1
  Ir  Ir119  1  0.50129310  0.83220810  0.50136102  1
  Ir  Ir120  1  0.17131024  0.49514902  0.49744907  1
  Ir  Ir121  1  0.16923236  0.49757102  0.74881497  1
  Ir  Ir122  1  0.67111002  0.00115676  0.75536974  1
  Ir  Ir123  1  0.50590524  0.83251134  -0.00054518  1
  Ir  Ir124  1  0.66472986  0.66589236  0.74889637  1
  Ir  Ir125  1  0.66699896  -0.00148255  0.24653814  1
  Ir  Ir126  1  0.50257513  0.16654165  -0.00054840  1
  Ir  Ir127  1  0.17266751  0.49685996  0.25368070  1
  Ir  Ir128  1  0.83542845  0.16820588  0.75439345  1
  Ir  Ir129  1  0.49723627  0.16948851  0.50327779  1
  Ir  Ir130  1  0.16746434  0.17015879  0.00249174  1
  Ir  Ir131  1  0.50202305  0.49552608  -0.00079766  1
  Ir  Ir132  1  0.82863103  0.83390654  0.75270291  1
  Ir  Ir133  1  0.33006516  0.33841211  0.75374567  1
  Ir  Ir134  1  0.00473331  0.33847876  0.24524316  1
  Ir  Ir135  1  0.50274842  0.50102130  0.75073923  1
  Ir  Ir136  1  0.00077044  0.33644294  -0.00064807  1
  Ir  Ir137  1  0.50047219  0.16825073  0.74883396  1
  Ir  Ir138  1  0.33200153  0.00058891  0.25250069  1
  Ir  Ir139  1  0.82583884  0.49913066  0.50256554  1
  Ir  Ir140  1  0.66373481  0.33767965  0.50303294  1
  Ir  Ir141  1  0.16768820  0.17001687  0.49959347  1
  Ir  Ir142  1  0.33497303  0.66233327  0.25087392  1
  Ir  Ir143  1  0.50179455  0.49989105  0.50676914  1
  O  O144  1  0.29882853  0.32103579  0.11843719  1
  O  O145  1  0.30319209  0.32774956  0.63177965  1
  O  O146  1  0.31509468  0.65587747  0.13091179  1
  O  O147  1  0.31198985  0.64709088  0.62148510  1
  O  O148  1  0.30155676  0.99690868  0.13375859  1
  O  O149  1  0.31729995  0.99084797  0.61797990  1
  O  O150  1  0.62974630  0.32320932  0.12117050  1
  O  O151  1  0.64907753  0.33631643  0.62194890  1
  O  O152  1  0.62812645  0.64628573  0.12357632  1
  O  O153  1  0.63345416  0.64896484  0.62804831  1
  O  O154  1  0.64156713  0.98623012  0.12382110  1
  O  O155  1  0.65172812  0.99090030  0.63325993  1
  O  O156  1  0.98139749  0.34694338  0.12201314  1
  O  O157  1  0.96943058  0.33587978  0.63449946  1
  O  O158  1  0.98563007  0.64344815  0.12650038  1
  O  O159  1  0.98433753  0.66319809  0.62947062  1
  O  O160  1  0.96599342  1.00147626  0.12091143  1
  O  O161  1  0.97834534  1.00005724  0.63405242  1
  O  O162  1  0.19607361  0.15879742  0.12205200  1
  O  O163  1  0.19913933  0.16836539  0.61849488  1
  O  O164  1  0.20293333  0.48409661  0.13422325  1
  O  O165  1  0.19946657  0.48075339  0.62072305  1
  O  O166  1  0.18479081  0.84068237  0.12657479  1
  O  O167  1  0.20204349  0.82850498  0.62097855  1
  O  O168  1  0.53180976  0.16414418  0.11812026  1
  O  O169  1  0.52201709  0.17042452  0.62525756  1
  O  O170  1  0.53353612  0.48216572  0.11832266  1
  O  O171  1  0.53654601  0.49614913  0.62866438  1
  O  O172  1  0.53023094  0.82971245  0.12135219  1
  O  O173  1  0.53910544  0.82859000  0.61808174  1
  O  O174  1  0.85228767  0.15189521  0.11685427  1
  O  O175  1  0.84948533  0.16634586  0.63488568  1
  O  O176  1  0.86445358  0.49241475  0.11910855  1
  O  O177  1  0.84549075  0.49129131  0.62297727  1
  O  O178  1  0.85297015  0.84324563  0.13097377  1
  O  O179  1  0.84520413  0.83410099  0.63215217  1
  O  O180  1  0.14215986  0.18090978  0.37872188  1
  O  O181  1  0.14913190  0.18113915  0.88122024  1
  O  O182  1  0.14746254  0.51023055  0.37560500  1
  O  O183  1  0.16069421  0.51892832  0.86865444  1
  O  O184  1  0.13122058  0.85289170  0.37034542  1
  O  O185  1  0.14991561  0.82710606  0.87284690  1
  O  O186  1  0.47753692  0.17777136  0.38314917  1
  O  O187  1  0.47916757  0.16529096  0.87318932  1
  O  O188  1  0.46751638  0.50210259  0.38691953  1
  O  O189  1  0.46793115  0.50229242  0.87470793  1
  O  O190  1  0.46984162  0.83770995  0.38022899  1
  O  O191  1  0.49080153  0.82936492  0.87778696  1
  O  O192  1  0.81751220  0.17126316  0.37024655  1
  O  O193  1  0.81188836  0.17972235  0.87472845  1
  O  O194  1  0.79862557  0.49773444  0.38242465  1
  O  O195  1  0.79913182  0.49999425  0.88329186  1
  O  O196  1  0.81092879  0.84930397  0.36670284  1
  O  O197  1  0.79805396  0.84114708  0.87293552  1
  O  O198  1  0.02644397  0.00769585  0.36177806  1
  O  O199  1  0.01935657  0.00028569  0.87772515  1
  O  O200  1  0.03130564  0.33580783  0.36743741  1
  O  O201  1  0.03243243  0.33363315  0.87722200  1
  O  O202  1  0.03248698  0.66959670  0.37569222  1
  O  O203  1  0.02312717  0.66301777  0.86969110  1
  O  O204  1  0.37056355  0.00999697  0.36930447  1
  O  O205  1  0.35362823  0.00498850  0.87616608  1
  O  O206  1  0.37041113  0.34519279  0.37616605  1
  O  O207  1  0.35127538  0.35281809  0.87707457  1
  O  O208  1  0.35857307  0.66628655  0.36977910  1
  O  O209  1  0.35698664  0.64323971  0.87105594  1
  O  O210  1  0.69922523  0.00206183  0.36444390  1
  O  O211  1  0.69876217  0.00284340  0.87957063  1
  O  O212  1  0.68141921  0.34403778  0.38272472  1
  O  O213  1  0.70196647  0.34626546  0.87670920  1
  O  O214  1  0.68012648  0.66671420  0.38539725  1
  O  O215  1  0.68379509  0.68107663  0.87075104  1
  O  O216  1  0.07769423  0.09401027  0.02528209  1
  O  O217  1  0.07627710  0.10504567  0.51454680  1
  O  O218  1  0.07236642  0.42509863  0.02374592  1
  O  O219  1  0.08236136  0.42433418  0.52112053  1
  O  O220  1  0.07532328  0.75654258  0.01251152  1
  O  O221  1  0.06998310  0.76384048  0.51047501  1
  O  O222  1  0.40654370  0.10315543  0.02442396  1
  O  O223  1  0.40286491  0.10523294  0.52464966  1
  O  O224  1  0.40565974  0.42483831  0.03012421  1
  O  O225  1  0.40519852  0.43690945  0.52890170  1
  O  O226  1  0.41877849  0.75661266  0.02073069  1
  O  O227  1  0.40946696  0.76354927  0.52600194  1
  O  O228  1  0.73636098  0.09514321  0.02610230  1
  O  O229  1  0.73643891  0.09583124  0.51367389  1
  O  O230  1  0.73750442  0.43358449  0.02702754  1
  O  O231  1  0.72936306  0.43284911  0.52544028  1
  O  O232  1  0.73097659  0.76694166  0.02547581  1
  O  O233  1  0.72719036  0.75519642  0.52778227  1
  O  O234  1  0.10073187  0.27099894  0.02135856  1
  O  O235  1  0.10626461  0.26782174  0.52302946  1
  O  O236  1  0.09470112  0.58654915  0.01317510  1
  O  O237  1  0.10291775  0.58625908  0.50990744  1
  O  O238  1  0.08793336  0.93870834  0.01959319  1
  O  O239  1  0.10151347  0.93881040  0.50568950  1
  O  O240  1  0.42904076  0.26225676  0.02446851  1
  O  O241  1  0.42692571  0.25877044  0.52488133  1
  O  O242  1  0.43924905  0.58775689  0.03238289  1
  O  O243  1  0.43752201  0.59276839  0.53036141  1
  O  O244  1  0.43249491  0.91872230  0.01362188  1
  O  O245  1  0.43153421  0.92038695  0.51711472  1
  O  O246  1  0.75786641  0.25171577  0.01936644  1
  O  O247  1  0.76024719  0.27458485  0.52359621  1
  O  O248  1  0.76215161  0.58641364  0.02579170  1
  O  O249  1  0.75184015  0.59001496  0.52749403  1
  O  O250  1  0.75766739  0.93437351  0.02323211  1
  O  O251  1  0.74881752  0.91686740  0.51685340  1
  O  O252  1  0.23521838  0.06181783  0.27300627  1
  O  O253  1  0.24302282  0.08187356  0.76110218  1
  O  O254  1  0.23569795  0.40498655  0.28188544  1
  O  O255  1  0.23397786  0.40383428  0.77862564  1
  O  O256  1  0.24299327  0.73199041  0.27731220  1
  O  O257  1  0.23438006  0.72702039  0.77297415  1
  O  O258  1  0.56975030  0.06226410  0.27311575  1
  O  O259  1  0.57417240  0.07446376  0.76540942  1
  O  O260  1  0.55976303  0.39711177  0.27717350  1
  O  O261  1  0.57625372  0.41560040  0.77556615  1
  O  O262  1  0.56822992  0.73639957  0.25617894  1
  O  O263  1  0.57490832  0.73529695  0.75777534  1
  O  O264  1  0.89932656  0.06098358  0.26242183  1
  O  O265  1  0.89951813  0.07044657  0.77708727  1
  O  O266  1  0.91493328  0.40681618  0.26476110  1
  O  O267  1  0.90573755  0.39889829  0.77547332  1
  O  O268  1  0.90522771  0.75288676  0.27358649  1
  O  O269  1  0.90548227  0.73898572  0.76858594  1
  O  O270  1  0.25366243  0.24519107  0.26944429  1
  O  O271  1  0.25677552  0.25235547  0.77056694  1
  O  O272  1  0.26960516  0.56362784  0.27678513  1
  O  O273  1  0.26909583  0.55436945  0.75526412  1
  O  O274  1  0.27037182  0.90549831  0.28206595  1
  O  O275  1  0.26605833  0.90289259  0.75508251  1
  O  O276  1  0.58363123  0.24067558  0.27151530  1
  O  O277  1  0.58866890  0.24213001  0.76474587  1
  O  O278  1  0.60018690  0.55934843  0.27444165  1
  O  O279  1  0.60217767  0.56612227  0.77278332  1
  O  O280  1  0.59608130  0.91006412  0.26973013  1
  O  O281  1  0.60895891  0.90301852  0.77065292  1
  O  O282  1  0.93010571  0.24932355  0.25493501  1
  O  O283  1  0.92773530  0.24182181  0.77821867  1
  O  O284  1  0.92342789  0.57420329  0.26757324  1
  O  O285  1  0.92680539  0.57590166  0.76454141  1
  O  O286  1  0.93096357  0.90818675  0.27597019  1
  O  O287  1  0.91709592  0.91105453  0.77808677  1
  O  O288  1  0.25611834  0.24152157  0.48099557  1
  O  O289  1  0.26073983  0.24086557  0.97861737  1
  O  O290  1  0.26594484  0.56065944  0.47567923  1
  O  O291  1  0.28147346  0.55200153  0.99378116  1
  O  O292  1  0.27054859  0.89923493  0.46780779  1
  O  O293  1  0.25773070  0.91271536  0.98680710  1
  O  O294  1  0.59150258  0.24503651  0.47914235  1
  O  O295  1  0.59078648  0.23644325  0.98247097  1
  O  O296  1  0.59900089  0.56159853  0.48294689  1
  O  O297  1  0.59642003  0.56112788  0.97431588  1
  O  O298  1  0.58307487  0.91041577  0.47443755  1
  O  O299  1  0.60410541  0.90033004  0.97932055  1
  O  O300  1  0.92638073  0.24378311  0.48991877  1
  O  O301  1  0.92070356  0.24503062  0.97582256  1
  O  O302  1  0.91607219  0.56992311  0.48648340  1
  O  O303  1  0.92288923  0.56277776  0.98348520  1
  O  O304  1  0.92755456  0.90549962  0.47035190  1
  O  O305  1  0.91922469  0.92084974  0.97796471  1
  O  O306  1  0.22917469  0.07347561  0.47171548  1
  O  O307  1  0.23526086  0.08022412  0.98857643  1
  O  O308  1  0.23771513  0.40414590  0.47034339  1
  O  O309  1  0.23278738  0.39384589  0.98026802  1
  O  O310  1  0.24014788  0.73466904  0.46226276  1
  O  O311  1  0.24119839  0.72989497  0.97813297  1
  O  O312  1  0.56192656  0.07354111  0.47609781  1
  O  O313  1  0.57204542  0.07275969  0.98231457  1
  O  O314  1  0.56775606  0.40585605  0.47607682  1
  O  O315  1  0.57060264  0.40888021  0.97264331  1
  O  O316  1  0.56579024  0.73064218  0.49287434  1
  O  O317  1  0.57359409  0.74264302  0.98720217  1
  O  O318  1  0.90174285  0.06699629  0.47568196  1
  O  O319  1  0.89731830  0.06980426  0.97561528  1
  O  O320  1  0.89831289  0.41001962  0.49138656  1
  O  O321  1  0.90092806  0.40112492  0.97535683  1
  O  O322  1  0.90739388  0.74189219  0.47867813  1
  O  O323  1  0.90558282  0.74247801  0.98789345  1
  O  O324  1  0.09721793  0.27108050  0.22574542  1
  O  O325  1  0.09448528  0.26854073  0.72953940  1
  O  O326  1  0.10574175  0.58686800  0.23797099  1
  O  O327  1  0.09600131  0.59240953  0.73307022  1
  O  O328  1  0.09506783  0.94272527  0.22434458  1
  O  O329  1  0.08173895  0.92711457  0.73818216  1
  O  O330  1  0.42346808  0.25799459  0.21238357  1
  O  O331  1  0.41863803  0.25841813  0.72814430  1
  O  O332  1  0.43002277  0.59711095  0.22240024  1
  O  O333  1  0.43713870  0.59033908  0.71946302  1
  O  O334  1  0.42498334  0.93317451  0.23828701  1
  O  O335  1  0.42858377  0.92420301  0.72787618  1
  O  O336  1  0.74753903  0.25047481  0.22211906  1
  O  O337  1  0.77438257  0.26645857  0.73466993  1
  O  O338  1  0.75520041  0.59158295  0.22629292  1
  O  O339  1  0.75243356  0.59351499  0.73649221  1
  O  O340  1  0.76366907  0.93508138  0.22078780  1
  O  O341  1  0.76234744  0.92981437  0.73539693  1
  O  O342  1  0.06738435  0.09321777  0.22224265  1
  O  O343  1  0.06697992  0.08955172  0.74084131  1
  O  O344  1  0.07731047  0.43222761  0.22189322  1
  O  O345  1  0.07549513  0.42268045  0.72880579  1
  O  O346  1  0.07156600  0.76128130  0.23802194  1
  O  O347  1  0.07167668  0.75226593  0.73648395  1
  O  O348  1  0.39231015  0.09767366  0.22291870  1
  O  O349  1  0.40834199  0.10298194  0.72415349  1
  O  O350  1  0.39949649  0.43219485  0.22128154  1
  O  O351  1  0.40231893  0.43538488  0.73143332  1
  O  O352  1  0.40258622  0.75517370  0.23256943  1
  O  O353  1  0.40899866  0.76034479  0.71533406  1
  O  O354  1  0.73089784  0.08902700  0.21619083  1
  O  O355  1  0.74185196  0.09746501  0.73799672  1
  O  O356  1  0.73107983  0.43052243  0.22988651  1
  O  O357  1  0.73966577  0.42847723  0.72635196  1
  O  O358  1  0.73877812  0.77304825  0.22727503  1
  O  O359  1  0.72969895  0.76647097  0.73052190  1
