# generated using pymatgen
data_BaLaInIrO6
_symmetry_space_group_name_H-M   'P 1'
_cell_length_a   17.53689487
_cell_length_b   17.58904650
_cell_length_c   16.52553869
_cell_angle_alpha   89.95452865
_cell_angle_beta   90.02722629
_cell_angle_gamma   89.99081026
_symmetry_Int_Tables_number   1
_chemical_formula_structural   BaLaInIrO6
_chemical_formula_sum   'Ba36 La36 In36 Ir36 O216'
_cell_volume   5097.42012633
_cell_formula_units_Z   36
loop_
 _symmetry_equiv_pos_site_id
 _symmetry_equiv_pos_as_xyz
  1  'x, y, z'
loop_
 _atom_site_type_symbol
 _atom_site_label
 _atom_site_symmetry_multiplicity
 _atom_site_fract_x
 _atom_site_fract_y
 _atom_site_fract_z
 _atom_site_occupancy
  Ba  Ba0  1  0.33644057  0.16138828  0.87596483  1
  Ba  Ba1  1  0.16528252  0.67573493  0.62976339  1
  Ba  Ba2  1  0.66950379  0.18015811  0.12230291  1
  Ba  Ba3  1  0.49844935  0.34229797  0.12520011  1
  Ba  Ba4  1  0.50003990  0.66019067  0.87294962  1
  Ba  Ba5  1  0.67180725  0.84288884  0.62721253  1
  Ba  Ba6  1  0.82690981  0.01416843  0.12103110  1
  Ba  Ba7  1  0.16488454  0.32746169  0.87543119  1
  Ba  Ba8  1  0.50179253  0.65566910  0.37536845  1
  Ba  Ba9  1  0.49852905  0.34270662  0.62815111  1
  Ba  Ba10  1  0.83067422  0.67301923  0.62324604  1
  Ba  Ba11  1  0.82804074  0.34623952  0.12376620  1
  Ba  Ba12  1  0.16784588  0.00971057  0.62667634  1
  Ba  Ba13  1  0.99665400  0.17847666  0.12401886  1
  Ba  Ba14  1  1.00177837  0.50692504  0.12620864  1
  Ba  Ba15  1  0.16825370  0.99232621  0.87856962  1
  Ba  Ba16  1  0.66513488  0.49125294  0.38005903  1
  Ba  Ba17  1  0.33105359  0.15574145  0.37163725  1
  Ba  Ba18  1  0.00021454  0.82785594  0.37750770  1
  Ba  Ba19  1  0.83108736  0.00865546  0.62326167  1
  Ba  Ba20  1  0.16735182  0.99067198  0.37562470  1
  Ba  Ba21  1  0.33768280  0.49618884  0.87407329  1
  Ba  Ba22  1  0.33315408  0.50924451  0.12084034  1
  Ba  Ba23  1  0.83287118  0.34212211  0.62559230  1
  Ba  Ba24  1  0.33417201  0.82638866  0.87634990  1
  Ba  Ba25  1  0.50247912  0.98322270  0.87776116  1
  Ba  Ba26  1  0.49921952  0.67722324  0.62559180  1
  Ba  Ba27  1  0.16479672  0.34281066  0.12011253  1
  Ba  Ba28  1  0.16890686  0.65586662  0.37673122  1
  Ba  Ba29  1  0.16400656  0.67009953  0.12445669  1
  Ba  Ba30  1  0.83162518  0.99504359  0.36848326  1
  Ba  Ba31  1  0.83266811  0.32851534  0.37327681  1
  Ba  Ba32  1  0.49890138  0.00675239  0.62749254  1
  Ba  Ba33  1  0.33682574  0.50952865  0.63028243  1
  Ba  Ba34  1  -0.00129435  0.49649376  0.37113577  1
  Ba  Ba35  1  0.99569036  0.17119426  0.62295063  1
  La  La36  1  0.66246368  0.81875781  0.87522811  1
  La  La37  1  -0.00353142  0.15093765  0.87360014  1
  La  La38  1  0.83910712  0.31530157  0.87770408  1
  La  La39  1  0.16692662  0.01546210  0.12366208  1
  La  La40  1  0.83701131  0.67540079  0.12824388  1
  La  La41  1  0.50720036  0.32137948  0.37685923  1
  La  La42  1  1.00418098  0.85396774  0.62670073  1
  La  La43  1  -0.00608414  0.48233065  0.88145559  1
  La  La44  1  0.17221915  0.65013750  0.87726268  1
  La  La45  1  0.33830569  0.18423132  0.12045443  1
  La  La46  1  0.83770833  0.98464367  0.87347151  1
  La  La47  1  -0.00274634  0.15358909  0.37494899  1
  La  La48  1  0.16326350  0.34171052  0.62506254  1
  La  La49  1  0.67290422  0.51746460  0.12371240  1
  La  La50  1  0.50707092  0.98266050  0.37647708  1
  La  La51  1  1.00634809  0.84347297  0.12421196  1
  La  La52  1  0.33442982  0.84011874  0.62652105  1
  La  La53  1  0.66021729  0.15569851  0.37471417  1
  La  La54  1  0.49541083  0.01900443  0.12508927  1
  La  La55  1  0.50534014  0.31800285  0.87686588  1
  La  La56  1  0.32990536  0.48291464  0.37851884  1
  La  La57  1  0.66853920  0.84649853  0.11831052  1
  La  La58  1  1.00848260  0.50813443  0.62235399  1
  La  La59  1  0.66441095  0.81863953  0.37822836  1
  La  La60  1  0.67522317  0.18077115  0.62842807  1
  La  La61  1  0.66082503  0.48328324  0.87216963  1
  La  La62  1  0.83547783  0.64713638  0.87724392  1
  La  La63  1  0.65736188  0.14781917  0.87695984  1
  La  La64  1  0.66436707  0.51344222  0.62253317  1
  La  La65  1  0.16619792  0.32525444  0.37309613  1
  La  La66  1  0.49194971  0.67957206  0.12039610  1
  La  La67  1  -0.00161870  0.81650831  0.87669301  1
  La  La68  1  0.33742179  0.18143074  0.62477442  1
  La  La69  1  0.33465099  0.84327886  0.12408649  1
  La  La70  1  0.84052316  0.65312861  0.37617698  1
  La  La71  1  0.32504792  0.81772492  0.38083715  1
  In  In72  1  0.83471280  0.49745944  0.50253639  1
  In  In73  1  0.16692031  0.83204663  0.50362500  1
  In  In74  1  -0.00224806  0.66476393  0.75347921  1
  In  In75  1  0.33468555  0.33839276  -0.00178001  1
  In  In76  1  0.66381146  0.33624056  0.24868353  1
  In  In77  1  -0.00072500  -0.00293563  0.00037797  1
  In  In78  1  0.66459039  0.66601331  0.49891843  1
  In  In79  1  0.00075205  0.66964037  0.24780910  1
  In  In80  1  0.33217801  0.00098869  0.75068301  1
  In  In81  1  0.33408283  0.66213243  0.50053570  1
  In  In82  1  -0.00020432  -0.00015359  0.24374435  1
  In  In83  1  0.50136811  0.50109005  0.25083814  1
  In  In84  1  0.16775312  0.16862455  0.24813840  1
  In  In85  1  0.16776278  0.16922760  0.50008365  1
  In  In86  1  0.50594652  0.50204766  0.00129109  1
  In  In87  1  0.82941422  0.17078973  0.24848072  1
  In  In88  1  -0.00240408  0.32867435  0.75073780  1
  In  In89  1  0.83345539  0.82933970  -0.00047513  1
  In  In90  1  0.16657639  0.16808483  -0.00122677  1
  In  In91  1  0.83197190  0.83414925  0.49828411  1
  In  In92  1  0.66340925  -0.00164716  0.24727552  1
  In  In93  1  0.82866631  0.16855310  0.49706197  1
  In  In94  1  -0.00134583  0.66912769  0.50222543  1
  In  In95  1  0.17083103  0.50024826  0.24978014  1
  In  In96  1  0.66418844  0.00221168  0.50266188  1
  In  In97  1  0.67017215  0.66567596  0.75396975  1
  In  In98  1  0.33658958  0.00039079  0.49804757  1
  In  In99  1  0.50350991  0.16487883  0.74506808  1
  In  In100  1  0.00120967  0.33209717  0.49656827  1
  In  In101  1  -0.00047543  0.00167095  0.49883933  1
  In  In102  1  0.83357040  0.49662377  0.75277517  1
  In  In103  1  0.50051402  0.83208246  0.25028023  1
  In  In104  1  0.33273102  0.66898983  0.75334261  1
  In  In105  1  0.33549478  -0.00169911  0.00187574  1
  In  In106  1  0.33369464  0.33497446  0.75016302  1
  In  In107  1  0.17059679  0.83327735  0.24584943  1
  Ir  Ir108  1  0.50523523  0.16695964  0.00338814  1
  Ir  Ir109  1  0.82745383  0.16437176  0.75589840  1
  Ir  Ir110  1  0.83416867  0.83557901  0.75769505  1
  Ir  Ir111  1  0.49813502  0.83577517  0.49956856  1
  Ir  Ir112  1  -0.00486245  0.33447444  -0.00029728  1
  Ir  Ir113  1  0.66875391  0.66743576  0.00433260  1
  Ir  Ir114  1  0.49324832  0.16501898  0.25228506  1
  Ir  Ir115  1  0.82811467  0.50259522  0.00108292  1
  Ir  Ir116  1  0.49652572  0.49528488  0.50189213  1
  Ir  Ir117  1  0.67014781  0.33545166  -0.00697546  1
  Ir  Ir118  1  0.82823836  0.82833700  0.24398006  1
  Ir  Ir119  1  0.49892086  0.16993786  0.49784340  1
  Ir  Ir120  1  -0.00013902  0.66530215  -0.00466738  1
  Ir  Ir121  1  0.66027969  0.33215651  0.50536725  1
  Ir  Ir122  1  0.83056055  0.50413075  0.24327425  1
  Ir  Ir123  1  0.33930919  -0.00275622  0.24763848  1
  Ir  Ir124  1  0.33152374  0.67015320  0.00272327  1
  Ir  Ir125  1  0.00127112  0.33711022  0.24661100  1
  Ir  Ir126  1  0.17004319  0.49401252  0.50283769  1
  Ir  Ir127  1  0.16370598  0.49876863  0.74955036  1
  Ir  Ir128  1  0.50442613  0.83450409  0.75073391  1
  Ir  Ir129  1  0.67082304  -0.00066369  0.75566590  1
  Ir  Ir130  1  0.66906253  0.66798421  0.24469544  1
  Ir  Ir131  1  0.82732033  0.16815379  -0.00818553  1
  Ir  Ir132  1  0.16181860  0.83432148  0.75637590  1
  Ir  Ir133  1  0.33646714  0.33322248  0.25483553  1
  Ir  Ir134  1  0.50676249  0.83018047  0.00182710  1
  Ir  Ir135  1  0.16531724  0.16767093  0.75019037  1
  Ir  Ir136  1  0.66592441  -0.00076660  -0.00225441  1
  Ir  Ir137  1  0.33579387  0.33288712  0.49767002  1
  Ir  Ir138  1  0.16188250  0.50383068  -0.00521792  1
  Ir  Ir139  1  0.50524235  0.49667266  0.75058553  1
  Ir  Ir140  1  0.16707993  0.82888377  0.00045229  1
  Ir  Ir141  1  0.66833625  0.33314785  0.75199904  1
  Ir  Ir142  1  -0.00086699  0.00051097  0.75520621  1
  Ir  Ir143  1  0.33738964  0.66751256  0.24614961  1
  O  O144  1  0.31735969  0.32398136  0.13310577  1
  O  O145  1  0.30415575  0.32449865  0.61865131  1
  O  O146  1  0.31401794  0.66675419  0.12378111  1
  O  O147  1  0.31897689  0.67183370  0.62861556  1
  O  O148  1  0.30749836  0.98306841  0.12987124  1
  O  O149  1  0.32116009  0.97699606  0.62592327  1
  O  O150  1  0.64759110  0.33411634  0.11247038  1
  O  O151  1  0.64276007  0.31612503  0.63059626  1
  O  O152  1  0.63183759  0.65702765  0.12397691  1
  O  O153  1  0.65163975  0.65387894  0.62782038  1
  O  O154  1  0.63089570  0.98699155  0.11757938  1
  O  O155  1  0.64938268  0.99775164  0.63604963  1
  O  O156  1  0.97656514  0.33805325  0.12207131  1
  O  O157  1  0.98411314  0.33003620  0.62592259  1
  O  O158  1  0.97138952  0.66345479  0.11545945  1
  O  O159  1  0.97921944  0.64459361  0.63003366  1
  O  O160  1  0.97064488  0.97830005  0.12083814  1
  O  O161  1  0.98203096  0.99613727  0.63585202  1
  O  O162  1  0.20324386  0.16464234  0.12664912  1
  O  O163  1  0.19777293  0.16946452  0.63061193  1
  O  O164  1  0.18260678  0.50103656  0.11620869  1
  O  O165  1  0.18989977  0.48264730  0.62722265  1
  O  O166  1  0.20068046  0.82055310  0.11760676  1
  O  O167  1  0.19598983  0.82970944  0.63841367  1
  O  O168  1  0.52194255  0.15554438  0.13017995  1
  O  O169  1  0.53616810  0.16449722  0.61568956  1
  O  O170  1  0.53729341  0.49880632  0.12579250  1
  O  O171  1  0.53063147  0.49491236  0.62618796  1
  O  O172  1  0.53390250  0.81919646  0.12132894  1
  O  O173  1  0.52429243  0.83752818  0.62448794  1
  O  O174  1  0.84528323  0.16957187  0.11138676  1
  O  O175  1  0.84334039  0.16612607  0.63539719  1
  O  O176  1  0.85150813  0.50504979  0.12103795  1
  O  O177  1  0.87055744  0.49758018  0.63027377  1
  O  O178  1  0.86596972  0.81590547  0.12461453  1
  O  O179  1  0.86436459  0.82919240  0.64024595  1
  O  O180  1  0.13666861  0.18262844  0.37055862  1
  O  O181  1  0.13322356  0.16978929  0.86979453  1
  O  O182  1  0.15263096  0.49188647  0.38365501  1
  O  O183  1  0.13194525  0.50966598  0.87064193  1
  O  O184  1  0.15587996  0.83382808  0.37233138  1
  O  O185  1  0.13186266  0.83841128  0.87936926  1
  O  O186  1  0.47367671  0.18414194  0.37566465  1
  O  O187  1  0.48962449  0.17610325  0.88104494  1
  O  O188  1  0.46876391  0.49948693  0.38094304  1
  O  O189  1  0.49123834  0.50180195  0.87063339  1
  O  O190  1  0.46671758  0.83664161  0.37891160  1
  O  O191  1  0.48452684  0.82881858  0.87557780  1
  O  O192  1  0.79326418  0.17120113  0.37376042  1
  O  O193  1  0.79591706  0.17409076  0.87342622  1
  O  O194  1  0.81261643  0.51077282  0.36310078  1
  O  O195  1  0.79673732  0.50833394  0.88433673  1
  O  O196  1  0.79630197  0.83712253  0.36047483  1
  O  O197  1  0.79929621  0.84498438  0.87544008  1
  O  O198  1  0.01691378  0.00749105  0.36954685  1
  O  O199  1  0.01732581  0.01232942  0.87437444  1
  O  O200  1  0.03109085  0.33931668  0.36570810  1
  O  O201  1  0.01421597  0.33845591  0.88014186  1
  O  O202  1  0.01817813  0.67265085  0.37427071  1
  O  O203  1  0.03448932  0.67859607  0.87770540  1
  O  O204  1  0.37173354  0.00367003  0.36582107  1
  O  O205  1  0.35264624  0.00046334  0.87673455  1
  O  O206  1  0.36934302  0.34312456  0.37668119  1
  O  O207  1  0.36871335  0.33386763  0.87386736  1
  O  O208  1  0.35586266  0.67911323  0.36700284  1
  O  O209  1  0.34938606  0.66825131  0.88250082  1
  O  O210  1  0.67651207  0.01670107  0.37417252  1
  O  O211  1  0.70029055  0.00836761  0.87693229  1
  O  O212  1  0.67738527  0.33568876  0.38600602  1
  O  O213  1  0.70218698  0.34802200  0.87128657  1
  O  O214  1  0.70025624  0.67621730  0.36356332  1
  O  O215  1  0.69912591  0.67969203  0.88513067  1
  O  O216  1  0.07487926  0.08904175  0.01980969  1
  O  O217  1  0.06724724  0.10299747  0.50421956  1
  O  O218  1  0.06308767  0.43509564  0.00569130  1
  O  O219  1  0.07870076  0.42952846  0.52793880  1
  O  O220  1  0.06229509  0.76641688  0.01625985  1
  O  O221  1  0.06656463  0.76508212  0.53408250  1
  O  O222  1  0.41340582  0.09554725  0.03023026  1
  O  O223  1  0.40640092  0.10553445  0.52600289  1
  O  O224  1  0.41282297  0.42776608  0.01638662  1
  O  O225  1  0.40079932  0.42741646  0.51584266  1
  O  O226  1  0.40695484  0.76265900  0.02922144  1
  O  O227  1  0.40398572  0.77178197  0.52081038  1
  O  O228  1  0.72952717  0.10029230  0.00738967  1
  O  O229  1  0.72332071  0.10677414  0.52050750  1
  O  O230  1  0.72901809  0.43798066  0.01883838  1
  O  O231  1  0.72577079  0.42501101  0.52939777  1
  O  O232  1  0.73362097  0.76087412  0.02833789  1
  O  O233  1  0.73230244  0.76416472  0.50598277  1
  O  O234  1  0.08416267  0.26288223  0.01460651  1
  O  O235  1  0.11051620  0.27652880  0.51293044  1
  O  O236  1  0.09350901  0.59804148  0.00841126  1
  O  O237  1  0.09847150  0.58223828  0.52225245  1
  O  O238  1  0.10110847  0.92017722  0.02753467  1
  O  O239  1  0.09341674  0.92609247  0.52251336  1
  O  O240  1  0.43041036  0.25257396  0.01937222  1
  O  O241  1  0.42749073  0.26146628  0.52274303  1
  O  O242  1  0.43013815  0.60395193  0.02008806  1
  O  O243  1  0.43031614  0.58799204  0.51696383  1
  O  O244  1  0.43659091  0.92144805  0.03017004  1
  O  O245  1  0.43967846  0.93188706  0.50670568  1
  O  O246  1  0.76596303  0.26925967  0.00441114  1
  O  O247  1  0.75055203  0.26450203  0.52306667  1
  O  O248  1  0.76516561  0.60241069  0.02751400  1
  O  O249  1  0.75128554  0.58332990  0.51530090  1
  O  O250  1  0.75440959  0.92648525  0.01784343  1
  O  O251  1  0.75804684  0.92852347  0.51118064  1
  O  O252  1  0.24661611  0.06118836  0.26145793  1
  O  O253  1  0.23433155  0.07925129  0.76807898  1
  O  O254  1  0.24860001  0.40632869  0.28031983  1
  O  O255  1  0.23720710  0.41201233  0.76541607  1
  O  O256  1  0.24897634  0.73661084  0.26465225  1
  O  O257  1  0.22672939  0.74072441  0.77978844  1
  O  O258  1  0.55518851  0.06937290  0.26838479  1
  O  O259  1  0.57975546  0.06964944  0.77422771  1
  O  O260  1  0.56627616  0.40036844  0.27544432  1
  O  O261  1  0.57245591  0.39839357  0.77742609  1
  O  O262  1  0.58363685  0.74043352  0.27172695  1
  O  O263  1  0.57906138  0.74697618  0.76892774  1
  O  O264  1  0.91513324  0.08747047  0.26534054  1
  O  O265  1  0.89981144  0.07077752  0.78162415  1
  O  O266  1  0.90378205  0.41333287  0.26405684  1
  O  O267  1  0.90114593  0.40049296  0.78322443  1
  O  O268  1  0.89045869  0.73420411  0.26692904  1
  O  O269  1  0.89992033  0.74284719  0.78698191  1
  O  O270  1  0.25945438  0.25134037  0.27409032  1
  O  O271  1  0.25439779  0.23773360  0.76665633  1
  O  O272  1  0.27423654  0.57173259  0.27171629  1
  O  O273  1  0.25000173  0.57545988  0.76945541  1
  O  O274  1  0.28285025  0.89787025  0.26741233  1
  O  O275  1  0.25165868  0.90238947  0.76948195  1
  O  O276  1  0.58611122  0.23323749  0.27485858  1
  O  O277  1  0.60150529  0.23997327  0.77682261  1
  O  O278  1  0.60166235  0.57788459  0.26730694  1
  O  O279  1  0.60136275  0.56048945  0.76633228  1
  O  O280  1  0.59415374  0.90281083  0.28075564  1
  O  O281  1  0.60524467  0.90207113  0.77708799  1
  O  O282  1  0.93203128  0.24830921  0.26991815  1
  O  O283  1  0.92312150  0.22921769  0.78043175  1
  O  O284  1  0.91495326  0.57918293  0.26017469  1
  O  O285  1  0.92717025  0.57140728  0.79363390  1
  O  O286  1  0.91736644  0.89701225  0.26231828  1
  O  O287  1  0.93129373  0.90334232  0.78136544  1
  O  O288  1  0.26853257  0.24520861  0.47891116  1
  O  O289  1  0.26078864  0.24437434  0.98780733  1
  O  O290  1  0.26432732  0.55994815  0.47950828  1
  O  O291  1  0.25524780  0.57807645  0.97543429  1
  O  O292  1  0.27339750  0.89651777  0.48474032  1
  O  O293  1  0.26123622  0.89375608  0.99227286  1
  O  O294  1  0.59302921  0.23737945  0.47291094  1
  O  O295  1  0.60083986  0.24083976  0.97010983  1
  O  O296  1  0.58705797  0.56604820  0.48975873  1
  O  O297  1  0.60973623  0.57020391  0.97905622  1
  O  O298  1  0.59110114  0.90267850  0.47073760  1
  O  O299  1  0.60505937  0.89620345  0.97995198  1
  O  O300  1  0.93196969  0.23373204  0.47152156  1
  O  O301  1  0.92516108  0.23602917  0.96989860  1
  O  O302  1  0.92046520  0.57874499  0.47745812  1
  O  O303  1  0.92796184  0.56856049  0.97286993  1
  O  O304  1  0.93131698  0.90099740  0.50025737  1
  O  O305  1  0.92787593  0.90086848  0.96896500  1
  O  O306  1  0.24326454  0.07527188  0.48413786  1
  O  O307  1  0.23889015  0.06882076  0.99607495  1
  O  O308  1  0.24060675  0.39922444  0.47340137  1
  O  O309  1  0.23629374  0.41785075  0.98091590  1
  O  O310  1  0.24362458  0.73852482  0.48352357  1
  O  O311  1  0.23160863  0.73376649  0.97618108  1
  O  O312  1  0.56072877  0.07710945  0.47023694  1
  O  O313  1  0.57563874  0.07356320  0.97984286  1
  O  O314  1  0.56264865  0.39884590  0.48239310  1
  O  O315  1  0.57754812  0.39990773  0.96808078  1
  O  O316  1  0.56854861  0.74557400  0.48059702  1
  O  O317  1  0.57766124  0.73734339  0.97909202  1
  O  O318  1  0.90305652  0.07521104  0.48208539  1
  O  O319  1  0.89557503  0.07527026  0.97133767  1
  O  O320  1  0.90825755  0.40678518  0.48079223  1
  O  O321  1  0.89631610  0.40718379  0.97295677  1
  O  O322  1  0.89518237  0.73484164  0.47437577  1
  O  O323  1  0.90490345  0.72941817  0.97234581  1
  O  O324  1  0.08774020  0.26582417  0.22952842  1
  O  O325  1  0.09971062  0.26040605  0.72757966  1
  O  O326  1  0.09157088  0.58885025  0.23888431  1
  O  O327  1  0.09240641  0.58483786  0.73213332  1
  O  O328  1  0.09979032  0.92726450  0.21517858  1
  O  O329  1  0.08961604  0.92615428  0.72966435  1
  O  O330  1  0.42263998  0.25504044  0.22893610  1
  O  O331  1  0.42256339  0.25416151  0.72899441  1
  O  O332  1  0.43230629  0.60250369  0.22412335  1
  O  O333  1  0.43397910  0.58772794  0.73827583  1
  O  O334  1  0.43523135  0.93550600  0.22283958  1
  O  O335  1  0.42987213  0.91835586  0.73828771  1
  O  O336  1  0.75526503  0.26479563  0.23312511  1
  O  O337  1  0.76231038  0.26184124  0.73496971  1
  O  O338  1  0.76010169  0.59749405  0.21554155  1
  O  O339  1  0.76825218  0.59770093  0.74681656  1
  O  O340  1  0.75452640  0.91401112  0.21645167  1
  O  O341  1  0.77030628  0.93478708  0.74273467  1
  O  O342  1  0.08405524  0.08700722  0.21697138  1
  O  O343  1  0.06603307  0.09907933  0.73792769  1
  O  O344  1  0.07662733  0.42090622  0.23276301  1
  O  O345  1  0.07156792  0.42963254  0.73193124  1
  O  O346  1  0.06777747  0.76696321  0.22093062  1
  O  O347  1  0.06508426  0.77133181  0.73659995  1
  O  O348  1  0.39914128  0.09658276  0.21901807  1
  O  O349  1  0.40352333  0.09793626  0.72374751  1
  O  O350  1  0.40332055  0.42435048  0.23639217  1
  O  O351  1  0.41490307  0.42890992  0.73556945  1
  O  O352  1  0.40633336  0.75989621  0.21886646  1
  O  O353  1  0.41042796  0.76676304  0.73184941  1
  O  O354  1  0.73619987  0.09065582  0.23112748  1
  O  O355  1  0.72931505  0.10128203  0.73672705  1
  O  O356  1  0.73520941  0.43897145  0.22716004  1
  O  O357  1  0.72633811  0.43190259  0.72815120  1
  O  O358  1  0.73695842  0.75833479  0.21195656  1
  O  O359  1  0.74358828  0.76833680  0.74281358  1
