# generated using pymatgen
data_BaLaInIrO6
_symmetry_space_group_name_H-M   'P 1'
_cell_length_a   17.51653707
_cell_length_b   17.54863732
_cell_length_c   16.49333907
_cell_angle_alpha   89.95354882
_cell_angle_beta   90.00427495
_cell_angle_gamma   90.00328155
_symmetry_Int_Tables_number   1
_chemical_formula_structural   BaLaInIrO6
_chemical_formula_sum   'Ba36 La36 In36 Ir36 O216'
_cell_volume   5069.90817374
_cell_formula_units_Z   36
loop_
 _symmetry_equiv_pos_site_id
 _symmetry_equiv_pos_as_xyz
  1  'x, y, z'
loop_
 _atom_site_type_symbol
 _atom_site_label
 _atom_site_symmetry_multiplicity
 _atom_site_fract_x
 _atom_site_fract_y
 _atom_site_fract_z
 _atom_site_occupancy
  Ba  Ba0  1  0.49942250  0.67467712  0.62456015  1
  Ba  Ba1  1  0.50233944  0.32569880  0.37624688  1
  Ba  Ba2  1  0.50185159  0.34178517  0.12836720  1
  Ba  Ba3  1  0.66693379  0.50338262  0.12174645  1
  Ba  Ba4  1  0.16490425  0.00795266  0.12592618  1
  Ba  Ba5  1  0.32784499  0.49089997  0.37922139  1
  Ba  Ba6  1  0.33193225  0.15957628  0.37860232  1
  Ba  Ba7  1  0.66812951  0.83996480  0.12285329  1
  Ba  Ba8  1  0.33487462  0.50657089  0.12871565  1
  Ba  Ba9  1  0.66947787  0.49296976  0.87027644  1
  Ba  Ba10  1  -0.00202039  0.48368433  0.87182479  1
  Ba  Ba11  1  1.00196161  0.17533503  0.12613660  1
  Ba  Ba12  1  0.32810037  0.82188130  0.87121493  1
  Ba  Ba13  1  0.50059802  0.67097094  0.12457768  1
  Ba  Ba14  1  0.66683214  0.17331871  0.12690247  1
  Ba  Ba15  1  0.49812502  0.00472830  0.12428278  1
  Ba  Ba16  1  0.49922117  0.65548335  0.37568452  1
  Ba  Ba17  1  0.83537633  0.99367939  0.37204762  1
  Ba  Ba18  1  0.50017766  0.00530851  0.62729559  1
  Ba  Ba19  1  0.17309735  0.32596143  0.37074117  1
  Ba  Ba20  1  0.66499892  0.15728981  0.37710198  1
  Ba  Ba21  1  0.00188306  0.48334456  0.37987317  1
  Ba  Ba22  1  1.00453031  0.84395877  0.12493761  1
  Ba  Ba23  1  0.16784000  0.65643314  0.38005606  1
  Ba  Ba24  1  1.00365898  0.84519300  0.62443666  1
  Ba  Ba25  1  0.66848791  0.82483110  0.37464507  1
  Ba  Ba26  1  0.66362808  0.82473181  0.87255651  1
  Ba  Ba27  1  0.16598431  0.34094963  0.11937953  1
  Ba  Ba28  1  0.83631943  0.32454211  0.37590392  1
  Ba  Ba29  1  1.00538494  0.50556734  0.12376712  1
  Ba  Ba30  1  0.83708133  0.32589144  0.87759161  1
  Ba  Ba31  1  0.00180847  0.15982464  0.87660951  1
  Ba  Ba32  1  0.32468133  0.15962504  0.87707453  1
  Ba  Ba33  1  0.83293093  0.67660815  0.62853971  1
  Ba  Ba34  1  0.16713252  0.32474843  0.87473788  1
  Ba  Ba35  1  0.50020137  0.32807968  0.87830778  1
  La  La36  1  0.82986433  0.34796162  0.12526953  1
  La  La37  1  0.49882393  0.64831490  0.87220462  1
  La  La38  1  1.00159121  0.18417475  0.62494947  1
  La  La39  1  0.33344213  0.84548056  0.62252709  1
  La  La40  1  0.83333794  0.34701607  0.62712583  1
  La  La41  1  0.84068078  0.65023022  0.87608551  1
  La  La42  1  0.33346084  0.51374611  0.62608724  1
  La  La43  1  0.33849651  0.84667244  0.12554117  1
  La  La44  1  0.33846023  0.18624075  0.12823544  1
  La  La45  1  0.50693513  0.99083270  0.37341312  1
  La  La46  1  0.67044307  0.84804161  0.62159858  1
  La  La47  1  0.82513816  0.01437486  0.11966085  1
  La  La48  1  0.16901754  0.65204740  0.87496555  1
  La  La49  1  0.83881202  0.98412132  0.87615701  1
  La  La50  1  0.16223774  0.01135121  0.62824854  1
  La  La51  1  0.33503600  0.18681807  0.62367521  1
  La  La52  1  1.00845521  0.51949003  0.62659808  1
  La  La53  1  0.32619746  0.48829141  0.88114426  1
  La  La54  1  0.16223439  0.68231593  0.12437445  1
  La  La55  1  0.82455626  0.67966471  0.12143074  1
  La  La56  1  0.33259353  0.82281624  0.37197354  1
  La  La57  1  0.65894746  0.15485188  0.87603867  1
  La  La58  1  0.66919186  0.51403819  0.62382182  1
  La  La59  1  -0.00284527  0.81772409  0.87354718  1
  La  La60  1  0.84305001  0.65612218  0.36939278  1
  La  La61  1  0.66487611  0.49394152  0.37154216  1
  La  La62  1  0.16695798  0.98247842  0.87787634  1
  La  La63  1  0.66823954  0.18355891  0.62513689  1
  La  La64  1  -0.00093020  0.15773854  0.37336306  1
  La  La65  1  0.49729762  0.35082858  0.62315414  1
  La  La66  1  0.16192535  0.68616707  0.62572881  1
  La  La67  1  0.82651957  0.01635358  0.62578066  1
  La  La68  1  0.16165026  0.35204204  0.62406513  1
  La  La69  1  0.49902006  0.98618672  0.87570877  1
  La  La70  1  0.16787120  0.98221487  0.37531911  1
  La  La71  1  -0.00590275  0.81846046  0.37641632  1
  In  In72  1  0.66907678  0.33320273  0.25015698  1
  In  In73  1  0.32938265  0.66804403  0.00123409  1
  In  In74  1  0.33160921  0.00375190  0.25268091  1
  In  In75  1  0.66699856  -0.00222328  -0.00510423  1
  In  In76  1  0.33042042  0.66737261  0.50302479  1
  In  In77  1  0.16641824  0.16528973  0.74772003  1
  In  In78  1  0.66914653  0.33416673  0.50298952  1
  In  In79  1  0.83636957  0.50057993  0.50318692  1
  In  In80  1  0.66796159  -0.00008919  0.24858224  1
  In  In81  1  0.66653906  0.00172199  0.75087382  1
  In  In82  1  -0.00257678  0.00068382  0.74881447  1
  In  In83  1  0.66916440  0.66825363  0.49994407  1
  In  In84  1  0.83609876  0.83662712  0.50340360  1
  In  In85  1  0.49900172  0.49954325  0.00015275  1
  In  In86  1  0.83746927  0.49941208  0.74734578  1
  In  In87  1  0.00186146  0.66446416  0.24591146  1
  In  In88  1  0.66951713  0.66690148  0.24914097  1
  In  In89  1  0.49627693  0.82909058  -0.00389732  1
  In  In90  1  0.32888696  0.00139851  0.74799402  1
  In  In91  1  0.83766640  0.83518533  0.24826087  1
  In  In92  1  0.16668349  0.16541910  0.49989286  1
  In  In93  1  0.50009123  0.16461602  0.50274018  1
  In  In94  1  0.83740310  0.50129262  0.25045105  1
  In  In95  1  0.49684097  0.16707749  0.74856147  1
  In  In96  1  0.66665451  0.66560564  -0.00715436  1
  In  In97  1  0.83686416  0.16813232  0.25067619  1
  In  In98  1  0.16781351  0.50072619  0.24901624  1
  In  In99  1  0.83139385  0.16842007  0.75314425  1
  In  In100  1  0.66915773  0.33076502  -0.00332649  1
  In  In101  1  0.49483768  0.16422344  -0.00257349  1
  In  In102  1  0.49872118  0.83224790  0.25045209  1
  In  In103  1  0.00314628  -0.00089298  0.25098688  1
  In  In104  1  0.49837252  0.83338545  0.50168238  1
  In  In105  1  0.33338262  0.33632265  0.74882194  1
  In  In106  1  0.16538182  0.16387234  0.00275671  1
  In  In107  1  0.66676498  0.67049735  0.74964108  1
  Ir  Ir108  1  0.66452575  0.33399996  0.74671694  1
  Ir  Ir109  1  0.00030157  0.33302191  0.74578947  1
  Ir  Ir110  1  0.00475996  0.66841745  0.50305380  1
  Ir  Ir111  1  0.16900831  0.83194600  0.25213849  1
  Ir  Ir112  1  0.00142500  0.33006109  0.50335358  1
  Ir  Ir113  1  -0.00193525  -0.00285658  -0.00247519  1
  Ir  Ir114  1  0.16615571  0.49883128  0.50716001  1
  Ir  Ir115  1  0.32763557  0.66855684  0.25073547  1
  Ir  Ir116  1  0.16431340  0.50155381  -0.00434415  1
  Ir  Ir117  1  0.32984567  0.33724233  0.50285184  1
  Ir  Ir118  1  0.16248962  0.83219850  -0.00201801  1
  Ir  Ir119  1  0.66797980  0.00154596  0.50204770  1
  Ir  Ir120  1  0.49521618  0.83132206  0.74777519  1
  Ir  Ir121  1  0.49867650  0.49738887  0.50124071  1
  Ir  Ir122  1  0.00201961  0.00282771  0.50218692  1
  Ir  Ir123  1  0.83506548  0.16654266  -0.00051003  1
  Ir  Ir124  1  0.49572454  0.16751285  0.25141823  1
  Ir  Ir125  1  0.49718783  0.50005546  0.25723913  1
  Ir  Ir126  1  0.33519029  0.33275318  0.25399744  1
  Ir  Ir127  1  0.84220029  0.50122137  -0.00029435  1
  Ir  Ir128  1  0.32868061  -0.00236400  0.49969087  1
  Ir  Ir129  1  0.49540722  0.50042322  0.74440137  1
  Ir  Ir130  1  0.83999029  0.83176734  -0.00649967  1
  Ir  Ir131  1  0.83977520  0.16414361  0.50490134  1
  Ir  Ir132  1  0.16706415  0.50391843  0.75030375  1
  Ir  Ir133  1  0.32992031  0.66486569  0.74972692  1
  Ir  Ir134  1  0.32827323  -0.00205547  -0.00125856  1
  Ir  Ir135  1  -0.00197773  0.33273496  0.00137344  1
  Ir  Ir136  1  0.00142937  0.66758589  -0.00326143  1
  Ir  Ir137  1  0.83598046  0.83468635  0.75186982  1
  Ir  Ir138  1  0.16570594  0.83068167  0.74972695  1
  Ir  Ir139  1  0.16779675  0.16765400  0.25231412  1
  Ir  Ir140  1  0.33101806  0.33608306  0.00322634  1
  Ir  Ir141  1  0.00468586  0.67016703  0.75095782  1
  Ir  Ir142  1  0.16601884  0.83612773  0.49959505  1
  Ir  Ir143  1  0.00400074  0.32953027  0.25270903  1
  O  O144  1  0.31509506  0.32474590  0.12975111  1
  O  O145  1  0.30031905  0.33624933  0.61983904  1
  O  O146  1  0.29753260  0.66261957  0.13006259  1
  O  O147  1  0.29739090  0.65575333  0.63156651  1
  O  O148  1  0.30913630  0.98436037  0.11964323  1
  O  O149  1  0.29426489  0.98279682  0.61721181  1
  O  O150  1  0.65454926  0.33375505  0.12354630  1
  O  O151  1  0.63364257  0.32272966  0.63048058  1
  O  O152  1  0.65441179  0.66097881  0.11907796  1
  O  O153  1  0.64499775  0.65270178  0.62695353  1
  O  O154  1  0.65301813  1.00127940  0.12019841  1
  O  O155  1  0.65210820  0.98963065  0.62197955  1
  O  O156  1  0.97011418  0.33285191  0.12685172  1
  O  O157  1  0.96923416  0.32522646  0.62377554  1
  O  O158  1  0.96690513  0.66523693  0.11489640  1
  O  O159  1  0.98283489  0.65890042  0.62732467  1
  O  O160  1  0.96583829  0.99613426  0.11801639  1
  O  O161  1  0.96484103  0.99526985  0.61936507  1
  O  O162  1  0.19803867  0.16308527  0.13187019  1
  O  O163  1  0.20167736  0.14598948  0.62192685  1
  O  O164  1  0.18298697  0.49783645  0.11494401  1
  O  O165  1  0.19574534  0.49170021  0.62988457  1
  O  O166  1  0.19813543  0.82358572  0.12546449  1
  O  O167  1  0.19664931  0.82467265  0.62518744  1
  O  O168  1  0.51084297  0.16831289  0.13041100  1
  O  O169  1  0.53512118  0.15719012  0.62592540  1
  O  O170  1  0.51091225  0.50442234  0.13669956  1
  O  O171  1  0.52941087  0.49609907  0.62271965  1
  O  O172  1  0.51435317  0.83179994  0.12286378  1
  O  O173  1  0.53004307  0.83023455  0.63058619  1
  O  O174  1  0.85626085  0.15038758  0.11810833  1
  O  O175  1  0.86676315  0.15314585  0.62378273  1
  O  O176  1  0.85704661  0.49207877  0.11864703  1
  O  O177  1  0.87602897  0.48953788  0.62584351  1
  O  O178  1  0.86017421  0.81799728  0.11184235  1
  O  O179  1  0.85676225  0.83496576  0.63412656  1
  O  O180  1  0.13756486  0.17220291  0.37339374  1
  O  O181  1  0.15332489  0.17040159  0.87541262  1
  O  O182  1  0.15084343  0.50020850  0.38488408  1
  O  O183  1  0.14174277  0.51487361  0.87179656  1
  O  O184  1  0.13341721  0.84136081  0.37659870  1
  O  O185  1  0.13289205  0.84152470  0.87358849  1
  O  O186  1  0.48026558  0.16409059  0.37275191  1
  O  O187  1  0.47138114  0.17638268  0.87268221  1
  O  O188  1  0.47553085  0.49506350  0.37981875  1
  O  O189  1  0.46244772  0.50417512  0.86292764  1
  O  O190  1  0.46581960  0.84991366  0.37781261  1
  O  O191  1  0.47314862  0.84542853  0.86495187  1
  O  O192  1  0.81871807  0.17004819  0.38670455  1
  O  O193  1  0.80084802  0.17451218  0.88006809  1
  O  O194  1  0.80444890  0.50935886  0.37926303  1
  O  O195  1  0.82493505  0.50699749  0.87777645  1
  O  O196  1  0.82076492  0.83275081  0.37838369  1
  O  O197  1  0.81404559  0.84394304  0.87196882  1
  O  O198  1  0.03508609  0.01555793  0.38420332  1
  O  O199  1  0.02988283  0.00053516  0.87764375  1
  O  O200  1  0.02683826  0.32319287  0.37775712  1
  O  O201  1  0.02035049  0.33051889  0.87043979  1
  O  O202  1  0.02208987  0.67866799  0.38328548  1
  O  O203  1  0.03461870  0.67853064  0.87342697  1
  O  O204  1  0.36557524  0.00332313  0.38300507  1
  O  O205  1  0.35878903  0.00418645  0.87787031  1
  O  O206  1  0.35298477  0.33434494  0.37857760  1
  O  O207  1  0.34654425  0.34439915  0.88004207  1
  O  O208  1  0.34737463  0.68155367  0.37299683  1
  O  O209  1  0.36023203  0.66773628  0.86748528  1
  O  O210  1  0.68465028  0.00259745  0.38374596  1
  O  O211  1  0.70494917  0.01210754  0.87273253  1
  O  O212  1  0.68471248  0.35401637  0.37806365  1
  O  O213  1  0.68729421  0.33792553  0.86458516  1
  O  O214  1  0.70617818  0.66099682  0.37636417  1
  O  O215  1  0.70581938  0.66920014  0.87051381  1
  O  O216  1  0.06822276  0.08533456  0.01816684  1
  O  O217  1  0.06615117  0.09493677  0.53069711  1
  O  O218  1  0.07174637  0.42642406  0.01221321  1
  O  O219  1  0.06869402  0.42812323  0.53251223  1
  O  O220  1  0.07307203  0.75766692  0.02196497  1
  O  O221  1  0.07830980  0.75951060  0.52555368  1
  O  O222  1  0.39145630  0.09178145  0.02476579  1
  O  O223  1  0.39130840  0.09331191  0.52756885  1
  O  O224  1  0.40010247  0.42563137  0.00958624  1
  O  O225  1  0.40089636  0.43064836  0.53023928  1
  O  O226  1  0.39145768  0.76831727  0.02206398  1
  O  O227  1  0.39639045  0.76607171  0.52323829  1
  O  O228  1  0.74749996  0.09639707  0.01542735  1
  O  O229  1  0.74003835  0.09832287  0.52967760  1
  O  O230  1  0.75568954  0.42636920  0.01307172  1
  O  O231  1  0.74434821  0.42230998  0.54034807  1
  O  O232  1  0.75099959  0.76118260  0.01199281  1
  O  O233  1  0.73613563  0.77007900  0.52979209  1
  O  O234  1  0.08506921  0.25977917  0.01346560  1
  O  O235  1  0.09383115  0.26361492  0.53334446  1
  O  O236  1  0.09911385  0.60156855  0.01946644  1
  O  O237  1  0.09855752  0.59495671  0.53278724  1
  O  O238  1  0.09358013  0.92760421  0.01615571  1
  O  O239  1  0.10131173  0.93703014  0.52061129  1
  O  O240  1  0.41698956  0.26141017  0.02232637  1
  O  O241  1  0.42270154  0.26755580  0.52732597  1
  O  O242  1  0.42310253  0.59368806  0.00621184  1
  O  O243  1  0.42367063  0.58525849  0.51894211  1
  O  O244  1  0.41680497  0.92912315  0.01221448  1
  O  O245  1  0.41542980  0.92773103  0.52580369  1
  O  O246  1  0.77340548  0.26040659  0.02555900  1
  O  O247  1  0.77151420  0.25594169  0.53216462  1
  O  O248  1  0.77667259  0.59572591  0.01219044  1
  O  O249  1  0.75507168  0.58520092  0.53213951  1
  O  O250  1  0.77591815  0.92711700  0.01402537  1
  O  O251  1  0.76398238  0.93716072  0.52547306  1
  O  O252  1  0.23118472  0.07198912  0.27788838  1
  O  O253  1  0.22214442  0.05538775  0.76785423  1
  O  O254  1  0.24784988  0.40676831  0.25995098  1
  O  O255  1  0.23894989  0.41614146  0.76927800  1
  O  O256  1  0.23682590  0.73887105  0.27021102  1
  O  O257  1  0.23045959  0.72949578  0.77079198  1
  O  O258  1  0.56208291  0.07539128  0.26875285  1
  O  O259  1  0.56885647  0.06857268  0.78246805  1
  O  O260  1  0.57306103  0.41627301  0.27086513  1
  O  O261  1  0.56452762  0.40304717  0.75922467  1
  O  O262  1  0.57377092  0.73925817  0.26883542  1
  O  O263  1  0.56110914  0.73858508  0.77358903  1
  O  O264  1  0.91908480  0.08106232  0.27384211  1
  O  O265  1  0.89351068  0.06245757  0.77044735  1
  O  O266  1  0.91420810  0.39926768  0.26403818  1
  O  O267  1  0.90613665  0.39784549  0.75985602  1
  O  O268  1  0.91119016  0.73834244  0.27532012  1
  O  O269  1  0.90673970  0.73817800  0.77847326  1
  O  O270  1  0.26595464  0.23591218  0.26311795  1
  O  O271  1  0.26459475  0.23765194  0.75119630  1
  O  O272  1  0.26185352  0.57794561  0.26899537  1
  O  O273  1  0.26291486  0.57036985  0.77836222  1
  O  O274  1  0.25789581  0.90220158  0.28025359  1
  O  O275  1  0.25399603  0.89975260  0.76395348  1
  O  O276  1  0.58730973  0.23791152  0.26629869  1
  O  O277  1  0.60658703  0.23468821  0.76869945  1
  O  O278  1  0.59168292  0.56619866  0.27497350  1
  O  O279  1  0.57996830  0.57473448  0.76972229  1
  O  O280  1  0.58513777  0.91690915  0.27649066  1
  O  O281  1  0.58438241  0.90524893  0.76456224  1
  O  O282  1  0.93914014  0.23762360  0.27284186  1
  O  O283  1  0.93444533  0.23790465  0.75710415  1
  O  O284  1  0.92960058  0.57401151  0.28014092  1
  O  O285  1  0.93182106  0.58257803  0.76650352  1
  O  O286  1  0.94053581  0.89976553  0.27561691  1
  O  O287  1  0.93175372  0.89773790  0.77760668  1
  O  O288  1  0.26373280  0.24296692  0.49117132  1
  O  O289  1  0.25970653  0.24726278  0.99669015  1
  O  O290  1  0.25811285  0.56823136  0.49525873  1
  O  O291  1  0.25345460  0.57258974  0.97023831  1
  O  O292  1  0.26171131  0.90155866  0.46939782  1
  O  O293  1  0.25255535  0.90658391  0.97317456  1
  O  O294  1  0.59807495  0.23735780  0.49071954  1
  O  O295  1  0.60010952  0.23125516  0.97689420  1
  O  O296  1  0.59510722  0.55919555  0.47831598  1
  O  O297  1  0.58654961  0.57679169  0.96710222  1
  O  O298  1  0.59780285  0.91079715  0.48732341  1
  O  O299  1  0.58411840  0.91156022  0.97110952  1
  O  O300  1  0.94028860  0.22779516  0.48511132  1
  O  O301  1  0.92712457  0.23753737  0.98404861  1
  O  O302  1  0.93262115  0.58087382  0.48428232  1
  O  O303  1  0.93054427  0.57888496  0.97143529  1
  O  O304  1  0.94172867  0.90756272  0.47584856  1
  O  O305  1  0.93310215  0.90190507  0.96823487  1
  O  O306  1  0.23354357  0.05969861  0.47536477  1
  O  O307  1  0.23524666  0.06232907  0.97748067  1
  O  O308  1  0.23135873  0.40241262  0.49085456  1
  O  O309  1  0.24090104  0.41428426  0.97454745  1
  O  O310  1  0.23400976  0.74513123  0.48811669  1
  O  O311  1  0.22449042  0.73525144  0.97742395  1
  O  O312  1  0.57026093  0.06305230  0.47894870  1
  O  O313  1  0.56958352  0.07117621  0.96737754  1
  O  O314  1  0.56651535  0.40679979  0.49470623  1
  O  O315  1  0.57751478  0.41071617  0.98684224  1
  O  O316  1  0.57254074  0.74034599  0.48140606  1
  O  O317  1  0.56410798  0.73277578  0.96703473  1
  O  O318  1  0.91051889  0.07123476  0.47852696  1
  O  O319  1  0.90148189  0.06484263  0.97377228  1
  O  O320  1  0.91062049  0.39860948  0.48657449  1
  O  O321  1  0.90840500  0.40466365  0.98852093  1
  O  O322  1  0.91334435  0.73768293  0.48040472  1
  O  O323  1  0.90887680  0.73730933  0.96450950  1
  O  O324  1  0.09896695  0.25924175  0.23098733  1
  O  O325  1  0.09393251  0.26746843  0.71932623  1
  O  O326  1  0.10049760  0.59878986  0.22435890  1
  O  O327  1  0.09988172  0.60039287  0.72478561  1
  O  O328  1  0.10378064  0.92583483  0.24156389  1
  O  O329  1  0.10075896  0.92799495  0.72860897  1
  O  O330  1  0.42397733  0.25943303  0.23342693  1
  O  O331  1  0.42966398  0.26748265  0.71455453  1
  O  O332  1  0.42040144  0.59832850  0.23739087  1
  O  O333  1  0.41983114  0.59064092  0.72173384  1
  O  O334  1  0.41615297  0.92248702  0.22999160  1
  O  O335  1  0.41986674  0.91800086  0.72570162  1
  O  O336  1  0.77147625  0.26573107  0.22888705  1
  O  O337  1  0.75912127  0.26914545  0.72094657  1
  O  O338  1  0.77459734  0.60298283  0.22834172  1
  O  O339  1  0.75615554  0.58546104  0.73164400  1
  O  O340  1  0.77043966  0.93220560  0.22208190  1
  O  O341  1  0.77078005  0.93031621  0.73018285  1
  O  O342  1  0.07947358  0.09795031  0.23791193  1
  O  O343  1  0.06493393  0.09817524  0.71873671  1
  O  O344  1  0.07478757  0.41915358  0.23931159  1
  O  O345  1  0.07196266  0.43232184  0.72155571  1
  O  O346  1  0.08131277  0.75995488  0.23042395  1
  O  O347  1  0.07611122  0.75937143  0.73019270  1
  O  O348  1  0.40028651  0.10297855  0.22939721  1
  O  O349  1  0.39402256  0.09957277  0.71949568  1
  O  O350  1  0.40605097  0.42525726  0.23800696  1
  O  O351  1  0.40621837  0.43132073  0.71652090  1
  O  O352  1  0.38950590  0.76361208  0.23306571  1
  O  O353  1  0.39716860  0.76145488  0.72135254  1
  O  O354  1  0.74641165  0.09048374  0.23678431  1
  O  O355  1  0.73350851  0.10188450  0.72021991  1
  O  O356  1  0.74581239  0.42711296  0.23264003  1
  O  O357  1  0.73315916  0.42588036  0.72090938  1
  O  O358  1  0.74825271  0.75852311  0.22462691  1
  O  O359  1  0.73739454  0.77442680  0.72652826  1
