# generated using pymatgen
data_BaLaInIrO6
_symmetry_space_group_name_H-M   'P 1'
_cell_length_a   17.52758708
_cell_length_b   17.55789478
_cell_length_c   16.50719629
_cell_angle_alpha   89.98303814
_cell_angle_beta   90.03814657
_cell_angle_gamma   90.06730346
_symmetry_Int_Tables_number   1
_chemical_formula_structural   BaLaInIrO6
_chemical_formula_sum   'Ba36 La36 In36 Ir36 O216'
_cell_volume   5080.04402695
_cell_formula_units_Z   36
loop_
 _symmetry_equiv_pos_site_id
 _symmetry_equiv_pos_as_xyz
  1  'x, y, z'
loop_
 _atom_site_type_symbol
 _atom_site_label
 _atom_site_symmetry_multiplicity
 _atom_site_fract_x
 _atom_site_fract_y
 _atom_site_fract_z
 _atom_site_occupancy
  Ba  Ba0  1  0.83102274  0.01009492  0.12615977  1
  Ba  Ba1  1  0.83093167  0.32209314  0.37300884  1
  Ba  Ba2  1  0.66771305  0.82330916  0.87926503  1
  Ba  Ba3  1  0.66282790  0.83622993  0.62724043  1
  Ba  Ba4  1  1.00412023  0.17724890  0.62649262  1
  Ba  Ba5  1  0.49730676  0.67320924  0.62300934  1
  Ba  Ba6  1  0.17073248  0.32825172  0.87385179  1
  Ba  Ba7  1  0.17002354  0.99226171  0.87344761  1
  Ba  Ba8  1  0.83301231  0.32709772  0.87612506  1
  Ba  Ba9  1  0.33610909  0.84667183  0.12580058  1
  Ba  Ba10  1  0.66628733  0.50400443  0.12799161  1
  Ba  Ba11  1  1.00004083  0.17479193  0.12397044  1
  Ba  Ba12  1  0.50166830  0.32981946  0.87585661  1
  Ba  Ba13  1  0.33156850  0.82260868  0.87946736  1
  Ba  Ba14  1  0.33359595  0.15551647  0.37352926  1
  Ba  Ba15  1  0.50133791  0.66032471  0.87774795  1
  Ba  Ba16  1  0.66460329  0.48849646  0.37433461  1
  Ba  Ba17  1  0.16334544  0.01120224  0.62417757  1
  Ba  Ba18  1  0.50060287  0.32118666  0.37290490  1
  Ba  Ba19  1  0.16394323  0.67298386  0.62256040  1
  Ba  Ba20  1  0.16456640  0.34437478  0.62530173  1
  Ba  Ba21  1  0.49935310  0.99335200  0.37290523  1
  Ba  Ba22  1  0.49969643  0.34519055  0.12910071  1
  Ba  Ba23  1  0.50157866  0.98759916  0.87729566  1
  Ba  Ba24  1  0.66785478  0.84336005  0.12996629  1
  Ba  Ba25  1  0.84048828  0.66034563  0.87084194  1
  Ba  Ba26  1  -0.00112168  0.82625859  0.87100573  1
  Ba  Ba27  1  0.83501289  0.00846602  0.62409869  1
  Ba  Ba28  1  0.33428654  0.17764565  0.62361714  1
  Ba  Ba29  1  0.00174636  0.49189827  0.87515644  1
  Ba  Ba30  1  0.83106535  0.65723524  0.37244437  1
  Ba  Ba31  1  0.16594556  0.00823657  0.12039520  1
  Ba  Ba32  1  0.83286744  0.67798771  0.61813145  1
  Ba  Ba33  1  0.16818058  0.65635923  0.87444097  1
  Ba  Ba34  1  0.33716608  0.50950521  0.12790024  1
  Ba  Ba35  1  0.83185897  0.34079008  0.12841371  1
  La  La36  1  0.17360350  0.31461567  0.37911500  1
  La  La37  1  0.16611725  0.68518994  0.12512800  1
  La  La38  1  -0.00243905  0.82340731  0.37431609  1
  La  La39  1  1.00297725  0.84739039  0.62538587  1
  La  La40  1  0.17541540  0.98404926  0.37104831  1
  La  La41  1  -0.00196141  0.14878785  0.37649304  1
  La  La42  1  0.50602903  0.65516784  0.36605137  1
  La  La43  1  0.83140528  0.98597453  0.37435898  1
  La  La44  1  1.00027757  0.50868346  0.12476111  1
  La  La45  1  0.49440834  0.35017133  0.62418174  1
  La  La46  1  0.66091353  0.14916610  0.87614866  1
  La  La47  1  0.83216744  0.67874893  0.12281453  1
  La  La48  1  0.33784041  0.17722820  0.12181933  1
  La  La49  1  1.00401835  0.51004666  0.62909590  1
  La  La50  1  0.49242163  0.01471597  0.62764175  1
  La  La51  1  -0.00732776  0.48279169  0.38069870  1
  La  La52  1  0.67107986  0.17769863  0.62265648  1
  La  La53  1  0.66724485  0.51624281  0.62347759  1
  La  La54  1  1.00540646  0.84876039  0.11886338  1
  La  La55  1  0.32763368  0.15417084  0.87285694  1
  La  La56  1  0.67241169  0.18336837  0.12759257  1
  La  La57  1  0.66087663  0.15186605  0.37141455  1
  La  La58  1  0.34208284  0.84717865  0.63044268  1
  La  La59  1  0.16155269  0.34619833  0.12767936  1
  La  La60  1  0.83170628  0.98908490  0.87343897  1
  La  La61  1  0.49517898  0.68278996  0.12252114  1
  La  La62  1  0.16976806  0.64310725  0.37272315  1
  La  La63  1  0.49607911  0.01642392  0.12588270  1
  La  La64  1  -0.00059651  0.15301731  0.87411202  1
  La  La65  1  0.33408881  0.51505465  0.62803568  1
  La  La66  1  0.82955537  0.34651750  0.62437145  1
  La  La67  1  0.66175605  0.82051394  0.37636318  1
  La  La68  1  0.33007971  0.47999750  0.38133230  1
  La  La69  1  0.32897798  0.48970126  0.87560348  1
  La  La70  1  0.33041277  0.82190061  0.37301531  1
  La  La71  1  0.67101684  0.49908015  0.88477150  1
  In  In72  1  0.16615423  0.82887299  0.49798343  1
  In  In73  1  0.66514868  -0.00142315  0.49963846  1
  In  In74  1  0.83220128  0.49830864  0.49879327  1
  In  In75  1  0.49879125  0.50084348  0.49767978  1
  In  In76  1  -0.00088308  0.00018886  0.25059071  1
  In  In77  1  0.83508273  0.83466514  0.74565784  1
  In  In78  1  0.33190357  0.00051626  0.49753305  1
  In  In79  1  0.00188944  0.66525041  0.25190650  1
  In  In80  1  0.16832830  0.83413640  -0.00254301  1
  In  In81  1  0.16944275  0.50229402  0.00376899  1
  In  In82  1  0.66500833  0.33553889  0.74760887  1
  In  In83  1  0.16888798  0.17069305  -0.00053871  1
  In  In84  1  0.66649379  0.33558188  -0.00151123  1
  In  In85  1  0.49970913  0.16981932  -0.00134179  1
  In  In86  1  0.83413964  0.16716146  0.49853193  1
  In  In87  1  0.83219136  0.83449333  0.00399431  1
  In  In88  1  0.49736374  0.83567593  0.49704927  1
  In  In89  1  0.66412692  0.00028758  0.74711691  1
  In  In90  1  0.00150073  0.66685294  0.49705230  1
  In  In91  1  0.50013772  0.17121886  0.75167173  1
  In  In92  1  0.83543462  0.50088516  0.00195643  1
  In  In93  1  0.33326013  0.66500254  0.25013052  1
  In  In94  1  -0.00066852  0.33272467  0.75160583  1
  In  In95  1  0.33252306  0.33180097  0.24921645  1
  In  In96  1  0.00036179  0.66607266  0.00307778  1
  In  In97  1  0.50166276  0.83081676  0.75258161  1
  In  In98  1  0.83179845  0.16858274  0.75007440  1
  In  In99  1  0.83232954  0.16718994  0.00014123  1
  In  In100  1  0.00143618  0.33070324  0.25325933  1
  In  In101  1  0.66876496  0.66479024  0.24625028  1
  In  In102  1  0.66901135  0.66423182  0.75314670  1
  In  In103  1  0.00185284  0.00004162  0.74928498  1
  In  In104  1  0.33143330  0.66852049  0.49765761  1
  In  In105  1  0.16786527  0.16529106  0.24920697  1
  In  In106  1  0.33223728  0.00049985  0.74982596  1
  In  In107  1  0.50072868  0.50078931  0.75358185  1
  Ir  Ir108  1  0.83459753  0.83459847  0.25417166  1
  Ir  Ir109  1  0.83734381  0.49676268  0.25286389  1
  Ir  Ir110  1  0.66672329  0.00010922  0.24912228  1
  Ir  Ir111  1  0.33105033  0.33249562  0.50510352  1
  Ir  Ir112  1  0.66476846  0.66839998  0.49477613  1
  Ir  Ir113  1  0.66406541  0.66546522  0.00633576  1
  Ir  Ir114  1  0.16091539  0.16770886  0.49943613  1
  Ir  Ir115  1  0.00278999  0.33351145  0.00221244  1
  Ir  Ir116  1  0.33404110  0.33453066  -0.00241378  1
  Ir  Ir117  1  0.82831313  0.16397517  0.25424816  1
  Ir  Ir118  1  0.66600666  0.33170989  0.25526419  1
  Ir  Ir119  1  0.17063032  0.82740234  0.74596707  1
  Ir  Ir120  1  0.00257555  0.33282186  0.49873242  1
  Ir  Ir121  1  0.33291759  0.33803063  0.74706380  1
  Ir  Ir122  1  0.49915057  0.83702611  0.24885066  1
  Ir  Ir123  1  0.33433273  0.66496791  0.00043489  1
  Ir  Ir124  1  0.50404893  0.16926292  0.49711203  1
  Ir  Ir125  1  0.49568757  0.50263967  0.00350039  1
  Ir  Ir126  1  0.00327983  -0.00119007  0.49385902  1
  Ir  Ir127  1  0.66180945  0.33056436  0.50052283  1
  Ir  Ir128  1  0.83494014  0.83495412  0.49216012  1
  Ir  Ir129  1  0.16555165  0.49843497  0.25467483  1
  Ir  Ir130  1  0.16355353  0.83242596  0.24900077  1
  Ir  Ir131  1  0.83443976  0.50057602  0.74315994  1
  Ir  Ir132  1  0.16474813  0.49555726  0.49710714  1
  Ir  Ir133  1  0.66399978  0.00067102  0.00735209  1
  Ir  Ir134  1  0.16742498  0.17073721  0.74991074  1
  Ir  Ir135  1  0.33631685  0.00287959  0.00466775  1
  Ir  Ir136  1  0.50326529  0.16400505  0.24937831  1
  Ir  Ir137  1  0.16973494  0.50010204  0.74655071  1
  Ir  Ir138  1  0.32979764  0.66560862  0.75171669  1
  Ir  Ir139  1  0.49789977  0.50234507  0.24910411  1
  Ir  Ir140  1  0.50123393  0.83420372  0.00760141  1
  Ir  Ir141  1  0.33464455  -0.00207225  0.24716253  1
  Ir  Ir142  1  -0.00078390  0.00128352  -0.00110586  1
  Ir  Ir143  1  0.00251295  0.66261219  0.74663983  1
  O  O144  1  0.30211410  0.32179887  0.11876520  1
  O  O145  1  0.31054182  0.33044383  0.62672392  1
  O  O146  1  0.30426016  0.66293452  0.12220122  1
  O  O147  1  0.31268265  0.65486334  0.63059175  1
  O  O148  1  0.31464137  1.00659675  0.12650510  1
  O  O149  1  0.31008145  0.98660277  0.62250413  1
  O  O150  1  0.64810084  0.32571862  0.13365653  1
  O  O151  1  0.63115659  0.31655111  0.61622948  1
  O  O152  1  0.63291133  0.66557707  0.12383081  1
  O  O153  1  0.64897679  0.65702745  0.61593021  1
  O  O154  1  0.63147406  0.99496909  0.12869534  1
  O  O155  1  0.62699244  0.99295036  0.62100114  1
  O  O156  1  0.98477686  0.33187290  0.12241032  1
  O  O157  1  0.96979696  0.33002032  0.61818318  1
  O  O158  1  0.96707281  0.64850725  0.13254460  1
  O  O159  1  0.98542564  0.64913630  0.62574532  1
  O  O160  1  0.98213210  0.99363557  0.12149421  1
  O  O161  1  0.98541345  0.99257918  0.61488487  1
  O  O162  1  0.20101489  0.16571632  0.12402770  1
  O  O163  1  0.18540564  0.16573014  0.62387633  1
  O  O164  1  0.19000739  0.48386087  0.13586311  1
  O  O165  1  0.19864893  0.49907669  0.61922602  1
  O  O166  1  0.18773890  0.82527282  0.13028847  1
  O  O167  1  0.20252970  0.82815481  0.62578406  1
  O  O168  1  0.53180022  0.15952599  0.12983578  1
  O  O169  1  0.53172768  0.16067899  0.61645082  1
  O  O170  1  0.51818916  0.50065514  0.12664021  1
  O  O171  1  0.52798285  0.49981903  0.62285190  1
  O  O172  1  0.52191312  0.82370998  0.12939857  1
  O  O173  1  0.51182372  0.82472762  0.62273873  1
  O  O174  1  0.85059545  0.16483422  0.13415014  1
  O  O175  1  0.85635692  0.16492365  0.62219705  1
  O  O176  1  0.86525361  0.49625020  0.13469441  1
  O  O177  1  0.86604076  0.49129132  0.62393557  1
  O  O178  1  0.86716413  0.82834346  0.13519169  1
  O  O179  1  0.86506566  0.83411414  0.61114948  1
  O  O180  1  0.13445886  0.17685742  0.38035137  1
  O  O181  1  0.14082496  0.17144876  0.87090191  1
  O  O182  1  0.13041690  0.50524902  0.37493594  1
  O  O183  1  0.15377129  0.49947520  0.86979094  1
  O  O184  1  0.13345571  0.84424955  0.36686313  1
  O  O185  1  0.14973656  0.82788196  0.86782511  1
  O  O186  1  0.47994954  0.16798987  0.37278637  1
  O  O187  1  0.45989316  0.17396466  0.87676936  1
  O  O188  1  0.46818129  0.51154845  0.36955091  1
  O  O189  1  0.46841695  0.50214210  0.88294430  1
  O  O190  1  0.46580798  0.83961882  0.36592796  1
  O  O191  1  0.48103985  0.83138431  0.88813202  1
  O  O192  1  0.79851893  0.16477812  0.37231116  1
  O  O193  1  0.79506783  0.16873041  0.87631345  1
  O  O194  1  0.81474597  0.49639665  0.37111625  1
  O  O195  1  0.80726032  0.50545090  0.86531465  1
  O  O196  1  0.79975892  0.84194140  0.37191392  1
  O  O197  1  0.82505507  0.84737102  0.87709653  1
  O  O198  1  0.03515135  0.00420226  0.37658007  1
  O  O199  1  0.01972317  0.00409326  0.87941185  1
  O  O200  1  0.03558265  0.34561132  0.38048219  1
  O  O201  1  0.02121142  0.33881073  0.88321606  1
  O  O202  1  0.03752574  0.68311601  0.37273103  1
  O  O203  1  0.01669638  0.66756129  0.86902003  1
  O  O204  1  0.34966658  -0.00536863  0.36662727  1
  O  O205  1  0.35166475  0.00980417  0.88244919  1
  O  O206  1  0.34885735  0.34167048  0.38409172  1
  O  O207  1  0.35440357  0.35314796  0.87178668  1
  O  O208  1  0.36890219  0.68086304  0.37191662  1
  O  O209  1  0.35301948  0.66675288  0.87634191  1
  O  O210  1  0.69679065  0.01233561  0.36807818  1
  O  O211  1  0.69623482  0.01207255  0.88795175  1
  O  O212  1  0.68433059  0.33543433  0.37935098  1
  O  O213  1  0.68135395  0.36271581  0.87181238  1
  O  O214  1  0.68218669  0.67780080  0.37399876  1
  O  O215  1  0.68773194  0.65813597  0.88770030  1
  O  O216  1  0.07089244  0.09254760  0.00933448  1
  O  O217  1  0.06300052  0.09924906  0.50923721  1
  O  O218  1  0.07106843  0.42775315  0.02813278  1
  O  O219  1  0.06493655  0.43204947  0.52341301  1
  O  O220  1  0.07341525  0.76091078  0.03061332  1
  O  O221  1  0.06327853  0.76903424  0.52220380  1
  O  O222  1  0.40722611  0.09300520  0.02986113  1
  O  O223  1  0.41503316  0.09732266  0.51645537  1
  O  O224  1  0.40204344  0.43154145  0.01711711  1
  O  O225  1  0.39742224  0.42646839  0.52594675  1
  O  O226  1  0.40961789  0.75655539  0.02806120  1
  O  O227  1  0.38667707  0.77668977  0.51297074  1
  O  O228  1  0.72792189  0.09410390  0.02936844  1
  O  O229  1  0.73280862  0.09933789  0.51927002  1
  O  O230  1  0.73864888  0.43306552  0.01094828  1
  O  O231  1  0.73168176  0.42332020  0.52955729  1
  O  O232  1  0.73761648  0.75295163  0.02608726  1
  O  O233  1  0.73696961  0.76700001  0.50853681  1
  O  O234  1  0.10016365  0.27095759  0.02389764  1
  O  O235  1  0.09616972  0.26633665  0.51413070  1
  O  O236  1  0.10057070  0.59727504  0.03423681  1
  O  O237  1  0.09758054  0.58686312  0.51003853  1
  O  O238  1  0.08536846  0.92414976  0.01765805  1
  O  O239  1  0.09157531  0.92847741  0.51413321  1
  O  O240  1  0.41847651  0.26104559  0.02561415  1
  O  O241  1  0.43190891  0.26606580  0.52452894  1
  O  O242  1  0.43071423  0.59992226  0.02456480  1
  O  O243  1  0.41526584  0.58597736  0.51907385  1
  O  O244  1  0.43441613  0.93262415  0.02868449  1
  O  O245  1  0.43298980  0.93695535  0.52480833  1
  O  O246  1  0.75592908  0.25668175  0.02357869  1
  O  O247  1  0.75740576  0.26734710  0.52380687  1
  O  O248  1  0.75912471  0.60079811  0.02862497  1
  O  O249  1  0.75064578  0.59024023  0.51419386  1
  O  O250  1  0.75446268  0.93066019  0.01827031  1
  O  O251  1  0.77003248  0.92897954  0.50486656  1
  O  O252  1  0.23728332  0.06177702  0.27132126  1
  O  O253  1  0.24243525  0.08497178  0.76893268  1
  O  O254  1  0.22971835  0.40472010  0.27910530  1
  O  O255  1  0.24303567  0.41200709  0.76800234  1
  O  O256  1  0.23184883  0.73852475  0.27458323  1
  O  O257  1  0.23706470  0.73393929  0.76446266  1
  O  O258  1  0.57733325  0.07313680  0.27086090  1
  O  O259  1  0.57367834  0.07640083  0.77686851  1
  O  O260  1  0.57130982  0.40742547  0.26946926  1
  O  O261  1  0.55973365  0.39608933  0.74703998  1
  O  O262  1  0.56875194  0.74498332  0.27310068  1
  O  O263  1  0.57204329  0.73278222  0.76173309  1
  O  O264  1  0.89743694  0.07200666  0.27899910  1
  O  O265  1  0.90414090  0.06909094  0.77971579  1
  O  O266  1  0.90988955  0.40813112  0.27434782  1
  O  O267  1  0.89964382  0.40775149  0.75849878  1
  O  O268  1  0.91006253  0.75003917  0.27637898  1
  O  O269  1  0.91659228  0.73539222  0.75518229  1
  O  O270  1  0.25781207  0.24244886  0.27615351  1
  O  O271  1  0.26697335  0.23975536  0.77210361  1
  O  O272  1  0.26203713  0.56323847  0.28373705  1
  O  O273  1  0.26884538  0.56415159  0.76715669  1
  O  O274  1  0.26037459  0.90140087  0.27535847  1
  O  O275  1  0.25887304  0.89927451  0.76479736  1
  O  O276  1  0.60005798  0.23247285  0.27145527  1
  O  O277  1  0.60385622  0.23195555  0.77486416  1
  O  O278  1  0.58618868  0.57602276  0.27068944  1
  O  O279  1  0.60731045  0.55852106  0.76885189  1
  O  O280  1  0.59896416  0.90296880  0.27412422  1
  O  O281  1  0.59557810  0.90419610  0.77250524  1
  O  O282  1  0.92682611  0.22883193  0.27643980  1
  O  O283  1  0.93421729  0.23357402  0.77898494  1
  O  O284  1  0.93263952  0.56191083  0.27700077  1
  O  O285  1  0.93266209  0.56704260  0.76231858  1
  O  O286  1  0.92211527  0.90799542  0.28313172  1
  O  O287  1  0.93577952  0.90122661  0.74917689  1
  O  O288  1  0.25511269  0.23952674  0.47794693  1
  O  O289  1  0.27223713  0.23950742  0.97296682  1
  O  O290  1  0.25748131  0.56287954  0.47006454  1
  O  O291  1  0.27031826  0.57057411  0.97885727  1
  O  O292  1  0.25887104  0.90256654  0.46559852  1
  O  O293  1  0.26128414  0.91531944  0.98893651  1
  O  O294  1  0.60038873  0.23413889  0.47346994  1
  O  O295  1  0.59823294  0.23568259  0.97703932  1
  O  O296  1  0.59006164  0.58225261  0.47560604  1
  O  O297  1  0.59344091  0.56904654  0.98231360  1
  O  O298  1  0.59984332  0.90002855  0.46781554  1
  O  O299  1  0.59477184  0.90466378  0.98782051  1
  O  O300  1  0.93799806  0.23853907  0.47061456  1
  O  O301  1  0.93885382  0.23626439  0.97858346  1
  O  O302  1  0.93115394  0.56899735  0.47746127  1
  O  O303  1  0.93398180  0.56532673  0.99257293  1
  O  O304  1  0.93367624  0.90199234  0.47007795  1
  O  O305  1  0.92879012  0.91254806  0.99008889  1
  O  O306  1  0.22683000  0.07237661  0.47524707  1
  O  O307  1  0.25085076  0.07829701  0.98089426  1
  O  O308  1  0.23518978  0.40198266  0.47457157  1
  O  O309  1  0.24614622  0.40742831  0.98572757  1
  O  O310  1  0.22955289  0.72876893  0.46525426  1
  O  O311  1  0.24095424  0.73299689  0.99174818  1
  O  O312  1  0.57378012  0.08227676  0.47406261  1
  O  O313  1  0.57499459  0.06991792  0.98774929  1
  O  O314  1  0.56903392  0.39941795  0.48811181  1
  O  O315  1  0.56753988  0.41514110  0.98939889  1
  O  O316  1  0.57085769  0.73669791  0.46918156  1
  O  O317  1  0.56820365  0.73533846  0.99277518  1
  O  O318  1  0.90946375  0.06636013  0.46657188  1
  O  O319  1  0.90765897  0.07182536  0.97407245  1
  O  O320  1  0.91224749  0.40169579  0.47990542  1
  O  O321  1  0.91140088  0.40022805  0.98811512  1
  O  O322  1  0.90597561  0.74629880  0.47227663  1
  O  O323  1  0.90193652  0.73614814  0.99947646  1
  O  O324  1  0.10406766  0.27190574  0.23215793  1
  O  O325  1  0.09758056  0.25884440  0.73538276  1
  O  O326  1  0.10917825  0.59800728  0.23023225  1
  O  O327  1  0.09348495  0.58556538  0.72656795  1
  O  O328  1  0.09206038  0.92049272  0.22672037  1
  O  O329  1  0.09769747  0.91433560  0.72881211  1
  O  O330  1  0.42440571  0.24779865  0.22773679  1
  O  O331  1  0.42756770  0.27324789  0.72559999  1
  O  O332  1  0.43603738  0.59944487  0.22912813  1
  O  O333  1  0.41964818  0.59475315  0.73560066  1
  O  O334  1  0.43460476  0.93359788  0.22362902  1
  O  O335  1  0.42688593  0.92620047  0.72647255  1
  O  O336  1  0.75479505  0.25544960  0.23041660  1
  O  O337  1  0.76577615  0.27191871  0.71894151  1
  O  O338  1  0.76945498  0.59111657  0.22785574  1
  O  O339  1  0.76472510  0.58763447  0.72241470  1
  O  O340  1  0.76214319  0.92948875  0.23648766  1
  O  O341  1  0.76866700  0.93756168  0.74622920  1
  O  O342  1  0.06751117  0.09894238  0.24257812  1
  O  O343  1  0.07692780  0.09726078  0.74091818  1
  O  O344  1  0.06979008  0.43811412  0.23059363  1
  O  O345  1  0.07293502  0.43224138  0.72619686  1
  O  O346  1  0.07199833  0.76546931  0.21892131  1
  O  O347  1  0.07066949  0.75940944  0.72176513  1
  O  O348  1  0.40683799  0.09347029  0.22111038  1
  O  O349  1  0.41147758  0.09110003  0.72586324  1
  O  O350  1  0.40479255  0.42934906  0.24289421  1
  O  O351  1  0.39716142  0.43225215  0.72348689  1
  O  O352  1  0.41157104  0.76337118  0.22933021  1
  O  O353  1  0.39262313  0.76094032  0.73336760  1
  O  O354  1  0.72973460  0.09935840  0.22754659  1
  O  O355  1  0.72924701  0.10382778  0.72524760  1
  O  O356  1  0.74145604  0.42588186  0.23593867  1
  O  O357  1  0.74170737  0.43488519  0.71300321  1
  O  O358  1  0.75252633  0.75519913  0.22889175  1
  O  O359  1  0.74626546  0.75552924  0.73706263  1
