# generated using pymatgen
data_BaLaInIrO6
_symmetry_space_group_name_H-M   'P 1'
_cell_length_a   17.53855280
_cell_length_b   17.56353246
_cell_length_c   16.50568254
_cell_angle_alpha   90.05599406
_cell_angle_beta   89.98808639
_cell_angle_gamma   90.05466990
_symmetry_Int_Tables_number   1
_chemical_formula_structural   BaLaInIrO6
_chemical_formula_sum   'Ba36 La36 In36 Ir36 O216'
_cell_volume   5084.38812589
_cell_formula_units_Z   36
loop_
 _symmetry_equiv_pos_site_id
 _symmetry_equiv_pos_as_xyz
  1  'x, y, z'
loop_
 _atom_site_type_symbol
 _atom_site_label
 _atom_site_symmetry_multiplicity
 _atom_site_fract_x
 _atom_site_fract_y
 _atom_site_fract_z
 _atom_site_occupancy
  Ba  Ba0  1  0.32910406  0.50987904  0.62768023  1
  Ba  Ba1  1  0.49975634  0.01392043  0.12385243  1
  Ba  Ba2  1  0.66535603  0.15851894  0.37646247  1
  Ba  Ba3  1  0.66610181  0.49035654  0.37739975  1
  Ba  Ba4  1  0.66456402  0.50318982  0.12488045  1
  Ba  Ba5  1  1.00193834  0.51203879  0.12651555  1
  Ba  Ba6  1  0.49512637  0.00687951  0.62714996  1
  Ba  Ba7  1  1.00529580  0.17280287  0.12942469  1
  Ba  Ba8  1  0.33760208  0.84536690  0.12020568  1
  Ba  Ba9  1  1.00084438  0.84144432  0.12354199  1
  Ba  Ba10  1  0.50113123  0.67310096  0.62548837  1
  Ba  Ba11  1  -0.00036019  0.82456967  0.37623819  1
  Ba  Ba12  1  0.33465445  0.17644676  0.12391184  1
  Ba  Ba13  1  0.49811733  0.32758155  0.87325391  1
  Ba  Ba14  1  0.83182108  0.67453478  0.62070411  1
  Ba  Ba15  1  1.00358456  0.17432603  0.62341893  1
  Ba  Ba16  1  0.17240096  0.32408527  0.87364282  1
  Ba  Ba17  1  0.83439486  0.00886189  0.62286264  1
  Ba  Ba18  1  0.33006632  0.49228717  0.87463772  1
  Ba  Ba19  1  0.66202632  0.49518730  0.87311713  1
  Ba  Ba20  1  0.83583169  0.33521794  0.62867584  1
  Ba  Ba21  1  0.16559707  0.00939281  0.62171931  1
  Ba  Ba22  1  0.66448177  0.17278865  0.62737819  1
  Ba  Ba23  1  0.66809122  0.84656907  0.12756239  1
  Ba  Ba24  1  0.16762800  0.99163657  0.87408555  1
  Ba  Ba25  1  0.33145442  0.82615305  0.87228592  1
  Ba  Ba26  1  0.33624943  0.84237067  0.62380928  1
  Ba  Ba27  1  0.16735816  0.66297668  0.88106189  1
  Ba  Ba28  1  0.66516563  0.82685905  0.87736332  1
  Ba  Ba29  1  0.00102310  0.15582572  0.87220620  1
  Ba  Ba30  1  0.67015116  0.17353291  0.12661655  1
  Ba  Ba31  1  0.66566035  0.16246266  0.87347639  1
  Ba  Ba32  1  0.83040421  0.00731083  0.13045936  1
  Ba  Ba33  1  0.50108117  0.99217398  0.87523954  1
  Ba  Ba34  1  0.83425112  0.65742765  0.87689462  1
  Ba  Ba35  1  0.50265169  0.32638608  0.37609552  1
  La  La36  1  -0.00745369  0.48204695  0.37360295  1
  La  La37  1  0.83577611  0.31115580  0.37194779  1
  La  La38  1  0.16114260  0.68561883  0.63265580  1
  La  La39  1  0.83445974  0.64593749  0.37333556  1
  La  La40  1  0.82750271  0.68431283  0.12556673  1
  La  La41  1  0.32916393  0.48599715  0.37404301  1
  La  La42  1  0.33394630  0.14939131  0.37467178  1
  La  La43  1  0.49449884  0.68538825  0.12491875  1
  La  La44  1  1.00850431  0.50872767  0.62851355  1
  La  La45  1  0.50600221  0.33631344  0.11819144  1
  La  La46  1  0.83049152  0.34292260  0.12626517  1
  La  La47  1  0.16274354  0.00892032  0.11967033  1
  La  La48  1  0.16983388  0.98391168  0.37031514  1
  La  La49  1  0.50439603  0.98765103  0.37122742  1
  La  La50  1  0.32978877  0.81572403  0.37130481  1
  La  La51  1  0.17017344  0.64890214  0.37015599  1
  La  La52  1  0.66152156  0.50030792  0.63005251  1
  La  La53  1  0.16739976  0.68705765  0.12635505  1
  La  La54  1  0.83374246  0.98672246  0.37388643  1
  La  La55  1  0.32763943  0.14794040  0.87598855  1
  La  La56  1  0.50592035  0.65661049  0.87157099  1
  La  La57  1  0.66626360  0.85221863  0.62747527  1
  La  La58  1  0.66204220  0.82147149  0.37404935  1
  La  La59  1  0.16146783  0.34752435  0.62532405  1
  La  La60  1  0.33923697  0.51445789  0.12568820  1
  La  La61  1  1.00699105  0.85099959  0.62781735  1
  La  La62  1  -0.00561845  0.47983906  0.87793378  1
  La  La63  1  -0.00691246  0.82304383  0.87203328  1
  La  La64  1  0.16288161  0.35422859  0.12635715  1
  La  La65  1  0.17155383  0.31793144  0.37390349  1
  La  La66  1  0.49604443  0.34694605  0.62760925  1
  La  La67  1  -0.00479171  0.14465862  0.37446762  1
  La  La68  1  0.50046344  0.65353492  0.37870230  1
  La  La69  1  0.83015472  0.99144830  0.87934000  1
  La  La70  1  0.83680815  0.31735322  0.87821357  1
  La  La71  1  0.34213041  0.17963086  0.63021298  1
  In  In72  1  0.33447188  0.66657415  -0.00173250  1
  In  In73  1  0.83315232  0.83578500  -0.00089009  1
  In  In74  1  0.00294155  0.33106044  0.75052965  1
  In  In75  1  0.83219983  0.83064384  0.25534161  1
  In  In76  1  -0.00181498  0.66422657  0.75050994  1
  In  In77  1  0.16674986  0.83180810  0.49806331  1
  In  In78  1  0.49726410  0.49953751  0.25044908  1
  In  In79  1  0.83248914  0.83402171  0.74308534  1
  In  In80  1  -0.00035611  0.00053690  -0.00077578  1
  In  In81  1  0.49806672  0.83367597  0.49884736  1
  In  In82  1  0.83531834  0.16164067  0.74866054  1
  In  In83  1  0.66878897  0.66681210  0.49940992  1
  In  In84  1  0.00159945  0.66469629  0.00062290  1
  In  In85  1  0.66424305  0.66390305  0.25011179  1
  In  In86  1  0.00087533  0.66580836  0.49812869  1
  In  In87  1  0.00089455  0.66556877  0.25117294  1
  In  In88  1  0.33117763  0.33162224  0.50067051  1
  In  In89  1  0.00177692  0.33095602  0.49640812  1
  In  In90  1  0.33376885  0.33336578  0.24769919  1
  In  In91  1  0.16955965  0.16952172  0.00148309  1
  In  In92  1  0.83577923  0.49475429  0.50387185  1
  In  In93  1  0.83467655  0.49934768  0.00171513  1
  In  In94  1  0.66778952  0.33352990  0.75135204  1
  In  In95  1  0.49965217  0.16578374  0.49943840  1
  In  In96  1  0.32889129  0.66436938  0.50043683  1
  In  In97  1  0.66435819  0.66536315  0.00338404  1
  In  In98  1  0.66797222  0.33307405  0.00025163  1
  In  In99  1  0.66769785  0.33288605  0.50114750  1
  In  In100  1  0.66821357  0.66682991  0.74712764  1
  In  In101  1  0.49821673  0.16613129  0.75344925  1
  In  In102  1  0.16684615  0.50473797  0.75543331  1
  In  In103  1  0.16849920  0.16512404  0.49853402  1
  In  In104  1  0.66426228  0.00439243  0.00152537  1
  In  In105  1  0.00210355  0.33040476  0.00554711  1
  In  In106  1  0.33457076  -0.00081355  0.24819427  1
  In  In107  1  0.16752150  0.16584652  0.25308405  1
  Ir  Ir108  1  0.00343997  0.33466524  0.25163444  1
  Ir  Ir109  1  0.49297206  0.50161992  0.75086821  1
  Ir  Ir110  1  0.50015737  0.17190160  0.24840951  1
  Ir  Ir111  1  0.33493331  0.00099252  0.49660765  1
  Ir  Ir112  1  0.83598573  0.49297346  0.25138266  1
  Ir  Ir113  1  0.33123413  0.33539643  -0.00110184  1
  Ir  Ir114  1  0.33286639  -0.00079705  -0.00259935  1
  Ir  Ir115  1  0.49374412  0.16977270  0.00153978  1
  Ir  Ir116  1  0.17441259  0.16508459  0.74686854  1
  Ir  Ir117  1  0.66963299  0.33176603  0.25004450  1
  Ir  Ir118  1  0.83627228  0.49647061  0.75164633  1
  Ir  Ir119  1  0.16907693  0.83495879  0.24897058  1
  Ir  Ir120  1  0.83508236  0.16155602  0.49411916  1
  Ir  Ir121  1  0.33353292  0.66987834  0.75051637  1
  Ir  Ir122  1  0.00195195  -0.00196976  0.25360126  1
  Ir  Ir123  1  0.83751382  0.16485649  0.25163992  1
  Ir  Ir124  1  0.00440059  -0.00193232  0.74793563  1
  Ir  Ir125  1  0.49476291  0.49857314  0.00144001  1
  Ir  Ir126  1  0.16670279  0.83579465  0.75050337  1
  Ir  Ir127  1  0.16911012  0.83587305  0.00153142  1
  Ir  Ir128  1  0.16249618  0.50167481  0.49500743  1
  Ir  Ir129  1  0.49460854  0.50132271  0.50208293  1
  Ir  Ir130  1  0.66618002  0.00273223  0.25667079  1
  Ir  Ir131  1  0.49822098  0.83322330  0.75236897  1
  Ir  Ir132  1  0.66524337  -0.00156666  0.74626450  1
  Ir  Ir133  1  0.82960618  0.83637601  0.49891127  1
  Ir  Ir134  1  0.16764453  0.50099139  0.25181512  1
  Ir  Ir135  1  0.49795752  0.83324097  -0.00092936  1
  Ir  Ir136  1  0.66909340  -0.00220205  0.49649913  1
  Ir  Ir137  1  0.49633528  0.83452736  0.25154180  1
  Ir  Ir138  1  0.33061133  -0.00092286  0.74711146  1
  Ir  Ir139  1  -0.00201738  -0.00144102  0.49733519  1
  Ir  Ir140  1  0.32932351  0.33163898  0.74976874  1
  Ir  Ir141  1  0.33287555  0.66707861  0.24962879  1
  Ir  Ir142  1  0.83521407  0.16574801  0.00401501  1
  Ir  Ir143  1  0.17020618  0.50094150  0.00743458  1
  O  O144  1  0.30138519  0.33200160  0.11871758  1
  O  O145  1  0.29640406  0.32137331  0.62978863  1
  O  O146  1  0.30259112  0.65786913  0.13040465  1
  O  O147  1  0.29934331  0.66938656  0.62916874  1
  O  O148  1  0.30281124  0.99950462  0.11929322  1
  O  O149  1  0.31219882  0.99513111  0.62041867  1
  O  O150  1  0.64170302  0.32949240  0.12953814  1
  O  O151  1  0.63398146  0.33751997  0.62647601  1
  O  O152  1  0.62663091  0.65961258  0.12743440  1
  O  O153  1  0.65024842  0.64010556  0.62298588  1
  O  O154  1  0.64921097  1.00381372  0.13556165  1
  O  O155  1  0.64237135  0.98933543  0.61995688  1
  O  O156  1  0.96925224  0.33123843  0.13430872  1
  O  O157  1  0.99020392  0.33941302  0.62282519  1
  O  O158  1  0.96556206  0.66622137  0.12738707  1
  O  O159  1  0.97996372  0.64419172  0.62302922  1
  O  O160  1  0.98397707  0.99885808  0.13308258  1
  O  O161  1  0.98193687  0.98891172  0.62194634  1
  O  O162  1  0.18593214  0.14534898  0.12891221  1
  O  O163  1  0.20347484  0.16340423  0.62632832  1
  O  O164  1  0.20347817  0.48985988  0.13046128  1
  O  O165  1  0.17839876  0.48646364  0.61566909  1
  O  O166  1  0.19238008  0.82856851  0.12524395  1
  O  O167  1  0.18784182  0.82796180  0.62873598  1
  O  O168  1  0.51992725  0.17399023  0.12566346  1
  O  O169  1  0.51030206  0.15796482  0.62647299  1
  O  O170  1  0.51139300  0.47989628  0.12141786  1
  O  O171  1  0.52317459  0.49138118  0.62620443  1
  O  O172  1  0.52039425  0.82093983  0.12423044  1
  O  O173  1  0.52538386  0.83167967  0.62986797  1
  O  O174  1  0.85723569  0.16213456  0.12968809  1
  O  O175  1  0.85396041  0.16275011  0.61397652  1
  O  O176  1  0.85815302  0.48006016  0.13375943  1
  O  O177  1  0.87213552  0.49227945  0.63228685  1
  O  O178  1  0.85127280  0.82680741  0.12875761  1
  O  O179  1  0.86763285  0.83460820  0.61463507  1
  O  O180  1  0.12845264  0.18196643  0.37470001  1
  O  O181  1  0.15502848  0.16720264  0.86758878  1
  O  O182  1  0.13210530  0.51291084  0.37248388  1
  O  O183  1  0.13690498  0.50553462  0.88740827  1
  O  O184  1  0.14763740  0.84583325  0.36886613  1
  O  O185  1  0.13531523  0.83608363  0.87840342  1
  O  O186  1  0.47058660  0.17259163  0.36870903  1
  O  O187  1  0.46462551  0.16869797  0.88215318  1
  O  O188  1  0.46437782  0.50826135  0.38124727  1
  O  O189  1  0.47449614  0.51822307  0.87590092  1
  O  O190  1  0.46600743  0.84787648  0.36903558  1
  O  O191  1  0.47725865  0.83712768  0.87632594  1
  O  O192  1  0.81503706  0.17030084  0.37134169  1
  O  O193  1  0.81815525  0.17530941  0.88377314  1
  O  O194  1  0.81463777  0.50382599  0.36857682  1
  O  O195  1  0.81146724  0.50033238  0.86915815  1
  O  O196  1  0.79679596  0.84586998  0.38158614  1
  O  O197  1  0.81752619  0.85440792  0.86838626  1
  O  O198  1  0.03127502  0.00367151  0.37624633  1
  O  O199  1  0.01963246  -0.00220574  0.86592374  1
  O  O200  1  0.03670577  0.34467717  0.36971098  1
  O  O201  1  0.02295270  0.34050279  0.87753375  1
  O  O202  1  0.03773599  0.67139499  0.37438649  1
  O  O203  1  0.02235230  0.68543086  0.87461864  1
  O  O204  1  0.36649103  0.01053658  0.37881617  1
  O  O205  1  0.35373644  0.01004527  0.87180418  1
  O  O206  1  0.35214868  0.35174780  0.37560845  1
  O  O207  1  0.35216362  0.34019341  0.87408141  1
  O  O208  1  0.36242967  0.67291034  0.36813635  1
  O  O209  1  0.36587411  0.66752850  0.87106973  1
  O  O210  1  0.69767668  0.00131907  0.37766873  1
  O  O211  1  0.69098910  0.00043671  0.86695847  1
  O  O212  1  0.69839717  0.33601548  0.36999178  1
  O  O213  1  0.69914745  0.33703026  0.87692412  1
  O  O214  1  0.69961206  0.68181852  0.37403333  1
  O  O215  1  0.67672876  0.66239053  0.87406792  1
  O  O216  1  0.08021612  0.08730449  0.01422360  1
  O  O217  1  0.06740767  0.09108047  0.51010489  1
  O  O218  1  0.08162101  0.43040187  0.02468634  1
  O  O219  1  0.06335908  0.44479518  0.51064518  1
  O  O220  1  0.08673131  0.75898445  0.02371588  1
  O  O221  1  0.06981959  0.76268566  0.53238960  1
  O  O222  1  0.40230626  0.09476765  0.01499219  1
  O  O223  1  0.39014896  0.10150062  0.51475051  1
  O  O224  1  0.39844489  0.42990758  0.02472078  1
  O  O225  1  0.40799281  0.42726905  0.52411196  1
  O  O226  1  0.41382085  0.75661402  0.01983565  1
  O  O227  1  0.40078229  0.76264499  0.50275560  1
  O  O228  1  0.74380340  0.09998326  0.01136281  1
  O  O229  1  0.73907419  0.09262561  0.51645120  1
  O  O230  1  0.74640414  0.41994983  0.02658047  1
  O  O231  1  0.73326571  0.43271518  0.52857829  1
  O  O232  1  0.74189866  0.75657934  0.02076302  1
  O  O233  1  0.73409107  0.77506087  0.52443876  1
  O  O234  1  0.10299847  0.26723414  0.02979793  1
  O  O235  1  0.10744184  0.27220696  0.51835699  1
  O  O236  1  0.10822552  0.59629603  0.03249490  1
  O  O237  1  0.11103189  0.60075151  0.51941623  1
  O  O238  1  0.10202847  0.92661855  0.02292429  1
  O  O239  1  0.08732803  0.92564171  0.51340851  1
  O  O240  1  0.42732054  0.26994080  0.02200887  1
  O  O241  1  0.42534278  0.26241093  0.53352231  1
  O  O242  1  0.42695507  0.58937792  0.03180117  1
  O  O243  1  0.42518872  0.59094690  0.51604241  1
  O  O244  1  0.42556853  0.92825424  0.01538433  1
  O  O245  1  0.42953877  0.93715883  0.50761727  1
  O  O246  1  0.77131598  0.26124561  0.02260311  1
  O  O247  1  0.77015253  0.25675166  0.50539623  1
  O  O248  1  0.76711319  0.59760821  0.02991501  1
  O  O249  1  0.76783145  0.59577259  0.50078272  1
  O  O250  1  0.76145916  0.93474890  0.00701972  1
  O  O251  1  0.76065765  0.92840922  0.52086775  1
  O  O252  1  0.24102511  0.06937571  0.28500061  1
  O  O253  1  0.24285040  0.07294322  0.76865084  1
  O  O254  1  0.22859143  0.40521894  0.27528776  1
  O  O255  1  0.24057153  0.40575177  0.75856736  1
  O  O256  1  0.23655317  0.73678764  0.27608344  1
  O  O257  1  0.23625166  0.74005381  0.76722960  1
  O  O258  1  0.56682654  0.07190360  0.27420381  1
  O  O259  1  0.57876856  0.07046880  0.76435804  1
  O  O260  1  0.57840215  0.40380636  0.26234543  1
  O  O261  1  0.56799729  0.41692833  0.76266256  1
  O  O262  1  0.56327426  0.74317100  0.27849455  1
  O  O263  1  0.56439756  0.74130058  0.77079447  1
  O  O264  1  0.90665274  0.06819445  0.28038570  1
  O  O265  1  0.90744662  0.06169282  0.77124812  1
  O  O266  1  0.90386176  0.39737709  0.27851901  1
  O  O267  1  0.89921530  0.40301621  0.77916948  1
  O  O268  1  0.90069656  0.73137205  0.27965015  1
  O  O269  1  0.90886462  0.74327833  0.76623371  1
  O  O270  1  0.26598452  0.23635836  0.27904872  1
  O  O271  1  0.27148308  0.22975274  0.76943069  1
  O  O272  1  0.26509397  0.56876222  0.27729169  1
  O  O273  1  0.26189908  0.58242230  0.76843593  1
  O  O274  1  0.26247887  0.90175115  0.27629184  1
  O  O275  1  0.25850021  0.90692633  0.76544446  1
  O  O276  1  0.59685809  0.24157908  0.26727365  1
  O  O277  1  0.58576443  0.24542098  0.76836922  1
  O  O278  1  0.58227677  0.57931644  0.28196766  1
  O  O279  1  0.57827593  0.57712069  0.76487168  1
  O  O280  1  0.59245554  0.90682182  0.28185514  1
  O  O281  1  0.59460779  0.90124814  0.76192236  1
  O  O282  1  0.93508282  0.23657522  0.27970699  1
  O  O283  1  0.92570823  0.24036862  0.76609049  1
  O  O284  1  0.92876999  0.56144470  0.27617532  1
  O  O285  1  0.93472239  0.55709869  0.77521321  1
  O  O286  1  0.92486984  0.91384414  0.27382346  1
  O  O287  1  0.94150739  0.90264886  0.75941635  1
  O  O288  1  0.26507753  0.23346295  0.46526458  1
  O  O289  1  0.27135796  0.23841785  0.97604983  1
  O  O290  1  0.25974463  0.56354826  0.47090798  1
  O  O291  1  0.26160285  0.56735779  0.99261925  1
  O  O292  1  0.26946640  0.90496833  0.47000161  1
  O  O293  1  0.26076718  0.90970176  0.97959722  1
  O  O294  1  0.59161571  0.24197869  0.48424324  1
  O  O295  1  0.58193154  0.24233312  0.98892181  1
  O  O296  1  0.57948057  0.57747293  0.47663435  1
  O  O297  1  0.57983792  0.57245256  0.98298822  1
  O  O298  1  0.60202060  0.90375255  0.47436562  1
  O  O299  1  0.58548690  0.90720165  0.98951581  1
  O  O300  1  0.93036246  0.22815738  0.47118644  1
  O  O301  1  0.92559940  0.23292195  0.98893297  1
  O  O302  1  0.93305286  0.56677704  0.46955021  1
  O  O303  1  0.93820892  0.56225628  0.97585629  1
  O  O304  1  0.91942209  0.91046791  0.47175695  1
  O  O305  1  0.93350334  0.90559476  0.97320160  1
  O  O306  1  0.23858516  0.06335750  0.46963660  1
  O  O307  1  0.24832323  0.07385717  0.98088839  1
  O  O308  1  0.22426997  0.40402468  0.47676520  1
  O  O309  1  0.23586066  0.40311618  0.98718764  1
  O  O310  1  0.23415962  0.73486985  0.46702013  1
  O  O311  1  0.24152124  0.74608517  0.99082702  1
  O  O312  1  0.57252003  0.06142561  0.47453118  1
  O  O313  1  0.56851049  0.08227316  0.98535888  1
  O  O314  1  0.56670876  0.41516223  0.48853865  1
  O  O315  1  0.56660201  0.40995119  0.98677945  1
  O  O316  1  0.57240887  0.74102002  0.46721521  1
  O  O317  1  0.56178977  0.73878514  0.98094520  1
  O  O318  1  0.90435546  0.06777475  0.46946526  1
  O  O319  1  0.89752107  0.06972412  0.97947628  1
  O  O320  1  0.90275064  0.39664696  0.46569282  1
  O  O321  1  0.90602468  0.39997208  0.97540525  1
  O  O322  1  0.89289055  0.74056923  0.47304165  1
  O  O323  1  0.91230192  0.74481617  0.98092986  1
  O  O324  1  0.10068084  0.27346324  0.22828985  1
  O  O325  1  0.10911496  0.25907916  0.72544869  1
  O  O326  1  0.10903683  0.59922917  0.22860032  1
  O  O327  1  0.09991058  0.59961850  0.72292542  1
  O  O328  1  0.10522875  0.93545826  0.23040389  1
  O  O329  1  0.09461500  0.92495277  0.72397135  1
  O  O330  1  0.43825959  0.26911124  0.22539630  1
  O  O331  1  0.42006739  0.26447571  0.72377677  1
  O  O332  1  0.42582267  0.60220108  0.22191666  1
  O  O333  1  0.42266810  0.59701869  0.73149632  1
  O  O334  1  0.43190318  0.92819807  0.23308975  1
  O  O335  1  0.42333493  0.92580863  0.73558844  1
  O  O336  1  0.77195979  0.26491674  0.23245652  1
  O  O337  1  0.76037398  0.25552525  0.73971191  1
  O  O338  1  0.77279253  0.59085578  0.23086268  1
  O  O339  1  0.76669197  0.58502812  0.73089324  1
  O  O340  1  0.75565263  0.93144503  0.24522459  1
  O  O341  1  0.75085433  0.92626369  0.72412923  1
  O  O342  1  0.07179147  0.08713677  0.24232409  1
  O  O343  1  0.07718793  0.09641153  0.73076981  1
  O  O344  1  0.07324851  0.42981292  0.22874623  1
  O  O345  1  0.07026548  0.43348012  0.73462505  1
  O  O346  1  0.08201457  0.76157809  0.22784705  1
  O  O347  1  0.07533874  0.76755834  0.72561217  1
  O  O348  1  0.40840103  0.10223685  0.23770072  1
  O  O349  1  0.39467994  0.09538923  0.73427673  1
  O  O350  1  0.39077972  0.44133485  0.23727939  1
  O  O351  1  0.40611270  0.42064394  0.72506986  1
  O  O352  1  0.40227875  0.76246479  0.22976085  1
  O  O353  1  0.40703819  0.76060385  0.73135930  1
  O  O354  1  0.74052685  0.09493986  0.23564785  1
  O  O355  1  0.73770337  0.08584160  0.73469042  1
  O  O356  1  0.74463167  0.41908908  0.22596173  1
  O  O357  1  0.74061377  0.43386577  0.72541903  1
  O  O358  1  0.73988229  0.75484970  0.22809118  1
  O  O359  1  0.73279135  0.76599799  0.71943917  1
