# generated using pymatgen
data_BaLaInIrO6
_symmetry_space_group_name_H-M   'P 1'
_cell_length_a   17.51658128
_cell_length_b   17.54379986
_cell_length_c   16.49229412
_cell_angle_alpha   89.97230889
_cell_angle_beta   89.98178084
_cell_angle_gamma   89.99251865
_symmetry_Int_Tables_number   1
_chemical_formula_structural   BaLaInIrO6
_chemical_formula_sum   'Ba36 La36 In36 Ir36 O216'
_cell_volume   5068.20307317
_cell_formula_units_Z   36
loop_
 _symmetry_equiv_pos_site_id
 _symmetry_equiv_pos_as_xyz
  1  'x, y, z'
loop_
 _atom_site_type_symbol
 _atom_site_label
 _atom_site_symmetry_multiplicity
 _atom_site_fract_x
 _atom_site_fract_y
 _atom_site_fract_z
 _atom_site_occupancy
  Ba  Ba0  1  0.66706126  0.83931008  0.62761797  1
  Ba  Ba1  1  0.66715773  0.49175409  0.37204683  1
  Ba  Ba2  1  0.16918647  0.99165246  0.37809499  1
  Ba  Ba3  1  0.83132187  0.66959397  0.61973668  1
  Ba  Ba4  1  -0.00632972  0.16034443  0.87863321  1
  Ba  Ba5  1  0.16726480  0.33696522  0.12417652  1
  Ba  Ba6  1  0.83345859  0.99450899  0.87536764  1
  Ba  Ba7  1  0.67119582  0.17059806  0.62281717  1
  Ba  Ba8  1  0.66546898  0.15880784  0.87727416  1
  Ba  Ba9  1  0.66854350  0.82638945  0.87265739  1
  Ba  Ba10  1  0.00071201  0.49220066  0.37538606  1
  Ba  Ba11  1  0.83005583  0.68013219  0.12800439  1
  Ba  Ba12  1  0.83767417  -0.00001042  0.62374379  1
  Ba  Ba13  1  1.00316349  0.50897232  0.62744665  1
  Ba  Ba14  1  0.33095580  0.82846405  0.87700892  1
  Ba  Ba15  1  -0.00087803  0.82990926  0.87615903  1
  Ba  Ba16  1  0.33267224  0.15478442  0.87504062  1
  Ba  Ba17  1  0.82951212  0.98924381  0.37403941  1
  Ba  Ba18  1  0.49550322  0.68340220  0.62204551  1
  Ba  Ba19  1  0.33760420  0.18046890  0.62252191  1
  Ba  Ba20  1  0.16695086  0.31911868  0.87406239  1
  Ba  Ba21  1  0.99963197  0.84524113  0.12819731  1
  Ba  Ba22  1  0.83123884  0.34356568  0.12248545  1
  Ba  Ba23  1  0.16694942  0.00661343  0.13089493  1
  Ba  Ba24  1  0.16399053  0.67950019  0.62059305  1
  Ba  Ba25  1  0.33566920  0.84529607  0.12440641  1
  Ba  Ba26  1  0.50032476  0.66045602  0.87552065  1
  Ba  Ba27  1  0.66811034  0.51014624  0.12367274  1
  Ba  Ba28  1  -0.00163974  0.82399635  0.36962434  1
  Ba  Ba29  1  0.49698933  0.34000267  0.11907765  1
  Ba  Ba30  1  0.83210046  0.32159798  0.88027451  1
  Ba  Ba31  1  0.16694991  0.65713853  0.37236467  1
  Ba  Ba32  1  0.49693719  0.34699195  0.62491605  1
  Ba  Ba33  1  0.50107463  0.68176778  0.12674484  1
  Ba  Ba34  1  0.83140783  0.33707394  0.62816098  1
  Ba  Ba35  1  0.16511390  0.34342551  0.62852978  1
  La  La36  1  0.82819163  0.01333852  0.12529752  1
  La  La37  1  1.00375354  0.18136634  0.63059382  1
  La  La38  1  0.34501350  0.51617180  0.12308059  1
  La  La39  1  -0.00112219  0.15044573  0.37564246  1
  La  La40  1  0.66176789  0.48705517  0.87195938  1
  La  La41  1  0.83928021  0.31415385  0.37261075  1
  La  La42  1  0.33042600  0.16953560  0.11718289  1
  La  La43  1  1.00329544  0.51684720  0.12423936  1
  La  La44  1  0.33289599  0.15497910  0.37649693  1
  La  La45  1  0.99961752  0.17601996  0.12778035  1
  La  La46  1  0.49937730  0.65210140  0.37188823  1
  La  La47  1  0.83501508  0.65648159  0.87743142  1
  La  La48  1  0.67080751  0.84447742  0.12425450  1
  La  La49  1  0.33874279  0.85367487  0.62275732  1
  La  La50  1  0.66334179  0.81637138  0.37862914  1
  La  La51  1  0.49742179  0.01221282  0.62735202  1
  La  La52  1  0.32625848  0.81844851  0.37429809  1
  La  La53  1  0.84115164  0.64995343  0.37141209  1
  La  La54  1  0.49762442  0.01159362  0.12398173  1
  La  La55  1  0.17712577  0.65023912  0.87237251  1
  La  La56  1  0.16097118  0.68526538  0.12300687  1
  La  La57  1  0.67105366  0.51193473  0.62516153  1
  La  La58  1  0.66766893  0.15154425  0.37293785  1
  La  La59  1  0.50486063  0.98488068  0.87726836  1
  La  La60  1  0.51024742  0.98308130  0.37479545  1
  La  La61  1  0.33643579  0.51818312  0.62452711  1
  La  La62  1  0.67263115  0.18512349  0.12742470  1
  La  La63  1  0.50309063  0.31841961  0.87295395  1
  La  La64  1  0.16106524  0.00718581  0.62965424  1
  La  La65  1  0.50508096  0.31725239  0.37160217  1
  La  La66  1  0.32474051  0.48754931  0.37687999  1
  La  La67  1  0.32814717  0.48627375  0.87301296  1
  La  La68  1  0.99727891  0.84087442  0.62013676  1
  La  La69  1  0.16422555  0.99276994  0.88267212  1
  La  La70  1  0.17137375  0.32186960  0.38108265  1
  La  La71  1  -0.00492136  0.48574030  0.87440927  1
  In  In72  1  0.00215474  -0.00016950  0.75231638  1
  In  In73  1  0.16591547  0.16567550  0.25367757  1
  In  In74  1  0.83183754  0.82908561  0.49495893  1
  In  In75  1  0.33289741  0.66600752  0.24977954  1
  In  In76  1  0.00441670  0.67040015  -0.00437765  1
  In  In77  1  0.17002605  0.49960986  0.00417419  1
  In  In78  1  0.00293002  0.66971132  0.75333794  1
  In  In79  1  -0.00031959  0.33432344  0.00558767  1
  In  In80  1  0.66691375  0.66864830  -0.00043287  1
  In  In81  1  0.33227370  0.33124818  -0.00060829  1
  In  In82  1  0.83097619  0.50041608  0.75091163  1
  In  In83  1  0.50148755  0.16325344  0.00212674  1
  In  In84  1  0.83191881  0.16168206  0.74936477  1
  In  In85  1  -0.00011326  0.33248451  0.75191624  1
  In  In86  1  0.16914848  0.49541933  0.24855401  1
  In  In87  1  0.33983970  0.00074136  0.25403040  1
  In  In88  1  0.66574539  0.33271219  0.49555492  1
  In  In89  1  0.83530231  0.82954601  0.75068681  1
  In  In90  1  0.33355244  0.66945023  -0.00133318  1
  In  In91  1  0.16591807  0.83637696  0.25203528  1
  In  In92  1  0.49871543  0.49588675  0.24974884  1
  In  In93  1  0.66646955  0.66703886  0.25079487  1
  In  In94  1  0.00177384  0.33211376  0.49699971  1
  In  In95  1  0.16970264  0.16436671  0.50189718  1
  In  In96  1  0.83245106  0.50259866  0.00018105  1
  In  In97  1  0.33479134  0.33030655  0.25245552  1
  In  In98  1  0.50113465  0.16537630  0.49659483  1
  In  In99  1  0.66381809  0.66741171  0.74877641  1
  In  In100  1  0.66576432  -0.00343021  0.50177411  1
  In  In101  1  -0.00014049  0.66627513  0.49736838  1
  In  In102  1  0.66306695  0.33150647  0.74643993  1
  In  In103  1  0.16732605  0.83472263  0.74938213  1
  In  In104  1  0.33426542  0.67194049  0.74829878  1
  In  In105  1  0.83250718  0.49295766  0.49801048  1
  In  In106  1  0.49843636  0.16489780  0.75009736  1
  In  In107  1  0.17035049  0.16289054  0.75017623  1
  Ir  Ir108  1  -0.00696802  0.00240234  0.25114607  1
  Ir  Ir109  1  0.17282292  0.83735291  0.49999941  1
  Ir  Ir110  1  0.49593168  0.50023286  0.75059296  1
  Ir  Ir111  1  0.33433436  -0.00064955  0.00060961  1
  Ir  Ir112  1  0.33860818  -0.00055140  0.50010121  1
  Ir  Ir113  1  0.50281899  0.83874337  0.00245780  1
  Ir  Ir114  1  0.16492207  0.83892762  0.00139123  1
  Ir  Ir115  1  0.50442892  0.16582832  0.24941616  1
  Ir  Ir116  1  0.49437023  0.83411879  0.49675350  1
  Ir  Ir117  1  -0.00171448  0.00179826  0.00828712  1
  Ir  Ir118  1  0.33428266  -0.00250597  0.74982544  1
  Ir  Ir119  1  0.83552828  0.49603586  0.24936019  1
  Ir  Ir120  1  0.17255921  0.49971887  0.50157462  1
  Ir  Ir121  1  0.65876137  0.66529521  0.49410845  1
  Ir  Ir122  1  0.67194829  0.32995557  0.25073858  1
  Ir  Ir123  1  0.49818051  0.49878140  -0.00446138  1
  Ir  Ir124  1  0.50264351  0.83783555  0.25372193  1
  Ir  Ir125  1  0.83775151  0.16162741  0.49368491  1
  Ir  Ir126  1  0.33500847  0.33908026  0.74662133  1
  Ir  Ir127  1  0.83271483  0.16520446  0.25078195  1
  Ir  Ir128  1  0.83033695  0.16207719  0.00866694  1
  Ir  Ir129  1  0.66307263  0.33465153  0.00157560  1
  Ir  Ir130  1  -0.00259470  0.66504322  0.24620299  1
  Ir  Ir131  1  0.49744949  0.83968309  0.74645132  1
  Ir  Ir132  1  0.00275457  -0.00195258  0.49764030  1
  Ir  Ir133  1  0.66275628  0.00024590  0.24585132  1
  Ir  Ir134  1  0.33481699  0.66922620  0.49979398  1
  Ir  Ir135  1  -0.00096661  0.33190561  0.25066119  1
  Ir  Ir136  1  0.82791313  0.83862860  0.24675403  1
  Ir  Ir137  1  0.33882922  0.33968414  0.50012327  1
  Ir  Ir138  1  0.16976390  0.50086871  0.75033173  1
  Ir  Ir139  1  0.66094781  -0.00294889  0.75394572  1
  Ir  Ir140  1  0.49424364  0.50316576  0.49940895  1
  Ir  Ir141  1  0.83333477  0.83992827  0.00512671  1
  Ir  Ir142  1  0.16458772  0.15899436  0.00323770  1
  Ir  Ir143  1  0.66354297  -0.00216386  0.00357700  1
  O  O144  1  0.31652344  0.30647103  0.12784010  1
  O  O145  1  0.31376631  0.33602930  0.62231637  1
  O  O146  1  0.29971095  0.65640083  0.12236640  1
  O  O147  1  0.31350877  0.65838948  0.62016151  1
  O  O148  1  0.31762787  1.00253687  0.12222549  1
  O  O149  1  0.30343786  0.99152820  0.62385900  1
  O  O150  1  0.64493248  0.32315986  0.12811102  1
  O  O151  1  0.64384309  0.32176030  0.61904617  1
  O  O152  1  0.64992063  0.67652599  0.12635035  1
  O  O153  1  0.63915840  0.65355176  0.61351267  1
  O  O154  1  0.63344843  0.98653185  0.12453964  1
  O  O155  1  0.63383785  0.99808957  0.63219607  1
  O  O156  1  0.97700373  0.31483153  0.13317235  1
  O  O157  1  0.98261945  0.32664595  0.62283333  1
  O  O158  1  0.97885124  0.65955539  0.12673052  1
  O  O159  1  0.98478407  0.66949034  0.62404691  1
  O  O160  1  0.96526056  1.00216582  0.13031579  1
  O  O161  1  0.99104688  0.98169473  0.61646478  1
  O  O162  1  0.19383146  0.16243609  0.12452949  1
  O  O163  1  0.19527553  0.14182147  0.62392437  1
  O  O164  1  0.21201116  0.48977358  0.12721687  1
  O  O165  1  0.20118984  0.49954039  0.62611949  1
  O  O166  1  0.18383568  0.83143793  0.12194783  1
  O  O167  1  0.20079069  0.84087135  0.61776106  1
  O  O168  1  0.53668300  0.15332106  0.13026960  1
  O  O169  1  0.51960108  0.15359630  0.62344966  1
  O  O170  1  0.51890866  0.49452174  0.11543819  1
  O  O171  1  0.52928368  0.49987905  0.62625121  1
  O  O172  1  0.53375912  0.83749250  0.12884506  1
  O  O173  1  0.51846529  0.84063288  0.62143816  1
  O  O174  1  0.86148914  0.15517046  0.13057153  1
  O  O175  1  0.86489510  0.15899773  0.61169721  1
  O  O176  1  0.86644392  0.49749372  0.13147144  1
  O  O177  1  0.85299108  0.49505635  0.62367798  1
  O  O178  1  0.85141795  0.84189603  0.12611127  1
  O  O179  1  0.86220872  0.82600225  0.62020651  1
  O  O180  1  0.13474982  0.17532311  0.37806820  1
  O  O181  1  0.14561156  0.15154216  0.88289332  1
  O  O182  1  0.15321132  0.49810760  0.38241436  1
  O  O183  1  0.13804739  0.50939017  0.87011207  1
  O  O184  1  0.15130654  0.83573368  0.38178573  1
  O  O185  1  0.15213616  0.85255250  0.88188797  1
  O  O186  1  0.47021055  0.17186117  0.36829397  1
  O  O187  1  0.48244931  0.17065688  0.87659022  1
  O  O188  1  0.46175804  0.51131652  0.38093186  1
  O  O189  1  0.46441329  0.50245631  0.87224205  1
  O  O190  1  0.46439557  0.84618494  0.37528022  1
  O  O191  1  0.47746250  0.84938204  0.87309513  1
  O  O192  1  0.80282748  0.17124979  0.37107912  1
  O  O193  1  0.81596295  0.16223439  0.88862464  1
  O  O194  1  0.81569752  0.50412847  0.36734331  1
  O  O195  1  0.79507660  0.51770136  0.87546142  1
  O  O196  1  0.79940827  0.83655294  0.36513837  1
  O  O197  1  0.81864737  0.84190220  0.88708921  1
  O  O198  1  0.02133850  0.01262752  0.37270114  1
  O  O199  1  0.02551912  0.00530402  0.88781520  1
  O  O200  1  0.03307595  0.33595770  0.36793701  1
  O  O201  1  0.01929627  0.33761600  0.88010050  1
  O  O202  1  0.01685670  0.66472849  0.36524331  1
  O  O203  1  0.04701675  0.67817596  0.87545324  1
  O  O204  1  0.37471701  0.01099278  0.38183750  1
  O  O205  1  0.36600277  -0.00161867  0.87211961  1
  O  O206  1  0.36998311  0.35079353  0.38202691  1
  O  O207  1  0.36445873  0.34467605  0.86666152  1
  O  O208  1  0.36419828  0.67982482  0.38077630  1
  O  O209  1  0.35172588  0.67424312  0.87342984  1
  O  O210  1  0.68037665  0.01142547  0.36532320  1
  O  O211  1  0.68424576  0.00173270  0.87930105  1
  O  O212  1  0.70285732  0.33364258  0.36826343  1
  O  O213  1  0.67926319  0.34321588  0.88198906  1
  O  O214  1  0.69510452  0.67717198  0.37570584  1
  O  O215  1  0.69598444  0.67003174  0.87546992  1
  O  O216  1  0.06637932  0.09397227  0.03202792  1
  O  O217  1  0.06954698  0.08858859  0.51956676  1
  O  O218  1  0.06816672  0.43489970  0.02856072  1
  O  O219  1  0.08379221  0.42875865  0.51504846  1
  O  O220  1  0.07816823  0.76742932  0.02339405  1
  O  O221  1  0.07724440  0.77218347  0.51734698  1
  O  O222  1  0.40375102  0.08893796  0.02631967  1
  O  O223  1  0.40836031  0.08620474  0.52219699  1
  O  O224  1  0.40366068  0.43416259  0.01731335  1
  O  O225  1  0.40023798  0.43790524  0.52649255  1
  O  O226  1  0.41282381  0.76723772  0.01780093  1
  O  O227  1  0.39555822  0.77032442  0.51938298  1
  O  O228  1  0.73244161  0.09128518  0.03438625  1
  O  O229  1  0.74439313  0.09406264  0.50569065  1
  O  O230  1  0.73409775  0.42242739  0.01278446  1
  O  O231  1  0.72812992  0.43288559  0.52032280  1
  O  O232  1  0.73948966  0.77580155  0.02262337  1
  O  O233  1  0.72618563  0.75582855  0.50957079  1
  O  O234  1  0.09055258  0.24581347  0.02206214  1
  O  O235  1  0.09200922  0.25394277  0.52255728  1
  O  O236  1  0.10167121  0.59962339  0.03244103  1
  O  O237  1  0.10027253  0.58886118  0.51238897  1
  O  O238  1  0.09711774  0.93684248  0.01686896  1
  O  O239  1  0.10252440  0.93105938  0.52361335  1
  O  O240  1  0.42077378  0.25158168  0.01419140  1
  O  O241  1  0.42920003  0.26751228  0.50813870  1
  O  O242  1  0.42869545  0.58830850  0.02034316  1
  O  O243  1  0.42428378  0.59533132  0.52285344  1
  O  O244  1  0.43559232  0.93693185  0.02070350  1
  O  O245  1  0.43076335  0.93016242  0.52794360  1
  O  O246  1  0.75277686  0.25261753  0.02680042  1
  O  O247  1  0.77012138  0.25339384  0.50631405  1
  O  O248  1  0.76093184  0.59607545  0.02257829  1
  O  O249  1  0.74491054  0.59230555  0.50815232  1
  O  O250  1  0.76179405  0.93405630  0.02972898  1
  O  O251  1  0.75422953  0.91998343  0.51244425  1
  O  O252  1  0.24991319  0.07918560  0.27503261  1
  O  O253  1  0.23936091  0.05948499  0.77528375  1
  O  O254  1  0.23358031  0.39581678  0.28292887  1
  O  O255  1  0.24398287  0.41004889  0.77254488  1
  O  O256  1  0.24411075  0.74460270  0.26686144  1
  O  O257  1  0.23050885  0.73358021  0.77070180  1
  O  O258  1  0.56600570  0.06681524  0.27168542  1
  O  O259  1  0.56594737  0.06161764  0.77056757  1
  O  O260  1  0.57479562  0.39523474  0.27358627  1
  O  O261  1  0.55864410  0.40825289  0.77734511  1
  O  O262  1  0.56751442  0.74546527  0.28335176  1
  O  O263  1  0.56571616  0.74682527  0.76152012  1
  O  O264  1  0.90373244  0.07570519  0.27287850  1
  O  O265  1  0.90626896  0.06995673  0.76148122  1
  O  O266  1  0.90207298  0.39724788  0.27195756  1
  O  O267  1  0.91024385  0.41152899  0.77854475  1
  O  O268  1  0.89865012  0.73780821  0.27128652  1
  O  O269  1  0.89990964  0.73082533  0.78409092  1
  O  O270  1  0.26227745  0.23804409  0.28875946  1
  O  O271  1  0.26524851  0.24674656  0.76339084  1
  O  O272  1  0.26584151  0.56632520  0.27765363  1
  O  O273  1  0.26338212  0.56659879  0.77060513  1
  O  O274  1  0.26751422  0.90548182  0.27313394  1
  O  O275  1  0.27321888  0.90339870  0.75659449  1
  O  O276  1  0.60542762  0.23010083  0.27270285  1
  O  O277  1  0.58257714  0.24759356  0.77611024  1
  O  O278  1  0.58467574  0.57883894  0.27126377  1
  O  O279  1  0.59039257  0.56352206  0.77260553  1
  O  O280  1  0.60040378  0.90313703  0.27666934  1
  O  O281  1  0.58681602  0.91000798  0.77376860  1
  O  O282  1  0.92929003  0.23345783  0.27901413  1
  O  O283  1  0.92852667  0.23355545  0.75309962  1
  O  O284  1  0.92346599  0.57344892  0.27010158  1
  O  O285  1  0.93055139  0.57274335  0.78515539  1
  O  O286  1  0.92216629  0.90913696  0.26753017  1
  O  O287  1  0.93381008  0.90112002  0.75182804  1
  O  O288  1  0.26897235  0.24685337  0.47233947  1
  O  O289  1  0.25429238  0.22876710  0.98642516  1
  O  O290  1  0.27153744  0.56772622  0.48188723  1
  O  O291  1  0.26309106  0.57161524  0.96698005  1
  O  O292  1  0.27294531  0.90369940  0.47693283  1
  O  O293  1  0.25766699  0.91369936  0.98124040  1
  O  O294  1  0.59486745  0.23789618  0.45985710  1
  O  O295  1  0.59084218  0.24675250  0.98854602  1
  O  O296  1  0.58115469  0.57829552  0.46770877  1
  O  O297  1  0.59130585  0.56458189  0.97440496  1
  O  O298  1  0.58799728  0.89996904  0.46890714  1
  O  O299  1  0.59478528  0.90730489  0.98073767  1
  O  O300  1  0.92883018  0.22883060  0.46951419  1
  O  O301  1  0.92050599  0.23287011  0.99829284  1
  O  O302  1  0.91739064  0.57775496  0.47678660  1
  O  O303  1  0.93337805  0.57407259  0.97219740  1
  O  O304  1  0.93321728  0.90809183  0.48259672  1
  O  O305  1  0.92945037  0.90951254  0.98880393  1
  O  O306  1  0.25579965  0.07675177  0.47144557  1
  O  O307  1  0.23649879  0.06577974  0.98201478  1
  O  O308  1  0.24301919  0.40534026  0.47596785  1
  O  O309  1  0.24372070  0.40622961  0.97235723  1
  O  O310  1  0.24472033  0.74411245  0.47386681  1
  O  O311  1  0.22790270  0.74210412  0.98543229  1
  O  O312  1  0.57214684  0.06816090  0.47332847  1
  O  O313  1  0.56659009  0.05982467  0.98519827  1
  O  O314  1  0.55755914  0.40898039  0.47147956  1
  O  O315  1  0.56825282  0.40446626  0.97030716  1
  O  O316  1  0.56333121  0.73858634  0.46678801  1
  O  O317  1  0.57106006  0.74808444  0.98368713  1
  O  O318  1  0.91230191  0.07004324  0.47195331  1
  O  O319  1  0.89903322  0.06603082  0.99697052  1
  O  O320  1  0.90015475  0.39328300  0.46969959  1
  O  O321  1  0.90869736  0.41210856  0.98059635  1
  O  O322  1  0.90141678  0.73584117  0.46667782  1
  O  O323  1  0.89796126  0.74367224  0.98416820  1
  O  O324  1  0.08737488  0.26000023  0.23162260  1
  O  O325  1  0.09172352  0.25228949  0.73132023  1
  O  O326  1  0.08920539  0.59308892  0.22159860  1
  O  O327  1  0.10550022  0.59284390  0.73452045  1
  O  O328  1  0.08334434  0.93010256  0.23986433  1
  O  O329  1  0.11098496  0.94202670  0.74423732  1
  O  O330  1  0.44288186  0.26238015  0.24258948  1
  O  O331  1  0.42287216  0.26757632  0.73636007  1
  O  O332  1  0.42595934  0.59361622  0.22973633  1
  O  O333  1  0.42730809  0.58972608  0.72813062  1
  O  O334  1  0.44441150  0.93677733  0.23265713  1
  O  O335  1  0.43154434  0.93524082  0.72283330  1
  O  O336  1  0.76253234  0.25590432  0.22667266  1
  O  O337  1  0.75538081  0.25238542  0.74035741  1
  O  O338  1  0.76520234  0.58820827  0.23903360  1
  O  O339  1  0.74905185  0.58726194  0.71974471  1
  O  O340  1  0.75816565  0.93289533  0.21897884  1
  O  O341  1  0.75067710  0.92659789  0.73859267  1
  O  O342  1  0.06091058  0.09614551  0.23316038  1
  O  O343  1  0.07169903  0.09380199  0.71718220  1
  O  O344  1  0.06087513  0.42753461  0.22319209  1
  O  O345  1  0.08030139  0.43169243  0.73924914  1
  O  O346  1  0.07554517  0.75024362  0.22886566  1
  O  O347  1  0.06593913  0.77533272  0.72258031  1
  O  O348  1  0.40982366  0.10406571  0.22163749  1
  O  O349  1  0.40240062  0.08696523  0.72992747  1
  O  O350  1  0.39716866  0.43265989  0.22673951  1
  O  O351  1  0.39765119  0.43771431  0.72706626  1
  O  O352  1  0.41086488  0.77043861  0.23829372  1
  O  O353  1  0.40327275  0.77503685  0.72408193  1
  O  O354  1  0.73300838  0.09746951  0.22356384  1
  O  O355  1  0.73175415  0.08384878  0.73786975  1
  O  O356  1  0.74092951  0.42605279  0.22873746  1
  O  O357  1  0.72381899  0.43361475  0.73523431  1
  O  O358  1  0.73192313  0.77552130  0.23193837  1
  O  O359  1  0.74062994  0.75797821  0.73219349  1
