# generated using pymatgen
data_BaLaInIrO6
_symmetry_space_group_name_H-M   'P 1'
_cell_length_a   17.51190455
_cell_length_b   17.54416290
_cell_length_c   16.48909451
_cell_angle_alpha   89.94174833
_cell_angle_beta   90.02782130
_cell_angle_gamma   90.02852680
_symmetry_Int_Tables_number   1
_chemical_formula_structural   BaLaInIrO6
_chemical_formula_sum   'Ba36 La36 In36 Ir36 O216'
_cell_volume   5065.96879400
_cell_formula_units_Z   36
loop_
 _symmetry_equiv_pos_site_id
 _symmetry_equiv_pos_as_xyz
  1  'x, y, z'
loop_
 _atom_site_type_symbol
 _atom_site_label
 _atom_site_symmetry_multiplicity
 _atom_site_fract_x
 _atom_site_fract_y
 _atom_site_fract_z
 _atom_site_occupancy
  Ba  Ba0  1  0.50090026  0.66388284  0.87312659  1
  Ba  Ba1  1  0.16702837  0.00925156  0.62707933  1
  Ba  Ba2  1  0.49374817  0.34368418  0.12944304  1
  Ba  Ba3  1  0.83114067  0.67680213  0.62735149  1
  Ba  Ba4  1  0.66479165  0.81929503  0.87285291  1
  Ba  Ba5  1  0.16678259  0.32514717  0.87220985  1
  Ba  Ba6  1  0.66823204  0.82253102  0.37613570  1
  Ba  Ba7  1  -0.00329788  0.15910100  0.86758362  1
  Ba  Ba8  1  0.16774622  0.68006908  0.12561558  1
  Ba  Ba9  1  0.66453361  0.84372900  0.11778992  1
  Ba  Ba10  1  0.16900898  0.99336109  0.37480095  1
  Ba  Ba11  1  0.33699674  0.84453717  0.62784530  1
  Ba  Ba12  1  0.83148169  0.00595837  0.62392714  1
  Ba  Ba13  1  0.33727577  0.49511599  0.87136027  1
  Ba  Ba14  1  0.33242198  0.82691829  0.87585935  1
  Ba  Ba15  1  0.33557248  0.17488259  0.12471801  1
  Ba  Ba16  1  0.49987127  0.67967703  0.62484123  1
  Ba  Ba17  1  0.83165298  0.33882526  0.62661047  1
  Ba  Ba18  1  0.00096115  0.83022855  0.37823434  1
  Ba  Ba19  1  0.16228630  0.33598900  0.62651801  1
  Ba  Ba20  1  1.00119595  0.84460077  0.62973263  1
  Ba  Ba21  1  0.33979884  0.84338889  0.12698450  1
  Ba  Ba22  1  0.16629506  0.99428716  0.87299133  1
  Ba  Ba23  1  0.66714076  0.17426539  0.62215297  1
  Ba  Ba24  1  0.66774250  0.15246525  0.87065695  1
  Ba  Ba25  1  0.16531656  0.66176035  0.37840781  1
  Ba  Ba26  1  0.16453892  0.67599548  0.62659641  1
  Ba  Ba27  1  0.82941726  0.65418182  0.87531704  1
  Ba  Ba28  1  0.17123222  0.00785777  0.12030294  1
  Ba  Ba29  1  -0.00137662  0.15870229  0.37636453  1
  Ba  Ba30  1  0.00093616  0.82894630  0.87807933  1
  Ba  Ba31  1  0.66523818  0.15438644  0.37545134  1
  Ba  Ba32  1  0.33249726  0.17275966  0.62536508  1
  Ba  Ba33  1  0.33491621  0.15967660  0.37512177  1
  Ba  Ba34  1  0.83186076  0.32141936  0.87085534  1
  Ba  Ba35  1  0.33068051  0.50475040  0.12264004  1
  La  La36  1  0.83584019  0.99201871  0.38430393  1
  La  La37  1  0.83030180  0.00958973  0.11929150  1
  La  La38  1  0.67275734  0.84857436  0.62859299  1
  La  La39  1  -0.00167265  0.49102247  0.87522933  1
  La  La40  1  0.67327465  0.51656693  0.62781909  1
  La  La41  1  1.00580579  0.51340765  0.12641053  1
  La  La42  1  0.66425095  0.48061738  0.37762952  1
  La  La43  1  0.16961307  0.32286732  0.37482365  1
  La  La44  1  0.66873501  0.18206402  0.12163587  1
  La  La45  1  1.00331767  0.18770410  0.11935252  1
  La  La46  1  0.65803919  0.48801710  0.87343329  1
  La  La47  1  0.00204783  0.49371975  0.38203896  1
  La  La48  1  0.50551817  0.98186993  0.86931281  1
  La  La49  1  0.17891284  0.33353194  0.12535071  1
  La  La50  1  0.50936423  0.31924964  0.87987566  1
  La  La51  1  0.84125686  0.64921906  0.37714902  1
  La  La52  1  0.83560796  0.31255349  0.37727039  1
  La  La53  1  0.83752234  0.98651180  0.87180546  1
  La  La54  1  0.49838006  0.01362670  0.62501779  1
  La  La55  1  0.82800004  0.68201193  0.12557892  1
  La  La56  1  0.50890223  0.98545515  0.37505974  1
  La  La57  1  0.33139865  0.48618927  0.37540669  1
  La  La58  1  0.49511122  0.34289520  0.62438780  1
  La  La59  1  0.33740082  0.51496911  0.62050254  1
  La  La60  1  0.50652284  0.65197234  0.37214874  1
  La  La61  1  0.82753322  0.34752644  0.12641654  1
  La  La62  1  0.17603739  0.65580864  0.87315059  1
  La  La63  1  0.32708787  0.15301167  0.87272982  1
  La  La64  1  1.00293630  0.17422876  0.62548842  1
  La  La65  1  1.00277620  0.51427407  0.62994175  1
  La  La66  1  0.66893174  0.51554835  0.12697559  1
  La  La67  1  0.32544868  0.82067989  0.37788745  1
  La  La68  1  1.00406249  0.85202155  0.12664923  1
  La  La69  1  0.49242536  0.01310934  0.12246733  1
  La  La70  1  0.50464405  0.31518575  0.37608165  1
  La  La71  1  0.49052988  0.68416897  0.12194853  1
  In  In72  1  0.16301947  0.50015667  0.25297295  1
  In  In73  1  0.83350661  0.16316341  0.24659100  1
  In  In74  1  0.66549785  0.33210887  0.74789518  1
  In  In75  1  0.16411701  0.49661654  0.00089883  1
  In  In76  1  -0.00116838  0.66696830  0.00170372  1
  In  In77  1  0.16734751  0.16995998  -0.00242058  1
  In  In78  1  0.33694904  0.66262254  0.25254259  1
  In  In79  1  0.00010363  0.66821494  0.75600767  1
  In  In80  1  0.83250614  0.16596847  -0.00226480  1
  In  In81  1  0.82971419  0.49515600  0.50242606  1
  In  In82  1  0.33776197  0.00146382  0.25353976  1
  In  In83  1  0.83202263  0.83368182  0.24888914  1
  In  In84  1  0.16877535  0.16601270  0.49982948  1
  In  In85  1  0.83066872  0.49783336  0.25194666  1
  In  In86  1  -0.00434811  0.66818898  0.24872333  1
  In  In87  1  0.50205217  0.83320656  0.25298248  1
  In  In88  1  0.50126564  0.49880040  0.74732348  1
  In  In89  1  0.16704990  0.83474031  0.00107670  1
  In  In90  1  0.66670236  0.66343715  0.00101959  1
  In  In91  1  -0.00451564  0.33801079  0.25202917  1
  In  In92  1  0.33444105  0.66996051  0.74721577  1
  In  In93  1  0.50199651  0.50107403  0.00332253  1
  In  In94  1  0.82903016  0.83095029  0.50078443  1
  In  In95  1  0.50371455  0.16580606  0.24892472  1
  In  In96  1  0.66757381  0.00008308  0.24548055  1
  In  In97  1  0.16715247  0.83696385  0.50430038  1
  In  In98  1  -0.00145237  0.66722715  0.50299016  1
  In  In99  1  0.49873822  0.16641022  0.75182157  1
  In  In100  1  0.16874294  0.49767234  0.50458740  1
  In  In101  1  0.16434340  0.16924212  0.24802633  1
  In  In102  1  -0.00325789  0.00562989  -0.00138616  1
  In  In103  1  0.33786588  0.33256040  -0.00926170  1
  In  In104  1  -0.00429473  0.00334800  0.24851509  1
  In  In105  1  -0.00275273  0.33358965  0.74961925  1
  In  In106  1  0.50384174  0.49806624  0.49868433  1
  In  In107  1  0.16774414  0.83614059  0.24989915  1
  Ir  Ir108  1  0.83021923  0.83522525  0.75272754  1
  Ir  Ir109  1  0.83207372  0.16135383  0.74529308  1
  Ir  Ir110  1  0.34230063  0.00216567  -0.00559524  1
  Ir  Ir111  1  0.34180375  0.66767252  0.49907053  1
  Ir  Ir112  1  0.50421064  0.49907129  0.25420153  1
  Ir  Ir113  1  0.16813146  0.16602035  0.74923925  1
  Ir  Ir114  1  0.33468278  0.33500641  0.74274481  1
  Ir  Ir115  1  0.50109172  0.83430493  0.50024719  1
  Ir  Ir116  1  0.66805247  0.66521509  0.74580947  1
  Ir  Ir117  1  0.66543079  0.66656978  0.49697482  1
  Ir  Ir118  1  0.50367589  0.16460570  -0.00462317  1
  Ir  Ir119  1  0.66386466  0.00018684  0.50102656  1
  Ir  Ir120  1  0.33459473  0.66689427  -0.00175444  1
  Ir  Ir121  1  0.16709920  0.83730893  0.75165688  1
  Ir  Ir122  1  0.33787388  0.33791952  0.25916041  1
  Ir  Ir123  1  0.16812564  0.49755585  0.74906654  1
  Ir  Ir124  1  0.50147244  0.83478554  -0.00439856  1
  Ir  Ir125  1  0.33751469  -0.00018049  0.74822544  1
  Ir  Ir126  1  0.66540761  0.33532731  0.24796096  1
  Ir  Ir127  1  0.66601455  0.33408326  0.00443390  1
  Ir  Ir128  1  0.83053275  0.49990457  0.75445685  1
  Ir  Ir129  1  0.66708483  -0.00232418  0.75089745  1
  Ir  Ir130  1  -0.00211335  0.00142535  0.74709924  1
  Ir  Ir131  1  0.33657246  0.33505207  0.50175693  1
  Ir  Ir132  1  -0.00394711  0.33250633  0.50106827  1
  Ir  Ir133  1  0.83207402  0.83233279  -0.00260145  1
  Ir  Ir134  1  0.83093229  0.16655195  0.50159375  1
  Ir  Ir135  1  0.50666721  0.83550704  0.74498179  1
  Ir  Ir136  1  0.34421008  0.00059784  0.50301270  1
  Ir  Ir137  1  -0.00324868  0.00456096  0.50459571  1
  Ir  Ir138  1  0.66540675  0.66198735  0.25224306  1
  Ir  Ir139  1  0.50211869  0.16703619  0.50137817  1
  Ir  Ir140  1  -0.00806893  0.33821316  0.00115540  1
  Ir  Ir141  1  0.83225667  0.49431383  0.00159262  1
  Ir  Ir142  1  0.66199960  -0.00008053  -0.00314393  1
  Ir  Ir143  1  0.66408261  0.33116825  0.49671013  1
  O  O144  1  0.31551398  0.33299442  0.13696405  1
  O  O145  1  0.30931336  0.32832413  0.62216591  1
  O  O146  1  0.32231260  0.66597500  0.11802963  1
  O  O147  1  0.31570634  0.65781478  0.61829240  1
  O  O148  1  0.32621518  1.00058078  0.11366027  1
  O  O149  1  0.31707918  0.99966696  0.62526053  1
  O  O150  1  0.64040424  0.32100433  0.12597248  1
  O  O151  1  0.63232457  0.32878575  0.61679941  1
  O  O152  1  0.63040590  0.65442812  0.13308352  1
  O  O153  1  0.64420551  0.65234714  0.62019641  1
  O  O154  1  0.62798733  0.99851649  0.11366726  1
  O  O155  1  0.63387593  0.99172337  0.62645230  1
  O  O156  1  0.96552000  0.32832037  0.12105936  1
  O  O157  1  0.97857132  0.31711946  0.62122716  1
  O  O158  1  0.95711730  0.64481739  0.12329092  1
  O  O159  1  0.97923222  0.65142433  0.63206084  1
  O  O160  1  0.96325367  0.99102643  0.12139848  1
  O  O161  1  0.98051822  1.01036949  0.62562998  1
  O  O162  1  0.18557125  0.18636753  0.12224940  1
  O  O163  1  0.18087583  0.17121166  0.62833922  1
  O  O164  1  0.17688859  0.47143235  0.12919793  1
  O  O165  1  0.20290934  0.49304908  0.63042935  1
  O  O166  1  0.19284425  0.83850813  0.12399630  1
  O  O167  1  0.18616169  0.83949098  0.63289575  1
  O  O168  1  0.53421381  0.15526623  0.11592000  1
  O  O169  1  0.51889783  0.15805499  0.62252014  1
  O  O170  1  0.53468027  0.49363793  0.13518378  1
  O  O171  1  0.53784147  0.48358481  0.62165383  1
  O  O172  1  0.51451193  0.82624645  0.11687247  1
  O  O173  1  0.53662047  0.83309616  0.62238855  1
  O  O174  1  0.86922087  0.15066014  0.12141018  1
  O  O175  1  0.86237204  0.16243572  0.62327596  1
  O  O176  1  0.86449488  0.48590749  0.12094894  1
  O  O177  1  0.86050957  0.49824919  0.63321588  1
  O  O178  1  0.86038593  0.82030124  0.11568607  1
  O  O179  1  0.84628435  0.83429945  0.63221209  1
  O  O180  1  0.15013319  0.18279297  0.37561236  1
  O  O181  1  0.15117644  0.16249951  0.86896521  1
  O  O182  1  0.13864625  0.49613427  0.38017157  1
  O  O183  1  0.13768942  0.50695065  0.86933542  1
  O  O184  1  0.15556996  0.83587917  0.37899441  1
  O  O185  1  0.15357493  0.83536394  0.87042260  1
  O  O186  1  0.48549749  0.17667274  0.38124961  1
  O  O187  1  0.46727153  0.17611085  0.87795582  1
  O  O188  1  0.47108085  0.51028445  0.37272293  1
  O  O189  1  0.49120177  0.50895824  0.87474586  1
  O  O190  1  0.46644790  0.84416123  0.38303328  1
  O  O191  1  0.48273801  0.84377627  0.86969159  1
  O  O192  1  0.81260508  0.17329114  0.37958997  1
  O  O193  1  0.81549655  0.16536970  0.86650099  1
  O  O194  1  0.79443295  0.51015165  0.37667122  1
  O  O195  1  0.79504162  0.49800559  0.87823196  1
  O  O196  1  0.81559787  0.85575225  0.37581715  1
  O  O197  1  0.80922147  0.84743078  0.87478301  1
  O  O198  1  0.01027616  0.00181763  0.38556248  1
  O  O199  1  0.01249004  0.00182059  0.86655416  1
  O  O200  1  0.02713885  0.34662327  0.38357241  1
  O  O201  1  0.01360384  0.34748924  0.87926539  1
  O  O202  1  0.01457639  0.66706367  0.37602335  1
  O  O203  1  0.03738755  0.66219221  0.87675189  1
  O  O204  1  0.37423369  0.00537360  0.38630672  1
  O  O205  1  0.36908616  0.00981801  0.87079679  1
  O  O206  1  0.36984069  0.34770427  0.38196934  1
  O  O207  1  0.36982069  0.33911114  0.85983702  1
  O  O208  1  0.37222059  0.67696682  0.38126726  1
  O  O209  1  0.34872280  0.66403060  0.87803503  1
  O  O210  1  0.69701509  0.00190329  0.38148123  1
  O  O211  1  0.69776953  -0.00116964  0.87417030  1
  O  O212  1  0.69841389  0.34120874  0.37178739  1
  O  O213  1  0.68575226  0.34858820  0.88383669  1
  O  O214  1  0.70076215  0.66828532  0.37429193  1
  O  O215  1  0.67884027  0.66204316  0.86878238  1
  O  O216  1  0.06564177  0.10627006  0.02050839  1
  O  O217  1  0.06668309  0.09701191  0.52009035  1
  O  O218  1  0.04952964  0.43555574  0.01239882  1
  O  O219  1  0.06010710  0.42486924  0.52756928  1
  O  O220  1  0.06549033  0.76505874  0.02761637  1
  O  O221  1  0.07631116  0.75907098  0.52077552  1
  O  O222  1  0.41545376  0.09282228  0.01869281  1
  O  O223  1  0.41592427  0.09099041  0.52834957  1
  O  O224  1  0.40912107  0.42571120  0.01435480  1
  O  O225  1  0.40453851  0.42677169  0.52641349  1
  O  O226  1  0.40956299  0.75930841  0.01653022  1
  O  O227  1  0.40940341  0.76394300  0.52112865  1
  O  O228  1  0.72878712  0.09194535  0.02498066  1
  O  O229  1  0.73943647  0.09036071  0.52083975  1
  O  O230  1  0.73549834  0.42612077  0.03569852  1
  O  O231  1  0.72636079  0.42758410  0.52079007  1
  O  O232  1  0.74522508  0.75545517  0.01752652  1
  O  O233  1  0.72514583  0.76125221  0.52552079  1
  O  O234  1  0.08961786  0.27688569  0.02307580  1
  O  O235  1  0.08343884  0.25979067  0.51563769  1
  O  O236  1  0.08904029  0.58725282  0.02716154  1
  O  O237  1  0.08707104  0.58163670  0.52716999  1
  O  O238  1  0.08614036  0.92676489  0.01366945  1
  O  O239  1  0.08636825  0.93455951  0.51684471  1
  O  O240  1  0.43669883  0.25580415  0.01435382  1
  O  O241  1  0.43721517  0.26845523  0.52024798  1
  O  O242  1  0.43174363  0.60228370  0.02156110  1
  O  O243  1  0.42730611  0.59190648  0.51832225  1
  O  O244  1  0.43991471  0.93613800  0.00896768  1
  O  O245  1  0.43932648  0.93199098  0.52729309  1
  O  O246  1  0.75755731  0.26184797  0.02927708  1
  O  O247  1  0.75987757  0.26304368  0.51447235  1
  O  O248  1  0.76840255  0.58817946  0.02973779  1
  O  O249  1  0.75293274  0.59503300  0.51971328  1
  O  O250  1  0.76061208  0.93292293  0.01928350  1
  O  O251  1  0.74669634  0.92321035  0.52267669  1
  O  O252  1  0.24240728  0.07709904  0.26109778  1
  O  O253  1  0.25024869  0.07765789  0.77289926  1
  O  O254  1  0.24298605  0.40268404  0.28123335  1
  O  O255  1  0.24352866  0.40739577  0.76896000  1
  O  O256  1  0.24795918  0.74131950  0.27265598  1
  O  O257  1  0.23554591  0.74254892  0.76874340  1
  O  O258  1  0.56940280  0.06656917  0.27473492  1
  O  O259  1  0.57230028  0.06412715  0.76945640  1
  O  O260  1  0.57054509  0.40299096  0.28220468  1
  O  O261  1  0.56773177  0.40050199  0.77594989  1
  O  O262  1  0.57249709  0.72668607  0.27565975  1
  O  O263  1  0.57489626  0.73798627  0.76167912  1
  O  O264  1  0.88738026  0.05681772  0.27328329  1
  O  O265  1  0.90030433  0.06698474  0.76794634  1
  O  O266  1  0.88310056  0.39057097  0.26934627  1
  O  O267  1  0.90482661  0.41414871  0.77142302  1
  O  O268  1  0.88347923  0.72290517  0.26444705  1
  O  O269  1  0.90269548  0.74756249  0.77057934  1
  O  O270  1  0.26450407  0.25296553  0.27435871  1
  O  O271  1  0.26591020  0.23756020  0.77267924  1
  O  O272  1  0.26931396  0.56426626  0.27565210  1
  O  O273  1  0.24917643  0.57752345  0.76911729  1
  O  O274  1  0.27343473  0.90349910  0.27782220  1
  O  O275  1  0.26190012  0.91233934  0.76845418  1
  O  O276  1  0.59779296  0.24353203  0.26487648  1
  O  O277  1  0.58669034  0.24362484  0.77495426  1
  O  O278  1  0.60199421  0.56313908  0.27934130  1
  O  O279  1  0.60704068  0.56673307  0.75889471  1
  O  O280  1  0.59522544  0.90518937  0.27125265  1
  O  O281  1  0.59774531  0.90582296  0.76589265  1
  O  O282  1  0.92524960  0.23937240  0.26660284  1
  O  O283  1  0.92077079  0.23460430  0.75583571  1
  O  O284  1  0.92520505  0.56453928  0.28507449  1
  O  O285  1  0.92497306  0.56606390  0.77687463  1
  O  O286  1  0.93537423  0.89457168  0.25364745  1
  O  O287  1  0.92115818  0.91073574  0.77347528  1
  O  O288  1  0.26086854  0.25086599  0.47965422  1
  O  O289  1  0.26795609  0.23648947  0.97143942  1
  O  O290  1  0.27460494  0.57180744  0.47983711  1
  O  O291  1  0.25916619  0.57925560  0.98120650  1
  O  O292  1  0.27555581  0.90973058  0.48149640  1
  O  O293  1  0.26837675  0.91743448  0.98109263  1
  O  O294  1  0.59131885  0.24205246  0.47382860  1
  O  O295  1  0.59477954  0.24009424  0.97434097  1
  O  O296  1  0.59923163  0.57314031  0.46907703  1
  O  O297  1  0.61096974  0.55728413  0.99013316  1
  O  O298  1  0.58865105  0.91142595  0.47391640  1
  O  O299  1  0.59118037  0.90940948  0.97007638  1
  O  O300  1  0.92078584  0.24162725  0.47778390  1
  O  O301  1  0.93288391  0.24031749  0.98736705  1
  O  O302  1  0.92417419  0.56638482  0.47896047  1
  O  O303  1  0.92467739  0.55841904  0.97274884  1
  O  O304  1  0.92056582  0.91795961  0.49251953  1
  O  O305  1  0.91578535  0.90553648  0.98211753  1
  O  O306  1  0.25284382  0.07226731  0.48722879  1
  O  O307  1  0.25433762  0.07640254  0.97941803  1
  O  O308  1  0.24577597  0.40428367  0.47284404  1
  O  O309  1  0.23536711  0.39959804  0.99107209  1
  O  O310  1  0.25557879  0.74198331  0.48269220  1
  O  O311  1  0.23929601  0.73293864  0.97571849  1
  O  O312  1  0.56712368  0.06919196  0.48006161  1
  O  O313  1  0.56725284  0.06619715  0.96927701  1
  O  O314  1  0.57268673  0.39885247  0.46922143  1
  O  O315  1  0.57439321  0.39951826  0.97880470  1
  O  O316  1  0.56650844  0.73495462  0.47317861  1
  O  O317  1  0.56908123  0.73945640  0.99138060  1
  O  O318  1  0.90018454  0.07334450  0.48067744  1
  O  O319  1  0.89124032  0.06259847  0.97568920  1
  O  O320  1  0.90324153  0.39850509  0.47310734  1
  O  O321  1  0.89268322  0.39808444  0.98435028  1
  O  O322  1  0.89441588  0.73269671  0.48004559  1
  O  O323  1  0.89837367  0.74065737  0.97975571  1
  O  O324  1  0.10264799  0.28013343  0.23468954  1
  O  O325  1  0.08792196  0.24963321  0.73618435  1
  O  O326  1  0.09168640  0.59503507  0.22624815  1
  O  O327  1  0.09259550  0.58022149  0.72819053  1
  O  O328  1  0.09471690  0.93481848  0.23249047  1
  O  O329  1  0.09389145  0.93107053  0.73445980  1
  O  O330  1  0.42978254  0.26765214  0.24857780  1
  O  O331  1  0.42657437  0.26746908  0.72176113  1
  O  O332  1  0.44505873  0.59511098  0.23135940  1
  O  O333  1  0.41749736  0.58377430  0.72484514  1
  O  O334  1  0.43959447  0.93591939  0.22940027  1
  O  O335  1  0.43875091  0.93368727  0.72827510  1
  O  O336  1  0.75864044  0.26748919  0.22356846  1
  O  O337  1  0.75852984  0.25154013  0.73122301  1
  O  O338  1  0.75659539  0.59558021  0.21956447  1
  O  O339  1  0.75860281  0.59006996  0.72817827  1
  O  O340  1  0.76375996  0.93150558  0.21702620  1
  O  O341  1  0.75597767  0.92432233  0.72995741  1
  O  O342  1  0.05812495  0.10901716  0.22472190  1
  O  O343  1  0.06921364  0.09696320  0.72484659  1
  O  O344  1  0.04759565  0.44521242  0.24390482  1
  O  O345  1  0.07428098  0.42904327  0.72879482  1
  O  O346  1  0.06246460  0.76878672  0.22352942  1
  O  O347  1  0.07980286  0.76404214  0.73713105  1
  O  O348  1  0.41209759  0.09429318  0.22821133  1
  O  O349  1  0.40912818  0.08703430  0.73175040  1
  O  O350  1  0.40570230  0.43592165  0.24074988  1
  O  O351  1  0.40227992  0.42415543  0.71208629  1
  O  O352  1  0.41714764  0.75240365  0.23179221  1
  O  O353  1  0.41611253  0.76398900  0.73709096  1
  O  O354  1  0.73076058  0.10221767  0.21662002  1
  O  O355  1  0.73778546  0.08889567  0.73064367  1
  O  O356  1  0.72628607  0.43075647  0.22567428  1
  O  O357  1  0.73524285  0.43354331  0.72999949  1
  O  O358  1  0.72932153  0.75309013  0.22591832  1
  O  O359  1  0.73437708  0.76579536  0.72807832  1
