# generated using pymatgen
data_BaLaInIrO6
_symmetry_space_group_name_H-M   'P 1'
_cell_length_a   17.51981955
_cell_length_b   17.55865880
_cell_length_c   16.48129907
_cell_angle_alpha   89.97483876
_cell_angle_beta   89.98528282
_cell_angle_gamma   89.97450536
_symmetry_Int_Tables_number   1
_chemical_formula_structural   BaLaInIrO6
_chemical_formula_sum   'Ba36 La36 In36 Ir36 O216'
_cell_volume   5070.05078099
_cell_formula_units_Z   36
loop_
 _symmetry_equiv_pos_site_id
 _symmetry_equiv_pos_as_xyz
  1  'x, y, z'
loop_
 _atom_site_type_symbol
 _atom_site_label
 _atom_site_symmetry_multiplicity
 _atom_site_fract_x
 _atom_site_fract_y
 _atom_site_fract_z
 _atom_site_occupancy
  Ba  Ba0  1  0.16289142  0.67645065  0.11922052  1
  Ba  Ba1  1  0.66722329  0.17049507  0.62443624  1
  Ba  Ba2  1  0.83035587  0.34107278  0.62435655  1
  Ba  Ba3  1  0.83631935  0.67387430  0.12565387  1
  Ba  Ba4  1  0.83412963  0.99160131  0.87266586  1
  Ba  Ba5  1  0.50074020  0.00925790  0.62188606  1
  Ba  Ba6  1  0.16662604  0.32200060  0.87569892  1
  Ba  Ba7  1  0.00339580  0.49469958  0.37333710  1
  Ba  Ba8  1  0.33397945  0.17883537  0.12635842  1
  Ba  Ba9  1  0.67162889  0.82652746  0.87567622  1
  Ba  Ba10  1  0.83074269  0.66169829  0.87513963  1
  Ba  Ba11  1  0.49812293  0.34203655  0.12553318  1
  Ba  Ba12  1  0.83624979  0.00764520  0.12799279  1
  Ba  Ba13  1  0.32917157  0.48529093  0.37825968  1
  Ba  Ba14  1  0.16722033  0.65464175  0.87104352  1
  Ba  Ba15  1  0.33309630  0.84537343  0.62594164  1
  Ba  Ba16  1  0.66377061  0.50856393  0.12777396  1
  Ba  Ba17  1  0.66445691  0.84061970  0.62997938  1
  Ba  Ba18  1  0.49972923  0.32418394  0.37115171  1
  Ba  Ba19  1  0.33426520  0.84231612  0.12498082  1
  Ba  Ba20  1  0.66808627  0.49363386  0.87479610  1
  Ba  Ba21  1  0.66967773  0.15934072  0.87444191  1
  Ba  Ba22  1  0.66494251  0.84406903  0.12519802  1
  Ba  Ba23  1  0.17060955  0.67834574  0.62909839  1
  Ba  Ba24  1  0.33703010  0.51138611  0.62538988  1
  Ba  Ba25  1  0.66421727  0.82696830  0.37572420  1
  Ba  Ba26  1  0.16588097  0.34203500  0.12783523  1
  Ba  Ba27  1  -0.00130379  0.49307043  0.87328145  1
  Ba  Ba28  1  0.16166965  0.34665847  0.62152939  1
  Ba  Ba29  1  1.00039027  0.17654165  0.62663966  1
  Ba  Ba30  1  -0.00071255  0.82470433  0.37632896  1
  Ba  Ba31  1  0.33131477  0.15847361  0.37023625  1
  Ba  Ba32  1  0.16483315  0.00788967  0.12326111  1
  Ba  Ba33  1  0.66387830  0.50930188  0.62122139  1
  Ba  Ba34  1  0.49992645  0.99225337  0.37727957  1
  Ba  Ba35  1  1.00503682  0.84161025  0.62693382  1
  La  La36  1  0.34175733  0.17894763  0.62005328  1
  La  La37  1  -0.00555066  0.81594509  0.87201652  1
  La  La38  1  0.32372005  0.48510572  0.87248380  1
  La  La39  1  -0.00364628  0.15779261  0.87749443  1
  La  La40  1  0.48924549  0.01655088  0.12773297  1
  La  La41  1  0.83038792  0.66042816  0.38220552  1
  La  La42  1  0.65804283  0.15407403  0.37690961  1
  La  La43  1  0.82543220  0.00874697  0.62157343  1
  La  La44  1  0.49038836  0.68620555  0.62956901  1
  La  La45  1  1.00630692  0.18075714  0.12219618  1
  La  La46  1  0.50402543  0.65579732  0.37724546  1
  La  La47  1  0.16976815  0.98419875  0.87261440  1
  La  La48  1  -0.00097940  0.15498650  0.37116090  1
  La  La49  1  0.32835534  0.81348269  0.87450046  1
  La  La50  1  0.50033569  0.31982421  0.87485555  1
  La  La51  1  0.50676489  0.65373486  0.87260310  1
  La  La52  1  0.17338315  0.98404617  0.37651664  1
  La  La53  1  0.51089842  0.98569205  0.87513211  1
  La  La54  1  0.83341594  0.67726664  0.62723952  1
  La  La55  1  0.84098681  0.31874405  0.87340138  1
  La  La56  1  0.82921215  0.34706030  0.12545510  1
  La  La57  1  0.83300725  0.98357682  0.37763476  1
  La  La58  1  0.49566992  0.67773503  0.12217887  1
  La  La59  1  1.00161531  0.51799820  0.12170129  1
  La  La60  1  0.32806255  0.81500126  0.37496944  1
  La  La61  1  1.01392153  0.84848179  0.11418999  1
  La  La62  1  1.00827847  0.51862583  0.62540947  1
  La  La63  1  0.83491069  0.31645057  0.37412565  1
  La  La64  1  0.17273759  0.31671798  0.37786270  1
  La  La65  1  0.33851289  0.51550583  0.12879055  1
  La  La66  1  0.49530522  0.33768334  0.62156341  1
  La  La67  1  0.32748783  0.15075541  0.87573597  1
  La  La68  1  0.17395833  0.64934411  0.37962657  1
  La  La69  1  0.66919144  0.17824553  0.12699022  1
  La  La70  1  0.66597477  0.48733862  0.37407491  1
  La  La71  1  0.16544563  0.00752491  0.62481184  1
  In  In72  1  0.83511728  0.50046626  0.25177047  1
  In  In73  1  0.66812415  0.33489375  -0.00145341  1
  In  In74  1  0.16319084  0.16366523  0.24712848  1
  In  In75  1  0.83606335  0.83073645  0.24996023  1
  In  In76  1  -0.00091351  0.33602346  0.00297475  1
  In  In77  1  0.66618729  0.66767308  0.25092456  1
  In  In78  1  0.00243354  0.66812224  0.25327445  1
  In  In79  1  0.16982174  0.16367083  0.74886254  1
  In  In80  1  -0.00088927  0.00029842  0.25126716  1
  In  In81  1  0.49646755  0.49725085  0.75308753  1
  In  In82  1  0.66551578  0.66762541  0.74629661  1
  In  In83  1  0.49924870  0.50001715  0.25179970  1
  In  In84  1  0.49770901  0.83312260  -0.00104500  1
  In  In85  1  0.66525030  0.33251090  0.75128112  1
  In  In86  1  0.49723970  0.16436060  0.74985197  1
  In  In87  1  0.83383759  0.49930867  0.74660935  1
  In  In88  1  0.49799174  0.16676386  -0.00187250  1
  In  In89  1  0.00045935  0.33464554  0.49633412  1
  In  In90  1  0.83762789  0.83585507  0.00363974  1
  In  In91  1  0.49796205  0.83397354  0.25360476  1
  In  In92  1  0.83562089  0.49847707  0.49958825  1
  In  In93  1  0.66505666  0.33146776  0.49834710  1
  In  In94  1  0.16704761  0.16303968  0.50274551  1
  In  In95  1  0.66661260  0.00215656  0.00340448  1
  In  In96  1  0.16627828  0.83077495  0.24782656  1
  In  In97  1  0.00017002  0.33713915  0.25059031  1
  In  In98  1  0.16884466  0.49934174  0.00231395  1
  In  In99  1  0.83560491  0.16277858  0.74856146  1
  In  In100  1  0.16833023  0.83136054  0.50242102  1
  In  In101  1  0.33371877  -0.00173481  -0.00135899  1
  In  In102  1  0.00055608  0.00025729  0.50387376  1
  In  In103  1  0.66466322  0.66706349  0.00155265  1
  In  In104  1  0.00151306  0.33399266  0.74919998  1
  In  In105  1  0.66523977  -0.00416901  0.49789877  1
  In  In106  1  0.33094147  0.33232380  0.74934882  1
  In  In107  1  0.50014474  0.50069320  0.49971274  1
  Ir  Ir108  1  0.00056073  0.66591076  -0.00396917  1
  Ir  Ir109  1  0.33345630  0.66558986  -0.00087891  1
  Ir  Ir110  1  0.83020490  0.16516631  0.25284577  1
  Ir  Ir111  1  0.33470154  -0.00059767  0.25445656  1
  Ir  Ir112  1  0.83151007  0.16188661  0.49146948  1
  Ir  Ir113  1  0.33039294  0.33098463  0.49592581  1
  Ir  Ir114  1  0.50309210  0.16666750  0.25289955  1
  Ir  Ir115  1  0.00275848  -0.00190385  0.75110441  1
  Ir  Ir116  1  0.16759810  0.50406305  0.50137454  1
  Ir  Ir117  1  0.17222668  0.50207688  0.25107959  1
  Ir  Ir118  1  0.00162402  0.66895569  0.74809531  1
  Ir  Ir119  1  0.32997526  0.33415804  0.24964451  1
  Ir  Ir120  1  0.33256884  0.66549713  0.25095522  1
  Ir  Ir121  1  0.33320749  -0.00260113  0.49762785  1
  Ir  Ir122  1  0.16519155  0.16412293  -0.00312646  1
  Ir  Ir123  1  0.83428307  0.83083468  0.50457051  1
  Ir  Ir124  1  0.83930632  0.83505491  0.74644489  1
  Ir  Ir125  1  0.33406784  0.33518044  0.00278230  1
  Ir  Ir126  1  0.16616330  0.83251853  -0.00787170  1
  Ir  Ir127  1  0.16806816  0.83548308  0.75419735  1
  Ir  Ir128  1  0.66470591  0.00618965  0.24924302  1
  Ir  Ir129  1  0.16709341  0.50388252  0.74714259  1
  Ir  Ir130  1  0.33764748  0.66754328  0.50023514  1
  Ir  Ir131  1  0.83933566  0.16471615  0.00824524  1
  Ir  Ir132  1  0.66672830  0.67165418  0.50184486  1
  Ir  Ir133  1  0.49385831  0.83172238  0.50083616  1
  Ir  Ir134  1  0.33594153  0.66967543  0.75163746  1
  Ir  Ir135  1  0.67086320  0.32916455  0.24882209  1
  Ir  Ir136  1  0.00224008  0.66724776  0.50044066  1
  Ir  Ir137  1  0.48960749  0.50101510  -0.00041397  1
  Ir  Ir138  1  0.33402089  -0.00143696  0.74934171  1
  Ir  Ir139  1  0.49239927  0.83792743  0.75028776  1
  Ir  Ir140  1  0.00534748  0.00122214  -0.00656609  1
  Ir  Ir141  1  0.83457750  0.49809143  0.00086988  1
  Ir  Ir142  1  0.66719229  -0.00445529  0.74917697  1
  Ir  Ir143  1  0.49723492  0.16623946  0.49500740  1
  O  O144  1  0.31208551  0.33563450  0.12771404  1
  O  O145  1  0.31273321  0.32272600  0.61623296  1
  O  O146  1  0.30846976  0.65503937  0.12584988  1
  O  O147  1  0.31607074  0.66938992  0.62595044  1
  O  O148  1  0.31556242  0.99948403  0.13546516  1
  O  O149  1  0.30207634  0.99563062  0.62166273  1
  O  O150  1  0.64923339  0.31872829  0.12828189  1
  O  O151  1  0.62918143  0.32494106  0.62205278  1
  O  O152  1  0.62861354  0.66206072  0.12501212  1
  O  O153  1  0.62978240  0.67114009  0.61873326  1
  O  O154  1  0.63042602  1.00907589  0.13222635  1
  O  O155  1  0.65476666  0.99952056  0.62800265  1
  O  O156  1  0.96469926  0.31975550  0.12622173  1
  O  O157  1  0.97981610  0.33347193  0.62240680  1
  O  O158  1  0.98978490  0.65674389  0.11731244  1
  O  O159  1  0.97218003  0.66079290  0.62399306  1
  O  O160  1  0.98606203  0.98764395  0.11401903  1
  O  O161  1  0.96374951  0.99404373  0.63377210  1
  O  O162  1  0.18546155  0.16070731  0.11643390  1
  O  O163  1  0.20866723  0.14734560  0.62558402  1
  O  O164  1  0.20132229  0.50174180  0.13222709  1
  O  O165  1  0.18822878  0.50741423  0.62349614  1
  O  O166  1  0.18362396  0.83269297  0.11410414  1
  O  O167  1  0.18570302  0.83631053  0.63339585  1
  O  O168  1  0.53027703  0.15915995  0.13204946  1
  O  O169  1  0.51294942  0.16991036  0.61515033  1
  O  O170  1  0.51075950  0.49919344  0.11968446  1
  O  O171  1  0.51260733  0.47700886  0.62482032  1
  O  O172  1  0.51273090  0.81429503  0.12773878  1
  O  O173  1  0.51583301  0.82271729  0.62571064  1
  O  O174  1  0.86891160  0.16069593  0.13215804  1
  O  O175  1  0.85281227  0.14758536  0.61334384  1
  O  O176  1  0.86496557  0.48556373  0.11956040  1
  O  O177  1  0.87351982  0.49791749  0.62118809  1
  O  O178  1  0.87870840  0.83483801  0.12677605  1
  O  O179  1  0.85763714  0.82191875  0.62526255  1
  O  O180  1  0.13773432  0.17282487  0.37432744  1
  O  O181  1  0.13664796  0.16337053  0.87887770  1
  O  O182  1  0.15112888  0.51210928  0.37781220  1
  O  O183  1  0.15425032  0.49925608  0.86845216  1
  O  O184  1  0.15141319  0.84464557  0.37554035  1
  O  O185  1  0.13524771  0.84316054  0.87290812  1
  O  O186  1  0.47880574  0.16569268  0.37451729  1
  O  O187  1  0.45936197  0.17870264  0.87322582  1
  O  O188  1  0.47360199  0.51888101  0.37610271  1
  O  O189  1  0.45792322  0.51626922  0.88332547  1
  O  O190  1  0.46459242  0.83529449  0.38174381  1
  O  O191  1  0.46355334  0.84978181  0.86938547  1
  O  O192  1  0.79457693  0.17460422  0.37108577  1
  O  O193  1  0.81946998  0.17083237  0.88805831  1
  O  O194  1  0.80297865  0.52167558  0.37696529  1
  O  O195  1  0.81844842  0.50798312  0.88176163  1
  O  O196  1  0.81330813  0.83822745  0.38611176  1
  O  O197  1  0.82541277  0.83490300  0.86663862  1
  O  O198  1  0.03628018  0.01641584  0.37766260  1
  O  O199  1  0.03562271  0.01426996  0.87193021  1
  O  O200  1  0.04025004  0.33843544  0.37197370  1
  O  O201  1  0.01714925  0.33292180  0.87829854  1
  O  O202  1  0.03688752  0.66812238  0.38240852  1
  O  O203  1  0.02070529  0.67843934  0.87191621  1
  O  O204  1  0.35504700  0.00238691  0.37536611  1
  O  O205  1  0.36787405  0.00996381  0.86763688  1
  O  O206  1  0.35006934  0.32986034  0.37087340  1
  O  O207  1  0.36035634  0.34303714  0.88375262  1
  O  O208  1  0.36465142  0.67423835  0.37563244  1
  O  O209  1  0.36622333  0.67426455  0.87544540  1
  O  O210  1  0.69439825  0.01000276  0.37070969  1
  O  O211  1  0.68154853  -0.00347661  0.86807653  1
  O  O212  1  0.69825288  0.33798573  0.36728904  1
  O  O213  1  0.70658374  0.33502301  0.87890311  1
  O  O214  1  0.69744991  0.67602140  0.38498519  1
  O  O215  1  0.67700466  0.66784434  0.87350144  1
  O  O216  1  0.06774445  0.10010044  0.01825467  1
  O  O217  1  0.07909421  0.08644810  0.53482146  1
  O  O218  1  0.07043963  0.43211585  0.02799684  1
  O  O219  1  0.07245255  0.44141086  0.52096313  1
  O  O220  1  0.06635123  0.76652316  0.00977247  1
  O  O221  1  0.07296416  0.75449792  0.51797746  1
  O  O222  1  0.40599871  0.09243594  0.02241171  1
  O  O223  1  0.39947062  0.09662806  0.51968196  1
  O  O224  1  0.39209866  0.43537462  0.02274793  1
  O  O225  1  0.40692780  0.41427953  0.51466357  1
  O  O226  1  0.39712382  0.75841372  0.01176515  1
  O  O227  1  0.40516587  0.75961055  0.52060045  1
  O  O228  1  0.74135484  0.10315134  0.02800830  1
  O  O229  1  0.74601417  0.08812382  0.51168315  1
  O  O230  1  0.74542577  0.42776704  0.02515111  1
  O  O231  1  0.73849342  0.42757276  0.51051450  1
  O  O232  1  0.74462590  0.75854809  0.01646313  1
  O  O233  1  0.74306821  0.75874948  0.52954723  1
  O  O234  1  0.09387201  0.25210240  0.02010287  1
  O  O235  1  0.09530129  0.26013097  0.51197340  1
  O  O236  1  0.08961677  0.59347338  0.01021597  1
  O  O237  1  0.09735787  0.59884155  0.52149740  1
  O  O238  1  0.09952284  0.92975271  0.00958348  1
  O  O239  1  0.10137023  0.93064080  0.52109101  1
  O  O240  1  0.42288288  0.26664019  0.01667830  1
  O  O241  1  0.42428380  0.25962775  0.52045938  1
  O  O242  1  0.42461526  0.59753753  0.02997399  1
  O  O243  1  0.43369784  0.60426181  0.52408668  1
  O  O244  1  0.43166717  0.93311560  0.02576562  1
  O  O245  1  0.42671048  0.92788263  0.51959801  1
  O  O246  1  0.77145854  0.25579405  0.03085010  1
  O  O247  1  0.76217101  0.25130067  0.51117154  1
  O  O248  1  0.76301843  0.58604685  0.01909235  1
  O  O249  1  0.76157280  0.60773280  0.52507842  1
  O  O250  1  0.76227746  0.93006856  0.01574336  1
  O  O251  1  0.76757288  0.92634753  0.51883051  1
  O  O252  1  0.23626703  0.06352977  0.27365088  1
  O  O253  1  0.24070355  0.06116464  0.77718425  1
  O  O254  1  0.23344827  0.40142425  0.27300205  1
  O  O255  1  0.23584336  0.41281327  0.76457527  1
  O  O256  1  0.23883536  0.73226531  0.27852743  1
  O  O257  1  0.24265523  0.74514413  0.77679540  1
  O  O258  1  0.57742294  0.07974329  0.27829530  1
  O  O259  1  0.57279062  0.06447630  0.76947426  1
  O  O260  1  0.58379560  0.40534993  0.26667469  1
  O  O261  1  0.56328990  0.39974574  0.78194029  1
  O  O262  1  0.56369080  0.73409569  0.27778449  1
  O  O263  1  0.55821204  0.74367518  0.76718620  1
  O  O264  1  0.89479412  0.07481663  0.28300858  1
  O  O265  1  0.91990012  0.07342774  0.77367697  1
  O  O266  1  0.89559370  0.39514772  0.27167181  1
  O  O267  1  0.89957535  0.39993005  0.77604335  1
  O  O268  1  0.90081766  0.72995727  0.28236429  1
  O  O269  1  0.91114398  0.74258591  0.76768374  1
  O  O270  1  0.25388130  0.24720528  0.26658505  1
  O  O271  1  0.27077354  0.22981971  0.77495961  1
  O  O272  1  0.26727976  0.57067237  0.26965609  1
  O  O273  1  0.26929464  0.57236460  0.77120529  1
  O  O274  1  0.26842217  0.90565946  0.27623975  1
  O  O275  1  0.26421029  0.90396536  0.78035412  1
  O  O276  1  0.60269988  0.23316269  0.27210834  1
  O  O277  1  0.58506300  0.24168293  0.77879599  1
  O  O278  1  0.59575031  0.57005366  0.28189205  1
  O  O279  1  0.58394695  0.57850653  0.76822539  1
  O  O280  1  0.59412049  0.91595214  0.26687461  1
  O  O281  1  0.58563818  0.90752397  0.77246518  1
  O  O282  1  0.92125434  0.23093732  0.28142763  1
  O  O283  1  0.92822284  0.23455138  0.77727194  1
  O  O284  1  0.93871706  0.56599511  0.24951883  1
  O  O285  1  0.93373523  0.57891690  0.75919279  1
  O  O286  1  0.91636320  0.91735470  0.28104591  1
  O  O287  1  0.93562165  0.90504318  0.77443188  1
  O  O288  1  0.25974342  0.24248323  0.47936662  1
  O  O289  1  0.26593243  0.23283091  0.97638097  1
  O  O290  1  0.26235753  0.57963323  0.47895304  1
  O  O291  1  0.27000096  0.56955671  0.98191829  1
  O  O292  1  0.26965707  0.90407346  0.47375522  1
  O  O293  1  0.25945552  0.90196456  0.96838139  1
  O  O294  1  0.59030600  0.23410781  0.47205608  1
  O  O295  1  0.58882312  0.24523737  0.98183618  1
  O  O296  1  0.60161572  0.58038142  0.47225514  1
  O  O297  1  0.57811152  0.56937337  0.97879873  1
  O  O298  1  0.58456444  0.90289905  0.48851604  1
  O  O299  1  0.58995680  0.90854542  0.97940394  1
  O  O300  1  0.92182082  0.23133680  0.46615458  1
  O  O301  1  0.93162312  0.22880980  0.98423631  1
  O  O302  1  0.92926852  0.58275234  0.47912055  1
  O  O303  1  0.93441290  0.56684636  0.99193166  1
  O  O304  1  0.92073661  0.90668963  0.48309828  1
  O  O305  1  0.94334047  0.90560880  0.97309279  1
  O  O306  1  0.23837323  0.05943420  0.47558117  1
  O  O307  1  0.23560464  0.07172428  0.96998788  1
  O  O308  1  0.23311320  0.40140570  0.47687711  1
  O  O309  1  0.24436581  0.40406881  0.98195156  1
  O  O310  1  0.24506954  0.73701767  0.47322170  1
  O  O311  1  0.24063107  0.74091162  0.97161829  1
  O  O312  1  0.57607514  0.08064346  0.48113325  1
  O  O313  1  0.56823541  0.06974673  0.97492822  1
  O  O314  1  0.58129226  0.41579225  0.46591146  1
  O  O315  1  0.55697164  0.40802723  0.97542277  1
  O  O316  1  0.56361227  0.73618516  0.47871548  1
  O  O317  1  0.55841766  0.73043693  0.97874752  1
  O  O318  1  0.90253433  0.07250390  0.46694890  1
  O  O319  1  0.91386673  0.07342420  0.97732534  1
  O  O320  1  0.90174696  0.39925486  0.46373331  1
  O  O321  1  0.89345744  0.39948380  0.98135019  1
  O  O322  1  0.90198449  0.73306951  0.48323025  1
  O  O323  1  0.91599392  0.74032483  0.98035640  1
  O  O324  1  0.08467871  0.25537067  0.22431964  1
  O  O325  1  0.09661614  0.25680038  0.73328381  1
  O  O326  1  0.10843345  0.59624218  0.24191795  1
  O  O327  1  0.09181359  0.59542040  0.72683923  1
  O  O328  1  0.09203049  0.92525039  0.23241873  1
  O  O329  1  0.10177242  0.93189226  0.73226468  1
  O  O330  1  0.42546651  0.26067803  0.23228369  1
  O  O331  1  0.42903397  0.26539619  0.72090364  1
  O  O332  1  0.42675160  0.60126321  0.22481120  1
  O  O333  1  0.42979647  0.60675129  0.73027611  1
  O  O334  1  0.42923663  0.93503902  0.23021893  1
  O  O335  1  0.42685844  0.93290992  0.73040885  1
  O  O336  1  0.76467794  0.25894706  0.22247436  1
  O  O337  1  0.75840439  0.25215590  0.73576433  1
  O  O338  1  0.76039726  0.59276575  0.23342067  1
  O  O339  1  0.76481541  0.59956995  0.72201167  1
  O  O340  1  0.75350066  0.93590790  0.23879994  1
  O  O341  1  0.76764838  0.92718732  0.72400836  1
  O  O342  1  0.05725829  0.10233868  0.22811942  1
  O  O343  1  0.07737897  0.08068440  0.72530341  1
  O  O344  1  0.07553139  0.44061177  0.22488871  1
  O  O345  1  0.07243569  0.44034913  0.72653880  1
  O  O346  1  0.06511270  0.76665975  0.22259039  1
  O  O347  1  0.07210863  0.76696403  0.74099098  1
  O  O348  1  0.41192847  0.09131914  0.22850435  1
  O  O349  1  0.39405529  0.09542760  0.72403304  1
  O  O350  1  0.39907904  0.42843713  0.23180788  1
  O  O351  1  0.39457900  0.43346159  0.74809852  1
  O  O352  1  0.39475879  0.75935896  0.24090088  1
  O  O353  1  0.40061844  0.76668518  0.73576534  1
  O  O354  1  0.73192106  0.10257048  0.22700641  1
  O  O355  1  0.74704318  0.07787915  0.73201424  1
  O  O356  1  0.74008354  0.41790097  0.22877827  1
  O  O357  1  0.73569947  0.42942870  0.72887713  1
  O  O358  1  0.73784533  0.76468080  0.23372382  1
  O  O359  1  0.75071433  0.76135568  0.73092699  1
