# generated using pymatgen
data_BaLaInIrO6
_symmetry_space_group_name_H-M   'P 1'
_cell_length_a   17.54101984
_cell_length_b   17.57442917
_cell_length_c   16.50800962
_cell_angle_alpha   90.01794005
_cell_angle_beta   89.98937580
_cell_angle_gamma   89.99062678
_symmetry_Int_Tables_number   1
_chemical_formula_structural   BaLaInIrO6
_chemical_formula_sum   'Ba36 La36 In36 Ir36 O216'
_cell_volume   5088.98002665
_cell_formula_units_Z   36
loop_
 _symmetry_equiv_pos_site_id
 _symmetry_equiv_pos_as_xyz
  1  'x, y, z'
loop_
 _atom_site_type_symbol
 _atom_site_label
 _atom_site_symmetry_multiplicity
 _atom_site_fract_x
 _atom_site_fract_y
 _atom_site_fract_z
 _atom_site_occupancy
  Ba  Ba0  1  0.50124762  0.34207890  0.62367061  1
  Ba  Ba1  1  1.00265259  0.50583564  0.63326949  1
  Ba  Ba2  1  0.83350253  0.67571805  0.62520435  1
  Ba  Ba3  1  0.49855584  0.67983554  0.12261588  1
  Ba  Ba4  1  0.66563527  0.17439994  0.62825797  1
  Ba  Ba5  1  0.16635599  0.00763400  0.12958667  1
  Ba  Ba6  1  0.99971573  0.84297012  0.12573116  1
  Ba  Ba7  1  0.33004132  0.15759292  0.88151750  1
  Ba  Ba8  1  0.33740058  0.51128994  0.12198360  1
  Ba  Ba9  1  0.49731112  0.66108926  0.37772529  1
  Ba  Ba10  1  0.82807754  0.33877281  0.62999905  1
  Ba  Ba11  1  0.16762778  0.34269355  0.12091618  1
  Ba  Ba12  1  0.33585077  0.82293508  0.87491522  1
  Ba  Ba13  1  0.32804839  0.15727108  0.37373174  1
  Ba  Ba14  1  0.49574760  0.00596834  0.62792327  1
  Ba  Ba15  1  1.00358369  0.51108794  0.12200526  1
  Ba  Ba16  1  0.83446898  0.99514956  0.37505818  1
  Ba  Ba17  1  0.50526048  0.98545754  0.87633498  1
  Ba  Ba18  1  0.66562501  0.84447499  0.62708204  1
  Ba  Ba19  1  0.33415197  0.82496569  0.37471036  1
  Ba  Ba20  1  0.16085513  0.67529333  0.62499317  1
  Ba  Ba21  1  0.67134513  0.50915210  0.62184036  1
  Ba  Ba22  1  0.83310911  0.32195607  0.88037577  1
  Ba  Ba23  1  -0.00218649  0.15815612  0.87685282  1
  Ba  Ba24  1  0.66709882  0.50939344  0.12521800  1
  Ba  Ba25  1  0.83239390  0.99310556  0.87361884  1
  Ba  Ba26  1  0.16444301  0.32341349  0.87773191  1
  Ba  Ba27  1  0.50021466  0.67510812  0.62832191  1
  Ba  Ba28  1  0.17245595  0.65588149  0.37205571  1
  Ba  Ba29  1  0.50066617  0.66222937  0.87348992  1
  Ba  Ba30  1  0.33693916  0.83756014  0.62473345  1
  Ba  Ba31  1  0.49681366  0.32045857  0.36970462  1
  Ba  Ba32  1  0.99612882  0.17167565  0.62599848  1
  Ba  Ba33  1  0.49180273  0.34557981  0.12332281  1
  Ba  Ba34  1  0.00199963  0.15736988  0.37017747  1
  Ba  Ba35  1  0.66211418  0.15583011  0.87129388  1
  La  La36  1  1.00221901  0.18131360  0.12436730  1
  La  La37  1  0.33687846  0.84345834  0.12274727  1
  La  La38  1  0.66287847  0.48801454  0.86992631  1
  La  La39  1  0.17085995  0.98253836  0.37348005  1
  La  La40  1  0.16303455  0.68184231  0.12576041  1
  La  La41  1  0.66134237  0.15550320  0.38263537  1
  La  La42  1  0.82842177  0.01553573  0.62725434  1
  La  La43  1  0.17632084  0.31952596  0.37527323  1
  La  La44  1  0.66061262  0.82114683  0.37526798  1
  La  La45  1  0.16607775  0.00995329  0.62640645  1
  La  La46  1  0.33860801  0.51705589  0.62499279  1
  La  La47  1  0.83714050  0.32058320  0.37763525  1
  La  La48  1  0.17226773  0.99055393  0.87771641  1
  La  La49  1  0.82868358  0.34736728  0.12450860  1
  La  La50  1  0.67093439  0.84798292  0.12097859  1
  La  La51  1  0.83106304  0.68090174  0.12370572  1
  La  La52  1  0.32630816  0.48646550  0.37067045  1
  La  La53  1  0.34060811  0.18025313  0.62693421  1
  La  La54  1  0.83036020  0.01667435  0.11976136  1
  La  La55  1  0.33408422  0.49011519  0.87507576  1
  La  La56  1  0.83814567  0.65485211  0.37299221  1
  La  La57  1  1.00641735  0.84601343  0.62498875  1
  La  La58  1  0.50064119  0.98774484  0.37685352  1
  La  La59  1  0.66199841  0.82056929  0.87245367  1
  La  La60  1  -0.00130736  0.81656320  0.87743925  1
  La  La61  1  -0.00086015  0.81934234  0.37033961  1
  La  La62  1  0.83378948  0.65638310  0.87495094  1
  La  La63  1  0.00011789  0.48170940  0.88082806  1
  La  La64  1  0.66336688  0.48719894  0.37905382  1
  La  La65  1  0.66857927  0.17847017  0.12187555  1
  La  La66  1  0.49511248  0.01331157  0.12685746  1
  La  La67  1  0.17672439  0.64826138  0.87545498  1
  La  La68  1  0.33662381  0.18543729  0.12811145  1
  La  La69  1  0.50613488  0.31931697  0.87408285  1
  La  La70  1  0.00044006  0.48588601  0.37306360  1
  La  La71  1  0.15635553  0.34359742  0.62677348  1
  In  In72  1  0.83321186  0.50439371  0.00059157  1
  In  In73  1  0.83672509  0.83381811  0.75053528  1
  In  In74  1  0.83461814  0.50188773  0.75292714  1
  In  In75  1  0.49895998  0.50114206  0.75005525  1
  In  In76  1  0.49739712  0.50095363  0.49818090  1
  In  In77  1  0.00170052  0.33208254  0.49873101  1
  In  In78  1  0.66485347  0.33379069  0.75078733  1
  In  In79  1  0.66397693  0.33423912  0.00213771  1
  In  In80  1  0.16519973  0.83387344  0.00044778  1
  In  In81  1  0.33282367  -0.00140224  0.75388835  1
  In  In82  1  0.66648370  0.33039080  0.24819142  1
  In  In83  1  0.33153602  -0.00006812  0.49966537  1
  In  In84  1  0.66620310  0.33205566  0.49719403  1
  In  In85  1  -0.00158430  0.32915319  0.75287137  1
  In  In86  1  -0.00023742  -0.00278003  0.49924485  1
  In  In87  1  0.49841021  0.16321561  0.00020991  1
  In  In88  1  0.16562804  0.83229505  0.75158895  1
  In  In89  1  0.00182587  -0.00249224  0.75345424  1
  In  In90  1  0.66561858  0.00159225  0.24697181  1
  In  In91  1  0.33251470  0.66848468  0.24685868  1
  In  In92  1  0.16740486  0.50046580  0.50132884  1
  In  In93  1  0.49986542  0.50337654  0.25255359  1
  In  In94  1  0.83515021  0.83500038  0.49788127  1
  In  In95  1  0.50150149  0.83363572  0.50142121  1
  In  In96  1  0.16575543  0.16244753  0.00243777  1
  In  In97  1  0.83397747  0.83559878  -0.00291779  1
  In  In98  1  0.66799618  0.66949787  0.24900934  1
  In  In99  1  0.00057513  0.66580038  0.49865138  1
  In  In100  1  0.83602618  0.50342479  0.24908146  1
  In  In101  1  0.83181040  0.83766975  0.24911676  1
  In  In102  1  0.16768129  0.16325425  0.50275863  1
  In  In103  1  0.83495939  0.50000805  0.49592107  1
  In  In104  1  0.83233217  0.16660180  0.49801747  1
  In  In105  1  0.83331096  0.16787004  0.24615991  1
  In  In106  1  0.33064956  0.33477701  0.50452759  1
  In  In107  1  0.33328115  0.33537828  -0.00536969  1
  Ir  Ir108  1  0.49665694  0.16283066  0.49965781  1
  Ir  Ir109  1  0.33106808  0.66714706  0.50201986  1
  Ir  Ir110  1  0.16427178  0.49796133  0.24549605  1
  Ir  Ir111  1  0.50243816  0.83101299  0.75455999  1
  Ir  Ir112  1  0.00336658  -0.00104374  0.24825273  1
  Ir  Ir113  1  0.00505453  0.66465674  0.75865835  1
  Ir  Ir114  1  0.49742434  0.15905197  0.25334206  1
  Ir  Ir115  1  0.49806131  0.50617089  -0.00498908  1
  Ir  Ir116  1  0.17155940  0.16480682  0.75087769  1
  Ir  Ir117  1  0.33128384  0.66508243  0.75253249  1
  Ir  Ir118  1  0.67221485  0.67138356  0.49953784  1
  Ir  Ir119  1  0.67064015  0.67036362  0.75072419  1
  Ir  Ir120  1  0.00453059  0.66657887  0.24719787  1
  Ir  Ir121  1  0.50234225  0.83860674  0.24591017  1
  Ir  Ir122  1  0.32926355  0.33246627  0.24987321  1
  Ir  Ir123  1  0.16623230  0.83253613  0.50071972  1
  Ir  Ir124  1  0.17209296  0.49871945  0.75588653  1
  Ir  Ir125  1  0.83064629  0.16203507  0.75617172  1
  Ir  Ir126  1  0.00474259  0.33404955  0.24962064  1
  Ir  Ir127  1  0.33021908  0.66654533  -0.00355401  1
  Ir  Ir128  1  0.33429813  -0.00380413  0.00643264  1
  Ir  Ir129  1  0.83651212  0.16298492  0.00312064  1
  Ir  Ir130  1  0.49389308  0.16745408  0.74568240  1
  Ir  Ir131  1  0.66594226  0.00235882  0.50161132  1
  Ir  Ir132  1  0.66675991  0.67083987  -0.00153080  1
  Ir  Ir133  1  0.32866746  0.33398707  0.74958523  1
  Ir  Ir134  1  0.33309854  0.00037957  0.24711475  1
  Ir  Ir135  1  0.16616602  0.83430863  0.25100790  1
  Ir  Ir136  1  0.66431332  -0.00191467  0.00009613  1
  Ir  Ir137  1  0.00396006  0.66486360  -0.00183945  1
  Ir  Ir138  1  0.16559727  0.16530208  0.24743566  1
  Ir  Ir139  1  -0.00246000  0.33169520  0.00503726  1
  Ir  Ir140  1  0.00040162  0.00019918  0.00313978  1
  Ir  Ir141  1  0.50384992  0.83392852  0.00316241  1
  Ir  Ir142  1  0.66599860  -0.00004647  0.74966935  1
  Ir  Ir143  1  0.16602317  0.50293724  -0.00063171  1
  O  O144  1  0.31898906  0.32775768  0.12821455  1
  O  O145  1  0.29284288  0.32272066  0.63320485  1
  O  O146  1  0.30119193  0.67095410  0.11602835  1
  O  O147  1  0.30864701  0.65850938  0.62847540  1
  O  O148  1  0.31298870  0.98167041  0.12699262  1
  O  O149  1  0.30378105  0.99353649  0.62673546  1
  O  O150  1  0.63672321  0.31466096  0.12446199  1
  O  O151  1  0.65169327  0.33383600  0.62517864  1
  O  O152  1  0.64709509  0.66383666  0.11657071  1
  O  O153  1  0.64834775  0.66151678  0.62700658  1
  O  O154  1  0.63252496  0.98816993  0.11813893  1
  O  O155  1  0.64312763  1.00071799  0.62592727  1
  O  O156  1  0.96759803  0.32775260  0.12840685  1
  O  O157  1  0.98056326  0.33369666  0.62773875  1
  O  O158  1  0.96952804  0.66282922  0.12103520  1
  O  O159  1  0.98424260  0.66164643  0.63809408  1
  O  O160  1  0.96769163  0.99491963  0.12487338  1
  O  O161  1  0.96375461  0.98037559  0.62743047  1
  O  O162  1  0.19970066  0.16060786  0.13038424  1
  O  O163  1  0.20495767  0.15281497  0.63361264  1
  O  O164  1  0.18886465  0.49863342  0.12161547  1
  O  O165  1  0.20176265  0.48539919  0.63572308  1
  O  O166  1  0.19625754  0.82664316  0.12853158  1
  O  O167  1  0.18781596  0.82801178  0.62003695  1
  O  O168  1  0.52745617  0.15528620  0.13331227  1
  O  O169  1  0.51708866  0.16639952  0.62137810  1
  O  O170  1  0.51592765  0.50152664  0.11464794  1
  O  O171  1  0.51780096  0.50315143  0.62489894  1
  O  O172  1  0.53220978  0.83826678  0.12434998  1
  O  O173  1  0.51409213  0.83454381  0.63236051  1
  O  O174  1  0.86654259  0.15332409  0.12062184  1
  O  O175  1  0.84339568  0.15838803  0.63436583  1
  O  O176  1  0.85569239  0.49688257  0.12401723  1
  O  O177  1  0.85118004  0.50108949  0.62514566  1
  O  O178  1  0.85278698  0.81730694  0.12166766  1
  O  O179  1  0.86991038  0.82851386  0.62540142  1
  O  O180  1  0.14833633  0.17888436  0.36724062  1
  O  O181  1  0.14802897  0.16515642  0.87089716  1
  O  O182  1  0.13730045  0.50027695  0.36374680  1
  O  O183  1  0.13718053  0.51135546  0.87799031  1
  O  O184  1  0.13554851  0.84153152  0.37592145  1
  O  O185  1  0.13209464  0.84944993  0.87771430  1
  O  O186  1  0.47587102  0.15381985  0.37753249  1
  O  O187  1  0.47735066  0.17483631  0.86651667  1
  O  O188  1  0.45904757  0.50646712  0.37622060  1
  O  O189  1  0.46930340  0.50951519  0.87702558  1
  O  O190  1  0.48496913  0.84627924  0.36628079  1
  O  O191  1  0.48430128  0.82710588  0.88099068  1
  O  O192  1  0.79961380  0.17059941  0.36874033  1
  O  O193  1  0.81308931  0.16204938  0.88133675  1
  O  O194  1  0.79796176  0.51954815  0.36898283  1
  O  O195  1  0.79937962  0.51816739  0.87930691  1
  O  O196  1  0.79522289  0.84333707  0.37274783  1
  O  O197  1  0.79989773  0.83321214  0.87549073  1
  O  O198  1  0.03432314  0.00461475  0.36730676  1
  O  O199  1  0.03420395  0.00675387  0.88330983  1
  O  O200  1  0.04161511  0.33989274  0.36595548  1
  O  O201  1  0.01682384  0.33187304  0.88310039  1
  O  O202  1  0.02778096  0.68181997  0.36388625  1
  O  O203  1  0.04036594  0.67657701  0.87925742  1
  O  O204  1  0.36353748  0.00347963  0.36486703  1
  O  O205  1  0.35497074  0.00282748  0.88787831  1
  O  O206  1  0.34456057  0.33872838  0.36969204  1
  O  O207  1  0.36804389  0.34228947  0.86683708  1
  O  O208  1  0.34397019  0.66755343  0.38048835  1
  O  O209  1  0.35240865  0.65962556  0.87439630  1
  O  O210  1  0.68263352  0.01482343  0.37911016  1
  O  O211  1  0.68561886  -0.00008166  0.87403879  1
  O  O212  1  0.70005141  0.32554919  0.36994810  1
  O  O213  1  0.68070080  0.34451960  0.87773141  1
  O  O214  1  0.69887493  0.68613212  0.38028062  1
  O  O215  1  0.69663738  0.68243545  0.87515370  1
  O  O216  1  0.06360608  0.09494151  0.02871210  1
  O  O217  1  0.07923422  0.08412553  0.52995531  1
  O  O218  1  0.06812075  0.43216834  0.00728934  1
  O  O219  1  0.07798513  0.42395817  0.52318466  1
  O  O220  1  0.07338587  0.75326901  0.02314151  1
  O  O221  1  0.06866291  0.77062197  0.51805335  1
  O  O222  1  0.40070447  0.08926737  0.03376057  1
  O  O223  1  0.40185248  0.10056796  0.52380416  1
  O  O224  1  0.40712244  0.43503833  0.00612299  1
  O  O225  1  0.39593141  0.43247742  0.52611925  1
  O  O226  1  0.40031264  0.76657922  0.02263596  1
  O  O227  1  0.40549753  0.75492459  0.51075403  1
  O  O228  1  0.73598665  0.09535753  0.02653088  1
  O  O229  1  0.73118542  0.09347920  0.51467175  1
  O  O230  1  0.74665568  0.42025541  0.02375148  1
  O  O231  1  0.73567584  0.43371700  0.49838725  1
  O  O232  1  0.73056963  0.76477385  0.02170892  1
  O  O233  1  0.73703072  0.76316369  0.51882445  1
  O  O234  1  0.08311943  0.25591588  0.02419016  1
  O  O235  1  0.10072695  0.26250620  0.52282810  1
  O  O236  1  0.10199985  0.60100452  0.02109181  1
  O  O237  1  0.09412771  0.59341173  0.51210899  1
  O  O238  1  0.09053968  0.93325120  0.01922644  1
  O  O239  1  0.10182329  0.92503617  0.52430115  1
  O  O240  1  0.41985200  0.25312122  0.01707029  1
  O  O241  1  0.42692634  0.25437227  0.51696538  1
  O  O242  1  0.42573747  0.59892264  0.01546288  1
  O  O243  1  0.41863875  0.59808959  0.52209195  1
  O  O244  1  0.43118881  0.92648272  0.03213967  1
  O  O245  1  0.42959823  0.92961359  0.50303089  1
  O  O246  1  0.76744070  0.25405438  0.02658797  1
  O  O247  1  0.76493087  0.26335341  0.51051152  1
  O  O248  1  0.76604720  0.61226483  0.01649886  1
  O  O249  1  0.76253801  0.60571215  0.50770938  1
  O  O250  1  0.75922471  0.93381744  0.02569289  1
  O  O251  1  0.76229649  0.93936882  0.52476286  1
  O  O252  1  0.23509959  0.06854417  0.27416672  1
  O  O253  1  0.23325752  0.07096687  0.77617374  1
  O  O254  1  0.23402147  0.40297210  0.27403327  1
  O  O255  1  0.24665613  0.41163860  0.78521430  1
  O  O256  1  0.23639736  0.74403326  0.25994083  1
  O  O257  1  0.23707496  0.73197142  0.77473192  1
  O  O258  1  0.55848655  0.06207384  0.26790927  1
  O  O259  1  0.56731262  0.07579676  0.76638225  1
  O  O260  1  0.57793934  0.41163562  0.27119565  1
  O  O261  1  0.56444152  0.40536178  0.78047845  1
  O  O262  1  0.57022427  0.74850306  0.26918508  1
  O  O263  1  0.58024257  0.74296320  0.76914845  1
  O  O264  1  0.91225613  0.06820132  0.26043748  1
  O  O265  1  0.90484215  0.07402296  0.76100248  1
  O  O266  1  0.91750357  0.40630537  0.27959027  1
  O  O267  1  0.91715440  0.41590035  0.78125451  1
  O  O268  1  0.91000330  0.73501960  0.26964978  1
  O  O269  1  0.91282252  0.73108402  0.78439113  1
  O  O270  1  0.25651948  0.24004148  0.26641231  1
  O  O271  1  0.26219021  0.23910524  0.77198543  1
  O  O272  1  0.25841891  0.56303096  0.26762447  1
  O  O273  1  0.26351426  0.57025017  0.77784763  1
  O  O274  1  0.25588164  0.91172419  0.27562325  1
  O  O275  1  0.25121040  0.91318415  0.78112607  1
  O  O276  1  0.59439196  0.22061521  0.27400069  1
  O  O277  1  0.57760018  0.24425070  0.76661236  1
  O  O278  1  0.60258589  0.57197134  0.27593448  1
  O  O279  1  0.60324190  0.57548084  0.77397586  1
  O  O280  1  0.59743505  0.90168517  0.26999842  1
  O  O281  1  0.59781434  0.90111738  0.77435540  1
  O  O282  1  0.92785928  0.24987838  0.26926034  1
  O  O283  1  0.91730363  0.23596437  0.76797809  1
  O  O284  1  0.94054026  0.57453628  0.27664376  1
  O  O285  1  0.93821864  0.57524924  0.78590000  1
  O  O286  1  0.93717255  0.90486276  0.27262159  1
  O  O287  1  0.93741000  0.89613869  0.78219725  1
  O  O288  1  0.25908173  0.24078067  0.48588158  1
  O  O289  1  0.25522135  0.24264942  0.99261185  1
  O  O290  1  0.26951104  0.56901069  0.48628999  1
  O  O291  1  0.26232490  0.57063202  0.97197017  1
  O  O292  1  0.25291513  0.90308254  0.47775396  1
  O  O293  1  0.26551723  0.90532906  0.98817933  1
  O  O294  1  0.59077156  0.22827104  0.47736812  1
  O  O295  1  0.58647573  0.24219508  0.97864164  1
  O  O296  1  0.60355982  0.57855159  0.47355370  1
  O  O297  1  0.60083818  0.57211992  0.97392115  1
  O  O298  1  0.60051678  0.90974705  0.47541567  1
  O  O299  1  0.60398761  0.89718124  0.98031659  1
  O  O300  1  0.92309225  0.24450739  0.47009767  1
  O  O301  1  0.93320597  0.23198764  0.99477515  1
  O  O302  1  0.92920749  0.57252892  0.46232621  1
  O  O303  1  0.93616612  0.57521384  0.96893935  1
  O  O304  1  0.93871764  0.89635569  0.46962710  1
  O  O305  1  0.93661012  0.90474543  0.97617664  1
  O  O306  1  0.23280864  0.06342765  0.47189874  1
  O  O307  1  0.23827131  0.06082509  0.98313101  1
  O  O308  1  0.23761011  0.40774996  0.46738637  1
  O  O309  1  0.24126563  0.41704631  0.97661125  1
  O  O310  1  0.23736772  0.73979103  0.48318052  1
  O  O311  1  0.23520376  0.73129864  0.97603818  1
  O  O312  1  0.56679168  0.06697449  0.47633988  1
  O  O313  1  0.57165408  0.06595541  0.98947110  1
  O  O314  1  0.57492887  0.41010959  0.46958206  1
  O  O315  1  0.56640789  0.41581167  0.97171974  1
  O  O316  1  0.58277049  0.74412817  0.48100507  1
  O  O317  1  0.57683354  0.74292487  0.97747161  1
  O  O318  1  0.90269215  0.07020153  0.49496354  1
  O  O319  1  0.90432665  0.06398701  0.98852756  1
  O  O320  1  0.91048343  0.40769802  0.45958749  1
  O  O321  1  0.91400905  0.40821891  0.98411653  1
  O  O322  1  0.90600481  0.73682792  0.46637879  1
  O  O323  1  0.91031715  0.73254869  0.97408313  1
  O  O324  1  0.08984418  0.25318993  0.21897501  1
  O  O325  1  0.10312095  0.25722896  0.72716887  1
  O  O326  1  0.10140396  0.59772527  0.22154773  1
  O  O327  1  0.10088708  0.59311714  0.73975691  1
  O  O328  1  0.09557156  0.92622889  0.23697135  1
  O  O329  1  0.09463592  0.92705369  0.71497652  1
  O  O330  1  0.42071042  0.25282553  0.22789631  1
  O  O331  1  0.41705695  0.25777076  0.72028242  1
  O  O332  1  0.42595348  0.59779663  0.23168169  1
  O  O333  1  0.41672042  0.59118699  0.73126745  1
  O  O334  1  0.43159093  0.93351405  0.22320459  1
  O  O335  1  0.42714628  0.91714033  0.74356886  1
  O  O336  1  0.76317736  0.25890014  0.20848251  1
  O  O337  1  0.75618193  0.24806701  0.74746407  1
  O  O338  1  0.77655481  0.61264380  0.22985249  1
  O  O339  1  0.76383523  0.60658215  0.74512216  1
  O  O340  1  0.76393464  0.93510931  0.21505664  1
  O  O341  1  0.76122755  0.93416279  0.72720403  1
  O  O342  1  0.07005171  0.09729441  0.22290280  1
  O  O343  1  0.08462703  0.09172722  0.72687723  1
  O  O344  1  0.07350267  0.42554467  0.22692364  1
  O  O345  1  0.08754721  0.42218498  0.74066240  1
  O  O346  1  0.07887033  0.75687491  0.22210258  1
  O  O347  1  0.06223754  0.76427241  0.73619051  1
  O  O348  1  0.40059621  0.09339165  0.21888764  1
  O  O349  1  0.40212496  0.09836596  0.72760525  1
  O  O350  1  0.39868025  0.42285624  0.23942911  1
  O  O351  1  0.39257002  0.42732551  0.72672777  1
  O  O352  1  0.40600705  0.77377777  0.22528931  1
  O  O353  1  0.40509988  0.75606383  0.73553259  1
  O  O354  1  0.73460388  0.09668127  0.21480478  1
  O  O355  1  0.74068074  0.08749506  0.73011340  1
  O  O356  1  0.75030351  0.41951212  0.22547528  1
  O  O357  1  0.73574369  0.43287494  0.74721685  1
  O  O358  1  0.73062548  0.77107274  0.22338859  1
  O  O359  1  0.73808194  0.76136428  0.73499764  1
