# generated using pymatgen
data_BaLaInIrO6
_symmetry_space_group_name_H-M   'P 1'
_cell_length_a   17.50798424
_cell_length_b   17.52962426
_cell_length_c   16.47860923
_cell_angle_alpha   89.97800860
_cell_angle_beta   90.01105567
_cell_angle_gamma   89.99048608
_symmetry_Int_Tables_number   1
_chemical_formula_structural   BaLaInIrO6
_chemical_formula_sum   'Ba36 La36 In36 Ir36 O216'
_cell_volume   5057.42281429
_cell_formula_units_Z   36
loop_
 _symmetry_equiv_pos_site_id
 _symmetry_equiv_pos_as_xyz
  1  'x, y, z'
loop_
 _atom_site_type_symbol
 _atom_site_label
 _atom_site_symmetry_multiplicity
 _atom_site_fract_x
 _atom_site_fract_y
 _atom_site_fract_z
 _atom_site_occupancy
  Ba  Ba0  1  -0.00460591  0.16293141  0.87297807  1
  Ba  Ba1  1  0.83319815  0.34264063  0.62908700  1
  Ba  Ba2  1  0.49961300  0.32642767  0.37909865  1
  Ba  Ba3  1  0.66721862  0.15941158  0.87505919  1
  Ba  Ba4  1  1.00323262  0.50657010  0.62323410  1
  Ba  Ba5  1  0.83572600  0.00740408  0.13066501  1
  Ba  Ba6  1  0.16169545  0.68429620  0.12042533  1
  Ba  Ba7  1  1.00344333  0.17961747  0.62896444  1
  Ba  Ba8  1  0.16870238  0.01639911  0.62704170  1
  Ba  Ba9  1  0.33564735  0.50806807  0.62526780  1
  Ba  Ba10  1  0.66654498  0.84198276  0.12824770  1
  Ba  Ba11  1  0.16481091  0.99088355  0.86831190  1
  Ba  Ba12  1  0.49850511  0.67602803  0.62706035  1
  Ba  Ba13  1  0.00003459  0.49207788  0.87200613  1
  Ba  Ba14  1  0.32927941  0.82327888  0.87485847  1
  Ba  Ba15  1  0.83248151  0.66981578  0.12874694  1
  Ba  Ba16  1  0.17062666  0.65342148  0.36791344  1
  Ba  Ba17  1  -0.00089048  0.49228000  0.37109161  1
  Ba  Ba18  1  0.16536462  0.34246961  0.62866515  1
  Ba  Ba19  1  0.49610273  0.65806095  0.87427359  1
  Ba  Ba20  1  0.16703496  0.32295703  0.87663574  1
  Ba  Ba21  1  0.66576633  0.84024657  0.62475909  1
  Ba  Ba22  1  0.67086577  0.49525104  0.37245915  1
  Ba  Ba23  1  0.83474523  0.32808150  0.87571856  1
  Ba  Ba24  1  0.83423438  0.65770714  0.37399790  1
  Ba  Ba25  1  0.83555652  0.99401500  0.87743268  1
  Ba  Ba26  1  0.33286842  0.17707081  0.62790983  1
  Ba  Ba27  1  0.33309086  0.84490461  0.12334809  1
  Ba  Ba28  1  0.83384084  0.99189643  0.37669916  1
  Ba  Ba29  1  0.83712890  0.33889779  0.12253228  1
  Ba  Ba30  1  0.66554519  0.50505528  0.62263221  1
  Ba  Ba31  1  0.49957318  0.32200343  0.87412166  1
  Ba  Ba32  1  0.50050547  0.99537926  0.37451317  1
  Ba  Ba33  1  0.83496704  0.67219291  0.62141772  1
  Ba  Ba34  1  0.67008505  0.50635447  0.12141820  1
  Ba  Ba35  1  0.99999487  0.51478916  0.11944991  1
  La  La36  1  -0.00323410  0.81425683  0.37313129  1
  La  La37  1  0.83377402  0.65588171  0.87219135  1
  La  La38  1  0.83937274  0.32784086  0.37650621  1
  La  La39  1  1.00163629  0.17821195  0.12247340  1
  La  La40  1  0.50819256  0.65895142  0.37859155  1
  La  La41  1  0.83325739  0.01546225  0.62705912  1
  La  La42  1  0.50659155  0.98291555  0.87296367  1
  La  La43  1  0.49303607  0.34837621  0.62633023  1
  La  La44  1  0.33379038  0.17389502  0.12263616  1
  La  La45  1  0.66394903  0.81932543  0.87720535  1
  La  La46  1  0.66462906  0.15812202  0.37720618  1
  La  La47  1  0.17344144  0.65144815  0.87410714  1
  La  La48  1  0.49605401  0.01157378  0.11872401  1
  La  La49  1  0.32367394  0.47928744  0.37580727  1
  La  La50  1  0.34071605  0.84584336  0.62960130  1
  La  La51  1  0.66814017  0.81837675  0.37338816  1
  La  La52  1  0.16297347  0.00450182  0.11968840  1
  La  La53  1  1.00011912  0.83614249  0.12246556  1
  La  La54  1  -0.00089941  0.81968271  0.87550283  1
  La  La55  1  0.66774421  0.48181210  0.87337908  1
  La  La56  1  1.00462141  0.84708781  0.62227395  1
  La  La57  1  0.32663436  0.81702579  0.37898193  1
  La  La58  1  0.32708831  0.15295330  0.87392422  1
  La  La59  1  0.33008596  0.15459692  0.38005328  1
  La  La60  1  0.17415450  0.98589799  0.37842872  1
  La  La61  1  0.66978964  0.17533194  0.12812688  1
  La  La62  1  0.48972689  0.68478930  0.11981815  1
  La  La63  1  0.49752760  0.34778609  0.12354693  1
  La  La64  1  0.33921463  0.51436523  0.12055212  1
  La  La65  1  0.66828307  0.18156632  0.62450404  1
  La  La66  1  0.32400306  0.48123645  0.87044877  1
  La  La67  1  -0.00052549  0.15583376  0.37953174  1
  La  La68  1  0.15783734  0.68128508  0.62295899  1
  La  La69  1  0.17166313  0.31641529  0.38293849  1
  La  La70  1  0.15465350  0.34745943  0.13122132  1
  La  La71  1  0.49387200  0.01867362  0.62818413  1
  In  In72  1  0.49736930  0.83862250  0.49844400  1
  In  In73  1  0.83359989  0.16408774  0.00495881  1
  In  In74  1  0.00283822  0.33243506  -0.00021152  1
  In  In75  1  0.00154215  -0.00234422  0.75019118  1
  In  In76  1  0.83150281  0.16731512  0.74871545  1
  In  In77  1  0.83216387  0.83302408  -0.00030034  1
  In  In78  1  0.66712443  0.33362416  0.49793475  1
  In  In79  1  0.83491075  0.83459367  0.25025651  1
  In  In80  1  0.33485264  0.66558627  0.24779914  1
  In  In81  1  0.66794619  0.66786810  0.50273288  1
  In  In82  1  0.83507004  0.83805317  0.50213843  1
  In  In83  1  0.33371366  -0.00031033  0.50076206  1
  In  In84  1  0.83337820  0.50171390  -0.00289069  1
  In  In85  1  0.49809233  0.50335299  0.75350268  1
  In  In86  1  0.16940836  0.50170577  0.00292775  1
  In  In87  1  0.00482657  0.00161320  0.25333120  1
  In  In88  1  0.00110120  0.66611761  0.74986885  1
  In  In89  1  0.83517460  0.49646038  0.24955611  1
  In  In90  1  0.33006558  0.32845339  0.00281827  1
  In  In91  1  0.33471614  -0.00159583  0.75510273  1
  In  In92  1  0.49600414  0.50038541  0.24906717  1
  In  In93  1  0.16769677  0.49991271  0.49966137  1
  In  In94  1  0.49737046  0.50127512  0.49688788  1
  In  In95  1  0.66575895  -0.00033449  0.00278858  1
  In  In96  1  0.66318740  0.66670249  0.24718727  1
  In  In97  1  0.16737501  0.16282149  0.24938295  1
  In  In98  1  0.83411958  0.16756914  0.49837336  1
  In  In99  1  0.49909055  0.50126544  -0.00206247  1
  In  In100  1  0.83465148  0.83416334  0.75031525  1
  In  In101  1  0.49871885  0.16891452  0.24939612  1
  In  In102  1  0.66347716  0.32978744  0.00191418  1
  In  In103  1  0.16860954  0.83806410  0.25007399  1
  In  In104  1  0.33178792  0.66716220  0.50181006  1
  In  In105  1  0.49597935  0.83940254  0.25135677  1
  In  In106  1  0.32875032  0.32844065  0.24577555  1
  In  In107  1  0.66556110  -0.00051643  0.74630214  1
  Ir  Ir108  1  0.00543776  -0.00292344  0.00150707  1
  Ir  Ir109  1  0.17106433  0.15882859  0.00116996  1
  Ir  Ir110  1  0.32587362  0.66822681  0.75088151  1
  Ir  Ir111  1  0.83354302  0.16912752  0.25469904  1
  Ir  Ir112  1  0.33160569  0.00295255  0.24896919  1
  Ir  Ir113  1  0.33396230  0.33062845  0.74819160  1
  Ir  Ir114  1  0.00475982  0.33026792  0.25666806  1
  Ir  Ir115  1  0.33076718  0.66895520  -0.00503004  1
  Ir  Ir116  1  0.49996345  0.16651008  0.50305319  1
  Ir  Ir117  1  0.00353005  0.67278968  -0.00431850  1
  Ir  Ir118  1  0.66319795  0.66740151  -0.00405682  1
  Ir  Ir119  1  0.16742742  0.83040325  0.74514764  1
  Ir  Ir120  1  0.83871468  0.49826770  0.50209005  1
  Ir  Ir121  1  0.16973818  0.50131127  0.74986121  1
  Ir  Ir122  1  0.00435306  0.66773412  0.24744483  1
  Ir  Ir123  1  0.83018910  0.50170754  0.74756691  1
  Ir  Ir124  1  0.00666716  -0.00029525  0.49811652  1
  Ir  Ir125  1  0.66311947  0.00319413  0.50057784  1
  Ir  Ir126  1  0.33454765  0.32691951  0.50190060  1
  Ir  Ir127  1  0.16738234  0.49485960  0.25072210  1
  Ir  Ir128  1  0.00283410  0.66811058  0.49812224  1
  Ir  Ir129  1  0.49505690  0.16158168  0.00001832  1
  Ir  Ir130  1  0.00119951  0.33761144  0.74738522  1
  Ir  Ir131  1  0.66057894  0.33162562  0.74911849  1
  Ir  Ir132  1  0.49806309  0.16724567  0.75094956  1
  Ir  Ir133  1  0.16672505  0.16972071  0.75412372  1
  Ir  Ir134  1  0.50106862  0.83057906  0.75291995  1
  Ir  Ir135  1  0.66799382  0.32710084  0.25137051  1
  Ir  Ir136  1  0.33340440  0.00010680  0.00228545  1
  Ir  Ir137  1  0.16282492  0.16745785  0.50105302  1
  Ir  Ir138  1  0.49898440  0.83317644  -0.00399542  1
  Ir  Ir139  1  0.00379915  0.33327915  0.49738068  1
  Ir  Ir140  1  0.16632837  0.83747226  -0.00662811  1
  Ir  Ir141  1  0.66826968  0.66601135  0.75428792  1
  Ir  Ir142  1  0.66520165  0.00395685  0.25521934  1
  Ir  Ir143  1  0.16437999  0.83392157  0.50093813  1
  O  O144  1  0.28658117  0.30866429  0.12419984  1
  O  O145  1  0.31452596  0.33096629  0.62438405  1
  O  O146  1  0.30713519  0.65973167  0.11313082  1
  O  O147  1  0.29473849  0.66540605  0.63248439  1
  O  O148  1  0.29982891  1.00000889  0.12605596  1
  O  O149  1  0.31736630  0.98941364  0.62816594  1
  O  O150  1  0.63232779  0.31747763  0.13231865  1
  O  O151  1  0.63187204  0.32730439  0.62872227  1
  O  O152  1  0.62861144  0.66276720  0.11448474  1
  O  O153  1  0.64799437  0.66025006  0.63463959  1
  O  O154  1  0.63205795  0.99791251  0.13528601  1
  O  O155  1  0.62776551  0.99406130  0.61795141  1
  O  O156  1  0.98955486  0.31849731  0.13659501  1
  O  O157  1  0.98200560  0.33775345  0.61964583  1
  O  O158  1  0.98286263  0.67939088  0.12221756  1
  O  O159  1  0.98782390  0.66791412  0.61885202  1
  O  O160  1  0.99421256  0.97854626  0.12221247  1
  O  O161  1  0.97233076  0.98665002  0.61625658  1
  O  O162  1  0.19942384  0.14542796  0.12060811  1
  O  O163  1  0.18539440  0.17191468  0.62809336  1
  O  O164  1  0.19971941  0.48768943  0.13199768  1
  O  O165  1  0.18494360  0.50078570  0.62970188  1
  O  O166  1  0.17947969  0.84520179  0.11641814  1
  O  O167  1  0.20092098  0.82050764  0.62369624  1
  O  O168  1  0.52719378  0.14923049  0.12005257  1
  O  O169  1  0.53074818  0.15724609  0.62713031  1
  O  O170  1  0.52315065  0.48470378  0.12425582  1
  O  O171  1  0.51233286  0.48821760  0.62807180  1
  O  O172  1  0.51765902  0.83015674  0.11637862  1
  O  O173  1  0.51399686  0.82958643  0.63396925  1
  O  O174  1  0.86633842  0.16362091  0.13779930  1
  O  O175  1  0.85375201  0.15527731  0.62133932  1
  O  O176  1  0.84910580  0.50031186  0.12345002  1
  O  O177  1  0.85438326  0.50147099  0.62481732  1
  O  O178  1  0.86662620  0.83007500  0.12448397  1
  O  O179  1  0.87060607  0.82972831  0.62474038  1
  O  O180  1  0.13704780  0.17338371  0.38072743  1
  O  O181  1  0.14492773  0.16705004  0.87877129  1
  O  O182  1  0.14885286  0.49656665  0.36927757  1
  O  O183  1  0.15294353  0.50812010  0.87022608  1
  O  O184  1  0.13352331  0.84612299  0.38148119  1
  O  O185  1  0.13644350  0.83355670  0.86819056  1
  O  O186  1  0.46722704  0.17070035  0.38115821  1
  O  O187  1  0.46321088  0.16943862  0.87619415  1
  O  O188  1  0.45608538  0.50236667  0.37190321  1
  O  O189  1  0.45942339  0.49968827  0.87544242  1
  O  O190  1  0.45568617  0.84625372  0.37416141  1
  O  O191  1  0.47718406  0.84191585  0.87391793  1
  O  O192  1  0.80134060  0.18030096  0.37290576  1
  O  O193  1  0.82211358  0.16484463  0.87624967  1
  O  O194  1  0.82615428  0.49054786  0.38170568  1
  O  O195  1  0.80471251  0.51143668  0.86711167  1
  O  O196  1  0.80678672  0.83749001  0.37655918  1
  O  O197  1  0.79939299  0.84049241  0.87515063  1
  O  O198  1  0.03998522  0.01590053  0.38088867  1
  O  O199  1  0.01578148  0.00808240  0.88221873  1
  O  O200  1  0.03467293  0.33246361  0.37690662  1
  O  O201  1  0.01619850  0.33296838  0.86786551  1
  O  O202  1  0.02570248  0.67406907  0.37223199  1
  O  O203  1  0.03676937  0.67693145  0.87716949  1
  O  O204  1  0.35146826  0.01603163  0.37044317  1
  O  O205  1  0.36690615  0.00866124  0.88201899  1
  O  O206  1  0.34839966  0.33231462  0.38007257  1
  O  O207  1  0.35013173  0.33511454  0.86962512  1
  O  O208  1  0.36612789  0.68203537  0.37312251  1
  O  O209  1  0.34812350  0.67107152  0.87249782  1
  O  O210  1  0.68901926  0.02132606  0.37791098  1
  O  O211  1  0.67998002  0.00420863  0.87418367  1
  O  O212  1  0.70154354  0.32825479  0.36981525  1
  O  O213  1  0.68157460  0.33157769  0.86875175  1
  O  O214  1  0.68554512  0.68205961  0.37604538  1
  O  O215  1  0.69676483  0.67930525  0.87533670  1
  O  O216  1  0.07402684  0.09255913  0.03107739  1
  O  O217  1  0.07036458  0.09732164  0.51983028  1
  O  O218  1  0.08530304  0.41731329  0.02309988  1
  O  O219  1  0.07400034  0.42255749  0.51142581  1
  O  O220  1  0.06812350  0.77370585  0.01454051  1
  O  O221  1  0.07066210  0.76474935  0.52489170  1
  O  O222  1  0.39994267  0.09467725  0.02774477  1
  O  O223  1  0.40884803  0.09774661  0.51996804  1
  O  O224  1  0.40486991  0.42188231  0.03274765  1
  O  O225  1  0.40479254  0.41560416  0.51730030  1
  O  O226  1  0.40656943  0.75863412  0.01928629  1
  O  O227  1  0.39001789  0.77513805  0.52111555  1
  O  O228  1  0.73380045  0.09628747  0.03151994  1
  O  O229  1  0.72776616  0.09637837  0.52178406  1
  O  O230  1  0.73657254  0.42774288  -0.00194829  1
  O  O231  1  0.75131090  0.42579591  0.51473514  1
  O  O232  1  0.73102083  0.75696244  0.01385384  1
  O  O233  1  0.74198652  0.76249101  0.51729069  1
  O  O234  1  0.10379141  0.25040384  0.03087025  1
  O  O235  1  0.09866459  0.26541296  0.51317607  1
  O  O236  1  0.09409111  0.59955991  0.01065291  1
  O  O237  1  0.09786192  0.60199912  0.51784040  1
  O  O238  1  0.10424162  0.93531178  0.01207247  1
  O  O239  1  0.09623658  0.92718719  0.52518692  1
  O  O240  1  0.42927452  0.25429438  0.03040249  1
  O  O241  1  0.43423550  0.26194352  0.52729579  1
  O  O242  1  0.42343791  0.60009323  0.02249624  1
  O  O243  1  0.42773900  0.59845930  0.51706437  1
  O  O244  1  0.43260114  0.93326943  0.01994552  1
  O  O245  1  0.43345979  0.93606016  0.53009656  1
  O  O246  1  0.75158112  0.25256216  0.02632082  1
  O  O247  1  0.75428529  0.25563565  0.52402986  1
  O  O248  1  0.75610425  0.60202603  0.00745405  1
  O  O249  1  0.76467792  0.58479421  0.51096838  1
  O  O250  1  0.75910556  0.92633196  0.02273941  1
  O  O251  1  0.76126870  0.94300897  0.52302107  1
  O  O252  1  0.23541607  0.06280712  0.27560582  1
  O  O253  1  0.24560121  0.08412299  0.77164429  1
  O  O254  1  0.22865518  0.39820335  0.27575338  1
  O  O255  1  0.24341887  0.40784178  0.77225867  1
  O  O256  1  0.24513772  0.74742746  0.26665925  1
  O  O257  1  0.22765689  0.73229539  0.76993756  1
  O  O258  1  0.57937413  0.07831491  0.27118879  1
  O  O259  1  0.55879422  0.06829160  0.76926143  1
  O  O260  1  0.57884807  0.39885670  0.26684866  1
  O  O261  1  0.57689565  0.40740505  0.76980313  1
  O  O262  1  0.57251007  0.74874823  0.27935562  1
  O  O263  1  0.57622490  0.73874538  0.77525458  1
  O  O264  1  0.90880811  0.08348477  0.27891566  1
  O  O265  1  0.90314238  0.06647212  0.75163804  1
  O  O266  1  0.90818818  0.39397993  0.27255685  1
  O  O267  1  0.90397643  0.41077215  0.76540375  1
  O  O268  1  0.91827840  0.74007680  0.26933170  1
  O  O269  1  0.90780857  0.73678680  0.78324966  1
  O  O270  1  0.26652858  0.22626320  0.27822849  1
  O  O271  1  0.26381816  0.23746701  0.77445419  1
  O  O272  1  0.26553375  0.55826899  0.26962549  1
  O  O273  1  0.26275129  0.57064276  0.77722617  1
  O  O274  1  0.27215847  0.90760392  0.27895936  1
  O  O275  1  0.25864574  0.90013020  0.76139831  1
  O  O276  1  0.60043222  0.23601542  0.27556955  1
  O  O277  1  0.59288557  0.23594364  0.76225409  1
  O  O278  1  0.57799080  0.58361096  0.27961857  1
  O  O279  1  0.60201144  0.57226430  0.77710120  1
  O  O280  1  0.60066807  0.91031991  0.27851279  1
  O  O281  1  0.59355718  0.89775477  0.77645583  1
  O  O282  1  0.93114894  0.23813226  0.28422821  1
  O  O283  1  0.92460769  0.25285527  0.75668560  1
  O  O284  1  0.93254419  0.57833885  0.25747584  1
  O  O285  1  0.91940769  0.57387637  0.76563026  1
  O  O286  1  0.93847413  0.90256776  0.27249224  1
  O  O287  1  0.94088076  0.89473535  0.77231101  1
  O  O288  1  0.26034622  0.23364609  0.47482875  1
  O  O289  1  0.26746939  0.22197292  0.97931480  1
  O  O290  1  0.26680396  0.56519277  0.47259440  1
  O  O291  1  0.26628735  0.57490584  0.97297148  1
  O  O292  1  0.25760753  0.90337220  0.47409654  1
  O  O293  1  0.26212293  0.90794469  0.97958091  1
  O  O294  1  0.59533908  0.22880797  0.48103480  1
  O  O295  1  0.58464032  0.22901243  0.98680599  1
  O  O296  1  0.58755119  0.58076317  0.47510635  1
  O  O297  1  0.60098620  0.57279547  0.96926307  1
  O  O298  1  0.60512404  0.90675304  0.47302499  1
  O  O299  1  0.58946369  0.90208297  0.97218632  1
  O  O300  1  0.93165221  0.24382904  0.47093817  1
  O  O301  1  0.93253164  0.23577931  1.00039836  1
  O  O302  1  0.93287668  0.57498996  0.48151171  1
  O  O303  1  0.92711597  0.58737686  0.97479696  1
  O  O304  1  0.94347732  0.90548298  0.47343962  1
  O  O305  1  0.94379336  0.90004843  0.98169904  1
  O  O306  1  0.23454476  0.07604417  0.47631573  1
  O  O307  1  0.24143180  0.06829881  0.97544417  1
  O  O308  1  0.24196608  0.39703210  0.47782880  1
  O  O309  1  0.24888652  0.41378033  0.97682219  1
  O  O310  1  0.23143200  0.74349235  0.47813545  1
  O  O311  1  0.23063360  0.73662610  0.97374080  1
  O  O312  1  0.56833635  0.07264206  0.48398033  1
  O  O313  1  0.55488362  0.06420654  0.97966090  1
  O  O314  1  0.57568337  0.40780324  0.48643856  1
  O  O315  1  0.57313286  0.40594826  0.98109842  1
  O  O316  1  0.56819786  0.74472275  0.47628702  1
  O  O317  1  0.57077867  0.74128519  0.97441456  1
  O  O318  1  0.91777184  0.07396350  0.47743194  1
  O  O319  1  0.91417251  0.06516187  0.99883590  1
  O  O320  1  0.90773398  0.39832391  0.47928590  1
  O  O321  1  0.91415567  0.41219785  0.98560003  1
  O  O322  1  0.91803436  0.74253704  0.47641576  1
  O  O323  1  0.91164359  0.74056569  0.96834160  1
  O  O324  1  0.10299039  0.26856974  0.23805721  1
  O  O325  1  0.09212369  0.26362662  0.73558489  1
  O  O326  1  0.09924313  0.59107348  0.22778039  1
  O  O327  1  0.10545909  0.59896886  0.73392177  1
  O  O328  1  0.11424830  0.94565155  0.24158443  1
  O  O329  1  0.09775153  0.91967082  0.72218056  1
  O  O330  1  0.42923177  0.26191103  0.21567360  1
  O  O331  1  0.43105633  0.26456101  0.72512453  1
  O  O332  1  0.42274269  0.59258871  0.20544219  1
  O  O333  1  0.41689672  0.59945662  0.73420293  1
  O  O334  1  0.42809973  0.94267707  0.22210943  1
  O  O335  1  0.43542940  0.92619252  0.73388473  1
  O  O336  1  0.75647048  0.25294246  0.22316018  1
  O  O337  1  0.74651522  0.25827329  0.72785307  1
  O  O338  1  0.75181621  0.58285279  0.24186537  1
  O  O339  1  0.76446085  0.60055967  0.73913672  1
  O  O340  1  0.75341089  0.93431927  0.24026855  1
  O  O341  1  0.76736407  0.93420788  0.71979290  1
  O  O342  1  0.06414723  0.10550553  0.22709273  1
  O  O343  1  0.07987053  0.09418751  0.73884576  1
  O  O344  1  0.07277998  0.42522724  0.22625340  1
  O  O345  1  0.07588166  0.43057161  0.73495995  1
  O  O346  1  0.06798141  0.76773099  0.23473740  1
  O  O347  1  0.07485859  0.76438798  0.72082499  1
  O  O348  1  0.39598971  0.09776017  0.22614499  1
  O  O349  1  0.41056039  0.09543491  0.73292461  1
  O  O350  1  0.39578425  0.42653868  0.22063099  1
  O  O351  1  0.40555300  0.41812849  0.73276136  1
  O  O352  1  0.41291868  0.75608601  0.21936672  1
  O  O353  1  0.39632172  0.76436721  0.72894355  1
  O  O354  1  0.73607615  0.10159923  0.23121601  1
  O  O355  1  0.73228430  0.09702184  0.71707645  1
  O  O356  1  0.73992349  0.41204676  0.23228373  1
  O  O357  1  0.73068673  0.42908145  0.74109476  1
  O  O358  1  0.74250483  0.75911946  0.23334910  1
  O  O359  1  0.73520682  0.75757090  0.73848945  1
