# generated using pymatgen
data_BaLaInIrO6
_symmetry_space_group_name_H-M   'P 1'
_cell_length_a   17.56383095
_cell_length_b   17.59251007
_cell_length_c   16.50449029
_cell_angle_alpha   90.01339144
_cell_angle_beta   89.99488123
_cell_angle_gamma   90.04718852
_symmetry_Int_Tables_number   1
_chemical_formula_structural   BaLaInIrO6
_chemical_formula_sum   'Ba36 La36 In36 Ir36 O216'
_cell_volume   5099.75147605
_cell_formula_units_Z   36
loop_
 _symmetry_equiv_pos_site_id
 _symmetry_equiv_pos_as_xyz
  1  'x, y, z'
loop_
 _atom_site_type_symbol
 _atom_site_label
 _atom_site_symmetry_multiplicity
 _atom_site_fract_x
 _atom_site_fract_y
 _atom_site_fract_z
 _atom_site_occupancy
  Ba  Ba0  1  0.16668431  0.99432856  0.37632330  1
  Ba  Ba1  1  0.83560899  0.99301265  0.87187491  1
  Ba  Ba2  1  0.00064539  0.15768077  0.87728817  1
  Ba  Ba3  1  0.15923589  0.34615167  0.62382330  1
  Ba  Ba4  1  0.16366752  0.32561118  0.37714144  1
  Ba  Ba5  1  0.16726598  0.00599242  0.62318187  1
  Ba  Ba6  1  0.33580192  0.82653112  0.37906719  1
  Ba  Ba7  1  0.83872004  0.98740456  0.37316844  1
  Ba  Ba8  1  0.32701096  0.49217404  0.87459480  1
  Ba  Ba9  1  0.33230746  0.83643110  0.62719040  1
  Ba  Ba10  1  0.66409855  0.49643263  0.87294958  1
  Ba  Ba11  1  0.49954083  0.35165524  0.12934766  1
  Ba  Ba12  1  0.15977112  0.34132236  0.12709513  1
  Ba  Ba13  1  1.00500359  0.17419045  0.62661038  1
  Ba  Ba14  1  0.49838311  0.34650231  0.62228857  1
  Ba  Ba15  1  0.33548466  0.17778016  0.12871430  1
  Ba  Ba16  1  0.16814425  0.32644989  0.87526790  1
  Ba  Ba17  1  -0.00112967  0.15484788  0.37504186  1
  Ba  Ba18  1  0.83122444  0.33849038  0.12427509  1
  Ba  Ba19  1  0.66919050  0.84339740  0.12200498  1
  Ba  Ba20  1  0.50286781  0.99231265  0.87544288  1
  Ba  Ba21  1  0.83756898  0.31749989  0.87576486  1
  Ba  Ba22  1  -0.00688047  0.49239729  0.87362167  1
  Ba  Ba23  1  0.32823751  0.49756600  0.37482932  1
  Ba  Ba24  1  0.16775946  0.00814351  0.12880826  1
  Ba  Ba25  1  0.83181486  0.67438291  0.62861109  1
  Ba  Ba26  1  0.33464541  0.17328161  0.62447549  1
  Ba  Ba27  1  0.66901479  0.82902887  0.87849472  1
  Ba  Ba28  1  0.16634298  0.65558696  0.87330461  1
  Ba  Ba29  1  0.50086423  0.32662913  0.87477479  1
  Ba  Ba30  1  0.83009217  0.00764178  0.12219241  1
  Ba  Ba31  1  0.49748506  0.00477140  0.62942652  1
  Ba  Ba32  1  0.99946573  0.51470354  0.62447864  1
  Ba  Ba33  1  -0.00690775  0.48951063  0.37788932  1
  Ba  Ba34  1  0.16966413  0.67478777  0.12334989  1
  Ba  Ba35  1  0.83672864  0.67786374  0.12927558  1
  La  La36  1  0.32598803  0.15320667  0.38021842  1
  La  La37  1  0.84097970  0.30951395  0.37792521  1
  La  La38  1  0.31933370  0.49799970  0.12581540  1
  La  La39  1  0.33864259  0.84676355  0.12434032  1
  La  La40  1  1.00566732  0.84104445  0.62365421  1
  La  La41  1  -0.00380783  0.82266113  0.87228573  1
  La  La42  1  0.49777349  0.67762088  0.12344046  1
  La  La43  1  0.49789564  0.31384416  0.37511049  1
  La  La44  1  0.32849177  0.15055518  0.87613055  1
  La  La45  1  0.67215957  0.52120297  0.12323813  1
  La  La46  1  0.16906933  0.98993544  0.87381995  1
  La  La47  1  0.83631226  0.65656531  0.37402027  1
  La  La48  1  1.00596608  0.51814088  0.12445808  1
  La  La49  1  0.67009888  0.51578220  0.62683513  1
  La  La50  1  0.67403461  0.85694376  0.62612840  1
  La  La51  1  0.83829297  0.65638491  0.88088989  1
  La  La52  1  0.67005036  0.17760725  0.63023845  1
  La  La53  1  0.49998845  0.01330241  0.11995421  1
  La  La54  1  0.83187109  0.01985783  0.62287918  1
  La  La55  1  0.66410204  0.81923291  0.36855143  1
  La  La56  1  0.66613379  0.14778660  0.37089536  1
  La  La57  1  0.49582114  0.67095871  0.62733439  1
  La  La58  1  0.16223798  0.67136614  0.62303855  1
  La  La59  1  0.50101332  0.65355768  0.37562451  1
  La  La60  1  0.67276787  0.17585069  0.11886600  1
  La  La61  1  0.50294097  0.65712367  0.87883180  1
  La  La62  1  -0.00299567  0.82210929  0.37242867  1
  La  La63  1  0.16935678  0.65522942  0.37434353  1
  La  La64  1  1.00529771  0.17758619  0.12633155  1
  La  La65  1  0.83007889  0.34859723  0.62562954  1
  La  La66  1  0.66886109  0.15136676  0.87749234  1
  La  La67  1  1.00607526  0.84615337  0.12390723  1
  La  La68  1  0.33088126  0.82181592  0.87590411  1
  La  La69  1  0.66051206  0.48667086  0.37727814  1
  La  La70  1  0.50652671  0.98706781  0.37393552  1
  La  La71  1  0.32458100  0.49750229  0.63209520  1
  In  In72  1  0.66649227  0.33369581  0.75073023  1
  In  In73  1  0.50231256  0.16524822  0.24906290  1
  In  In74  1  0.33808157  -0.00399709  0.50186858  1
  In  In75  1  0.83189719  0.50119522  0.75023391  1
  In  In76  1  0.33533609  0.66833828  0.25088265  1
  In  In77  1  0.50363940  0.16361958  0.49962181  1
  In  In78  1  0.33352774  0.33427164  0.00263895  1
  In  In79  1  0.33205506  0.66513496  0.74708207  1
  In  In80  1  0.33409483  0.32998660  0.75085695  1
  In  In81  1  0.66678909  0.33521163  -0.00128887  1
  In  In82  1  0.83236818  0.83367224  0.50189724  1
  In  In83  1  0.83576061  0.83503736  0.00032317  1
  In  In84  1  0.50382012  0.83046718  0.75209401  1
  In  In85  1  0.33856531  -0.00204901  0.24815780  1
  In  In86  1  -0.00248241  0.33441821  -0.00116659  1
  In  In87  1  0.66545540  0.67087957  0.50041169  1
  In  In88  1  0.50094063  0.16924587  -0.00022274  1
  In  In89  1  0.66704434  0.33337645  0.25156053  1
  In  In90  1  0.16693993  0.16682587  0.25154758  1
  In  In91  1  0.50637872  0.82920794  0.50077059  1
  In  In92  1  0.16644506  0.16668301  0.50049789  1
  In  In93  1  0.33390659  0.66715160  0.00088478  1
  In  In94  1  -0.00033025  -0.00278136  0.74936795  1
  In  In95  1  0.16584532  0.82942563  0.49660527  1
  In  In96  1  0.33567576  0.33740410  0.49865006  1
  In  In97  1  -0.00519168  0.33510916  0.25056296  1
  In  In98  1  0.82849867  0.49845659  0.24949410  1
  In  In99  1  0.50256841  0.16576511  0.75138808  1
  In  In100  1  0.16632596  0.16514251  0.75164330  1
  In  In101  1  0.00166662  0.67149778  0.00051070  1
  In  In102  1  0.66626621  0.67386506  0.75098730  1
  In  In103  1  0.33454881  0.33674578  0.25403651  1
  In  In104  1  -0.00186296  -0.00205121  0.24846765  1
  In  In105  1  0.82797405  0.50060667  0.49846959  1
  In  In106  1  0.49920746  0.50477522  0.00340781  1
  In  In107  1  0.66658036  0.33135881  0.49683760  1
  Ir  Ir108  1  0.83311169  0.50444796  0.00425548  1
  Ir  Ir109  1  0.16563365  0.82946891  0.24669781  1
  Ir  Ir110  1  0.49892384  0.50421303  0.49785546  1
  Ir  Ir111  1  0.83740348  0.83396160  0.74776543  1
  Ir  Ir112  1  0.00453306  -0.00279249  0.00003784  1
  Ir  Ir113  1  0.49812336  0.50424860  0.74331300  1
  Ir  Ir114  1  0.82988904  0.16153897  0.24821096  1
  Ir  Ir115  1  0.83629551  0.15922152  0.00160262  1
  Ir  Ir116  1  0.33239633  -0.00648303  0.75747247  1
  Ir  Ir117  1  0.83258852  0.16627065  0.50230571  1
  Ir  Ir118  1  0.67223432  0.00160260  0.49723483  1
  Ir  Ir119  1  -0.00518521  -0.00661436  0.50070074  1
  Ir  Ir120  1  0.66471496  -0.00180964  0.00085211  1
  Ir  Ir121  1  0.33347162  -0.00514705  -0.00124579  1
  Ir  Ir122  1  0.16171288  0.50118159  0.00055218  1
  Ir  Ir123  1  -0.00072355  0.66986113  0.49755303  1
  Ir  Ir124  1  -0.00654779  0.33214476  0.50197633  1
  Ir  Ir125  1  0.50461648  0.83271331  0.24504568  1
  Ir  Ir126  1  -0.00117722  0.67239338  0.74708042  1
  Ir  Ir127  1  0.16525164  0.83094098  0.75382475  1
  Ir  Ir128  1  0.15898314  0.50604390  0.25114108  1
  Ir  Ir129  1  0.50496370  0.50961719  0.25544128  1
  Ir  Ir130  1  0.00001548  0.66998816  0.25397296  1
  Ir  Ir131  1  -0.00366106  0.33291788  0.74834237  1
  Ir  Ir132  1  0.16025751  0.50162441  0.74947336  1
  Ir  Ir133  1  0.16071844  0.50529454  0.49869260  1
  Ir  Ir134  1  0.66871801  -0.00470887  0.25043624  1
  Ir  Ir135  1  0.66803185  0.66947547  0.00149019  1
  Ir  Ir136  1  0.83510989  0.16687184  0.74674253  1
  Ir  Ir137  1  0.49888740  0.83412437  0.00377420  1
  Ir  Ir138  1  0.66670973  0.67003618  0.25068424  1
  Ir  Ir139  1  0.67283766  0.00122564  0.74790961  1
  Ir  Ir140  1  0.16765904  0.83745736  -0.00108597  1
  Ir  Ir141  1  0.83253489  0.83011335  0.25201949  1
  Ir  Ir142  1  0.16691288  0.15949935  0.00049740  1
  Ir  Ir143  1  0.33232079  0.66163941  0.50050485  1
  O  O144  1  0.31110994  0.34642274  0.12933024  1
  O  O145  1  0.31287570  0.34789179  0.62460628  1
  O  O146  1  0.32250935  0.64551405  0.12677286  1
  O  O147  1  0.29881360  0.65305609  0.61881438  1
  O  O148  1  0.31396875  0.98047668  0.11742562  1
  O  O149  1  0.31507094  0.98940425  0.63888347  1
  O  O150  1  0.64893855  0.31220675  0.12513417  1
  O  O151  1  0.64629764  0.31140378  0.62287462  1
  O  O152  1  0.63376294  0.66195180  0.12687259  1
  O  O153  1  0.63149418  0.65866122  0.62467264  1
  O  O154  1  0.63685706  0.99502352  0.12652572  1
  O  O155  1  0.64863979  0.99387474  0.62223514  1
  O  O156  1  0.98211534  0.31830596  0.12352378  1
  O  O157  1  0.96621610  0.33141955  0.62429983  1
  O  O158  1  0.98444951  0.66051680  0.13150757  1
  O  O159  1  0.97821864  0.67396672  0.62189686  1
  O  O160  1  0.98056550  0.98234505  0.11859700  1
  O  O161  1  0.96704569  0.98168599  0.62099199  1
  O  O162  1  0.18426051  0.16696537  0.11853913  1
  O  O163  1  0.18179057  0.16569190  0.62566651  1
  O  O164  1  0.18506584  0.50303958  0.12574821  1
  O  O165  1  0.18761218  0.50753735  0.62379615  1
  O  O166  1  0.19953797  0.82960582  0.12195056  1
  O  O167  1  0.18265129  0.81307611  0.63253718  1
  O  O168  1  0.53855309  0.15343015  0.12476611  1
  O  O169  1  0.53814373  0.15691749  0.62533111  1
  O  O170  1  0.53554256  0.51245951  0.13721486  1
  O  O171  1  0.53235815  0.50446934  0.61875610  1
  O  O172  1  0.52424914  0.81541240  0.12444079  1
  O  O173  1  0.54043057  0.81678415  0.62524003  1
  O  O174  1  0.86500627  0.15933206  0.12628279  1
  O  O175  1  0.85815026  0.15635827  0.62388484  1
  O  O176  1  0.86699576  0.50211312  0.12389918  1
  O  O177  1  0.85305517  0.49072864  0.62312178  1
  O  O178  1  0.86618013  0.83197856  0.13097847  1
  O  O179  1  0.86781476  0.82884787  0.62995997  1
  O  O180  1  0.14604484  0.15926564  0.37703161  1
  O  O181  1  0.15102497  0.14984789  0.88295216  1
  O  O182  1  0.13636355  0.51911071  0.37409817  1
  O  O183  1  0.13969574  0.49994164  0.87606967  1
  O  O184  1  0.13433530  0.83019699  0.36635959  1
  O  O185  1  0.13394050  0.84592126  0.87732892  1
  O  O186  1  0.46476036  0.16326815  0.37292475  1
  O  O187  1  0.46552365  0.16344243  0.87612807  1
  O  O188  1  0.47541607  0.51805567  0.37651520  1
  O  O189  1  0.47742478  0.51665505  0.86427167  1
  O  O190  1  0.48609352  0.84725173  0.36425468  1
  O  O191  1  0.46867104  0.83560180  0.88481100  1
  O  O192  1  0.80201855  0.17124480  0.37542490  1
  O  O193  1  0.80631502  0.16302631  0.87242565  1
  O  O194  1  0.79824498  0.51892363  0.37379316  1
  O  O195  1  0.81517731  0.51571561  0.88173528  1
  O  O196  1  0.80183438  0.82952816  0.37092990  1
  O  O197  1  0.81853268  0.83615493  0.86655624  1
  O  O198  1  0.01447126  -0.00637912  0.37950319  1
  O  O199  1  0.03046618  -0.00164819  0.88064020  1
  O  O200  1  0.00960663  0.33252023  0.38225141  1
  O  O201  1  0.01389313  0.33469464  0.87038544  1
  O  O202  1  0.03139270  0.68018252  0.37692315  1
  O  O203  1  0.01878734  0.68028919  0.86743578  1
  O  O204  1  0.37089994  0.00007197  0.37182629  1
  O  O205  1  0.35371704  0.00622366  0.87865899  1
  O  O206  1  0.36871883  0.35299776  0.37530604  1
  O  O207  1  0.34869943  0.34193524  0.87706463  1
  O  O208  1  0.36218319  0.66838943  0.37926535  1
  O  O209  1  0.36281834  0.67764777  0.87401747  1
  O  O210  1  0.69604023  0.00857720  0.37330707  1
  O  O211  1  0.69084647  0.01100992  0.87501709  1
  O  O212  1  0.70847311  0.35208313  0.37396763  1
  O  O213  1  0.69280249  0.34432608  0.87499799  1
  O  O214  1  0.70012772  0.67949525  0.36874003  1
  O  O215  1  0.70196461  0.66976188  0.88230726  1
  O  O216  1  0.06821012  0.09360576  0.02668846  1
  O  O217  1  0.06546943  0.07979622  0.51658812  1
  O  O218  1  0.06770120  0.43501443  0.02345942  1
  O  O219  1  0.06429299  0.42892632  0.51700678  1
  O  O220  1  0.07260801  0.77231966  0.02067352  1
  O  O221  1  0.06716227  0.75993168  0.52032943  1
  O  O222  1  0.40462510  0.08285726  0.02061046  1
  O  O223  1  0.41141048  0.08992750  0.52122221  1
  O  O224  1  0.39734479  0.44356091  0.02472639  1
  O  O225  1  0.40380429  0.44671946  0.52499321  1
  O  O226  1  0.40431413  0.77057631  0.02549264  1
  O  O227  1  0.40889998  0.74477618  0.52323767  1
  O  O228  1  0.73355908  0.09344601  0.01928497  1
  O  O229  1  0.73461096  0.10170326  0.52342161  1
  O  O230  1  0.74191225  0.43749675  0.02838406  1
  O  O231  1  0.72388473  0.43583137  0.52422377  1
  O  O232  1  0.74257943  0.75465792  0.01759839  1
  O  O233  1  0.73047657  0.77355692  0.52399939  1
  O  O234  1  0.09348482  0.24794719  0.01291016  1
  O  O235  1  0.08386476  0.26412505  0.51446075  1
  O  O236  1  0.08904651  0.58978984  0.01681571  1
  O  O237  1  0.09610926  0.60435859  0.51858410  1
  O  O238  1  0.09780278  0.92836391  0.02041373  1
  O  O239  1  0.08176648  0.92001444  0.52155209  1
  O  O240  1  0.42885760  0.26228868  0.02432428  1
  O  O241  1  0.43838170  0.26875710  0.50388273  1
  O  O242  1  0.44250296  0.61151098  0.01085335  1
  O  O243  1  0.43512715  0.60092614  0.51936092  1
  O  O244  1  0.42986755  0.92671979  0.02876411  1
  O  O245  1  0.43153196  0.91806591  0.51358018  1
  O  O246  1  0.76401576  0.24550943  0.01912543  1
  O  O247  1  0.77346401  0.26326711  0.51967905  1
  O  O248  1  0.75851372  0.59626386  0.02678878  1
  O  O249  1  0.75459742  0.59563752  0.52181970  1
  O  O250  1  0.75564381  0.92676091  0.00958519  1
  O  O251  1  0.76593246  0.93728491  0.52661995  1
  O  O252  1  0.25053150  0.07683907  0.26748754  1
  O  O253  1  0.24329450  0.06364988  0.77769467  1
  O  O254  1  0.23072543  0.41873699  0.26504648  1
  O  O255  1  0.23280112  0.41430063  0.76020226  1
  O  O256  1  0.23322905  0.73884833  0.27186224  1
  O  O257  1  0.24449814  0.74951985  0.77583322  1
  O  O258  1  0.57739510  0.06103245  0.27556632  1
  O  O259  1  0.58603626  0.07130551  0.77144413  1
  O  O260  1  0.56534847  0.41239709  0.28160574  1
  O  O261  1  0.56997334  0.41744520  0.76198030  1
  O  O262  1  0.57162367  0.73737570  0.27514284  1
  O  O263  1  0.57293745  0.73856576  0.78924259  1
  O  O264  1  0.90034045  0.07320746  0.26185547  1
  O  O265  1  0.90133559  0.07249404  0.75661186  1
  O  O266  1  0.89321891  0.39880597  0.27647295  1
  O  O267  1  0.90408910  0.40017681  0.75972775  1
  O  O268  1  0.90532381  0.73937582  0.28179908  1
  O  O269  1  0.90253171  0.73947994  0.77632332  1
  O  O270  1  0.26611263  0.23858797  0.27777029  1
  O  O271  1  0.26457749  0.23082850  0.77744207  1
  O  O272  1  0.24943925  0.57830681  0.26661357  1
  O  O273  1  0.25154779  0.57201831  0.76160256  1
  O  O274  1  0.25853248  0.89691819  0.26075676  1
  O  O275  1  0.25655524  0.90324160  0.78605613  1
  O  O276  1  0.59841122  0.23643261  0.28422627  1
  O  O277  1  0.60696843  0.22966925  0.77493132  1
  O  O278  1  0.60186729  0.57509464  0.28227950  1
  O  O279  1  0.58005798  0.58020549  0.76292193  1
  O  O280  1  0.60068632  0.90029892  0.27392959  1
  O  O281  1  0.60343619  0.90908006  0.75846991  1
  O  O282  1  0.91630374  0.23401373  0.26742378  1
  O  O283  1  0.92952823  0.23570626  0.76526538  1
  O  O284  1  0.92367362  0.58428137  0.27310658  1
  O  O285  1  0.92240364  0.58722972  0.76814866  1
  O  O286  1  0.92904056  0.89340907  0.27057005  1
  O  O287  1  0.93444194  0.89476173  0.77018786  1
  O  O288  1  0.26587975  0.24038385  0.47547305  1
  O  O289  1  0.26026044  0.22556049  0.97894424  1
  O  O290  1  0.24958965  0.57960222  0.47433447  1
  O  O291  1  0.25384723  0.57220280  0.98839394  1
  O  O292  1  0.25490693  0.90617449  0.48735087  1
  O  O293  1  0.26424581  0.90178299  0.97177269  1
  O  O294  1  0.60228810  0.23323377  0.46485846  1
  O  O295  1  0.60431482  0.22974698  0.97417416  1
  O  O296  1  0.59228580  0.56894788  0.47190569  1
  O  O297  1  0.59619223  0.58385803  0.98132405  1
  O  O298  1  0.60997863  0.90520040  0.47479693  1
  O  O299  1  0.59079799  0.90531042  0.98362646  1
  O  O300  1  0.92575029  0.23741632  0.48054293  1
  O  O301  1  0.92495399  0.23058079  0.99052354  1
  O  O302  1  0.92412017  0.58388392  0.47783556  1
  O  O303  1  0.91926665  0.57969572  0.98530549  1
  O  O304  1  0.93313236  0.89764826  0.47787166  1
  O  O305  1  0.94164029  0.90046297  0.97919149  1
  O  O306  1  0.25048884  0.07694298  0.48011281  1
  O  O307  1  0.23786250  0.06171433  0.97611925  1
  O  O308  1  0.23160373  0.41743275  0.48388379  1
  O  O309  1  0.23160864  0.41255948  0.99149088  1
  O  O310  1  0.23704125  0.72809048  0.47886544  1
  O  O311  1  0.24130872  0.75058174  0.97739948  1
  O  O312  1  0.58005632  0.06483124  0.46670879  1
  O  O313  1  0.57664812  0.06795552  0.98687685  1
  O  O314  1  0.56259619  0.40906273  0.46936706  1
  O  O315  1  0.57283337  0.41288499  0.98743306  1
  O  O316  1  0.57321981  0.73855404  0.45946344  1
  O  O317  1  0.56799900  0.73669071  0.98016020  1
  O  O318  1  0.89852391  0.06460557  0.49173073  1
  O  O319  1  0.91138895  0.06566884  0.98280282  1
  O  O320  1  0.89479842  0.39461277  0.48322242  1
  O  O321  1  0.90070217  0.41421670  0.98575524  1
  O  O322  1  0.90737911  0.73722428  0.46961553  1
  O  O323  1  0.90765256  0.74146070  0.97233037  1
  O  O324  1  0.08487552  0.25625415  0.23553839  1
  O  O325  1  0.08678624  0.26441455  0.74067466  1
  O  O326  1  0.08894150  0.59730724  0.22963641  1
  O  O327  1  0.09402797  0.60396779  0.72686122  1
  O  O328  1  0.09153982  0.91453540  0.22666594  1
  O  O329  1  0.09253192  0.91522206  0.72910666  1
  O  O330  1  0.43676871  0.26893708  0.24194062  1
  O  O331  1  0.43029425  0.25926436  0.72908318  1
  O  O332  1  0.44787779  0.60955548  0.24031231  1
  O  O333  1  0.42232368  0.58646159  0.71283395  1
  O  O334  1  0.43904441  0.92279501  0.21725633  1
  O  O335  1  0.41882893  0.91830303  0.74249851  1
  O  O336  1  0.76010705  0.24902360  0.23365489  1
  O  O337  1  0.77050230  0.25856146  0.72227734  1
  O  O338  1  0.75283623  0.59900201  0.22717780  1
  O  O339  1  0.74917218  0.58962934  0.73220010  1
  O  O340  1  0.76276992  0.92263429  0.23098255  1
  O  O341  1  0.77106770  0.93037299  0.71972448  1
  O  O342  1  0.06762120  0.09281692  0.22515607  1
  O  O343  1  0.07718013  0.08506643  0.73726663  1
  O  O344  1  0.06356231  0.44001958  0.22912588  1
  O  O345  1  0.06400474  0.42902671  0.73289902  1
  O  O346  1  0.06736892  0.76455250  0.22675374  1
  O  O347  1  0.06983890  0.76364574  0.72597064  1
  O  O348  1  0.41991195  0.08196002  0.21368773  1
  O  O349  1  0.40304546  0.08219015  0.73972592  1
  O  O350  1  0.40877965  0.45243211  0.22786464  1
  O  O351  1  0.40694440  0.43565190  0.72888782  1
  O  O352  1  0.40857065  0.76773944  0.22308290  1
  O  O353  1  0.41696049  0.74839208  0.72230571  1
  O  O354  1  0.73113171  0.09492312  0.22758795  1
  O  O355  1  0.74050086  0.09828162  0.72517987  1
  O  O356  1  0.72461406  0.43887611  0.22340976  1
  O  O357  1  0.73767392  0.42702983  0.71653843  1
  O  O358  1  0.73528351  0.76362324  0.23193439  1
  O  O359  1  0.73985064  0.77368091  0.72380702  1
