# generated using pymatgen
data_BaLaInIrO6
_symmetry_space_group_name_H-M   'P 1'
_cell_length_a   17.55007257
_cell_length_b   17.58461285
_cell_length_c   16.51794607
_cell_angle_alpha   90.05906985
_cell_angle_beta   89.99547450
_cell_angle_gamma   90.01136063
_symmetry_Int_Tables_number   1
_chemical_formula_structural   BaLaInIrO6
_chemical_formula_sum   'Ba36 La36 In36 Ir36 O216'
_cell_volume   5097.62085295
_cell_formula_units_Z   36
loop_
 _symmetry_equiv_pos_site_id
 _symmetry_equiv_pos_as_xyz
  1  'x, y, z'
loop_
 _atom_site_type_symbol
 _atom_site_label
 _atom_site_symmetry_multiplicity
 _atom_site_fract_x
 _atom_site_fract_y
 _atom_site_fract_z
 _atom_site_occupancy
  Ba  Ba0  1  0.50076320  0.31888071  0.87155597  1
  Ba  Ba1  1  0.49914546  0.67667137  0.13055111  1
  Ba  Ba2  1  0.16791766  0.68195019  0.62677779  1
  Ba  Ba3  1  0.49539179  0.67806869  0.62635842  1
  Ba  Ba4  1  0.99729807  0.50608654  0.12609840  1
  Ba  Ba5  1  0.49527231  0.34258652  0.62684513  1
  Ba  Ba6  1  0.66298126  0.15858986  0.87504139  1
  Ba  Ba7  1  0.83584647  0.32933380  0.88026036  1
  Ba  Ba8  1  -0.00155412  0.49387439  0.37504335  1
  Ba  Ba9  1  0.99658160  0.17360598  0.12553587  1
  Ba  Ba10  1  0.99630022  0.83825865  0.12570059  1
  Ba  Ba11  1  0.16755096  0.65696687  0.87386879  1
  Ba  Ba12  1  0.33136365  0.82665907  0.87709284  1
  Ba  Ba13  1  0.83422621  0.34018953  0.12380947  1
  Ba  Ba14  1  0.50100917  0.99080814  0.87335235  1
  Ba  Ba15  1  0.83316143  0.99290960  0.37408525  1
  Ba  Ba16  1  0.00366922  0.82241672  0.37099748  1
  Ba  Ba17  1  0.66535177  0.49197020  0.87399909  1
  Ba  Ba18  1  0.83510221  0.66584123  0.37320188  1
  Ba  Ba19  1  0.16724735  0.32144277  0.87395775  1
  Ba  Ba20  1  0.50452415  0.65329310  0.37667512  1
  Ba  Ba21  1  0.66406913  0.48798344  0.37581698  1
  Ba  Ba22  1  0.83122639  0.32628784  0.37065023  1
  Ba  Ba23  1  -0.00350773  0.49675891  0.87448992  1
  Ba  Ba24  1  0.66838215  0.51067423  0.12352551  1
  Ba  Ba25  1  0.83477966  0.99111187  0.87521860  1
  Ba  Ba26  1  0.83294420  0.66318637  0.87458639  1
  Ba  Ba27  1  -0.00067474  0.15573934  0.37567226  1
  Ba  Ba28  1  0.33083020  0.15452563  0.37362429  1
  Ba  Ba29  1  0.66751038  0.83001706  0.87667990  1
  Ba  Ba30  1  -0.00352956  0.15874235  0.87964279  1
  Ba  Ba31  1  -0.00117947  0.82024491  0.87299627  1
  Ba  Ba32  1  0.66817147  0.84129379  0.62880425  1
  Ba  Ba33  1  0.49897237  0.34023659  0.12268572  1
  Ba  Ba34  1  0.49726614  0.01374029  0.62394081  1
  Ba  Ba35  1  0.66975042  0.84150599  0.12620263  1
  La  La36  1  0.16555235  0.01156358  0.62497037  1
  La  La37  1  0.32685949  0.48578933  0.87596510  1
  La  La38  1  1.00455407  0.52364857  0.62371833  1
  La  La39  1  0.65877603  0.81649168  0.36899918  1
  La  La40  1  0.33808552  0.51543697  0.63028413  1
  La  La41  1  0.34029744  0.84765000  0.12622204  1
  La  La42  1  0.49816785  0.01335927  0.12052192  1
  La  La43  1  0.83514250  0.67123656  0.12080431  1
  La  La44  1  0.34427489  0.85461267  0.62661049  1
  La  La45  1  0.83721641  0.00622190  0.63429176  1
  La  La46  1  0.67058655  0.17917682  0.12304607  1
  La  La47  1  0.15786300  0.34689456  0.12712680  1
  La  La48  1  0.33162263  0.48252179  0.38169427  1
  La  La49  1  0.66732666  0.17836316  0.62673385  1
  La  La50  1  0.17093607  0.98666749  0.87498259  1
  La  La51  1  0.16230541  0.35325330  0.62156483  1
  La  La52  1  0.50911561  0.65948239  0.87715498  1
  La  La53  1  0.83058766  0.67927164  0.62758043  1
  La  La54  1  0.99372018  0.17981616  0.62437438  1
  La  La55  1  0.17146985  0.64995012  0.37679841  1
  La  La56  1  0.83420410  0.34936174  0.62339618  1
  La  La57  1  0.66592372  0.51534396  0.62294097  1
  La  La58  1  0.66028410  0.15383772  0.37738279  1
  La  La59  1  0.33222984  0.81898139  0.37600465  1
  La  La60  1  0.17410427  0.98639167  0.37242801  1
  La  La61  1  0.34091461  0.18212203  0.62172498  1
  La  La62  1  0.34114474  0.51554308  0.12875682  1
  La  La63  1  0.16250575  0.68166147  0.12503162  1
  La  La64  1  0.33092123  0.14982636  0.86552047  1
  La  La65  1  0.83284508  0.01348375  0.12510857  1
  La  La66  1  0.99836715  0.84219224  0.62322166  1
  La  La67  1  0.50555255  0.31754367  0.38139454  1
  La  La68  1  0.33763521  0.18165954  0.12124201  1
  La  La69  1  0.50630543  0.98394816  0.37246197  1
  La  La70  1  0.16158561  0.01160511  0.12141261  1
  La  La71  1  0.17120572  0.31513132  0.37341978  1
  In  In72  1  0.49968288  0.49659568  0.25350748  1
  In  In73  1  0.66519339  0.66959304  0.75176424  1
  In  In74  1  0.66732195  0.00058499  0.50083583  1
  In  In75  1  0.00065169  0.33383278  0.49901050  1
  In  In76  1  0.16780245  0.16581067  0.50443351  1
  In  In77  1  0.32894311  0.33152065  0.74822133  1
  In  In78  1  0.49596361  0.50005072  0.00179475  1
  In  In79  1  0.83169701  0.50314408  -0.00034507  1
  In  In80  1  0.33284509  0.66642145  0.49942067  1
  In  In81  1  0.66501282  -0.00137872  0.00108128  1
  In  In82  1  0.49732106  0.49970806  0.75193341  1
  In  In83  1  0.49703441  0.16361636  0.24882490  1
  In  In84  1  0.83412203  0.83733107  0.50023775  1
  In  In85  1  0.83085301  0.16558056  -0.00055325  1
  In  In86  1  0.33512789  0.66755895  0.00003780  1
  In  In87  1  0.16987010  0.16409402  0.24648859  1
  In  In88  1  0.00276164  0.33366982  0.00006249  1
  In  In89  1  0.66295074  0.33410852  -0.00237842  1
  In  In90  1  0.33268318  0.33462158  0.24872197  1
  In  In91  1  0.83076971  0.16564221  0.49880320  1
  In  In92  1  0.66683747  0.66645598  0.50172317  1
  In  In93  1  0.33304532  0.00122738  0.00074856  1
  In  In94  1  0.16915707  0.50227311  0.00293529  1
  In  In95  1  0.33496972  0.67042891  0.75227187  1
  In  In96  1  0.00517467  0.00052972  0.75181405  1
  In  In97  1  0.00043717  0.33327167  0.74807410  1
  In  In98  1  0.16719237  0.83291417  0.00028759  1
  In  In99  1  0.16969007  0.83455641  0.50063523  1
  In  In100  1  0.83511585  0.50200804  0.49975214  1
  In  In101  1  0.49919962  0.83550286  0.49934652  1
  In  In102  1  0.83340780  0.16596554  0.74894875  1
  In  In103  1  0.83416014  0.50099275  0.74696950  1
  In  In104  1  0.83184060  0.83608430  0.25058122  1
  In  In105  1  0.00078756  0.33210444  0.25306682  1
  In  In106  1  0.00291414  -0.00191761  0.25123552  1
  In  In107  1  0.83150475  0.50280143  0.25143124  1
  Ir  Ir108  1  0.66255658  0.33147628  0.50367513  1
  Ir  Ir109  1  0.16610853  0.50067270  0.74542365  1
  Ir  Ir110  1  0.82536373  0.16357591  0.25137490  1
  Ir  Ir111  1  0.32952449  0.66854726  0.25359857  1
  Ir  Ir112  1  0.00873941  0.66906461  0.24993641  1
  Ir  Ir113  1  0.66573331  0.67440437  0.00250210  1
  Ir  Ir114  1  0.49929551  0.16396904  0.74547171  1
  Ir  Ir115  1  0.66450821  0.67183540  0.24741333  1
  Ir  Ir116  1  0.17098966  0.16325101  0.74683841  1
  Ir  Ir117  1  0.49615158  0.16716586  0.49932738  1
  Ir  Ir118  1  0.66387528  0.00064026  0.74727980  1
  Ir  Ir119  1  0.49756941  0.49442996  0.50225683  1
  Ir  Ir120  1  0.32912915  0.00203433  0.74521901  1
  Ir  Ir121  1  0.17073561  0.83857856  0.74604359  1
  Ir  Ir122  1  0.49711377  0.83935458  0.75262599  1
  Ir  Ir123  1  0.33399600  -0.00464096  0.24959872  1
  Ir  Ir124  1  0.00083856  0.66960894  0.00303348  1
  Ir  Ir125  1  0.17223381  0.16222254  -0.00533567  1
  Ir  Ir126  1  0.00417210  -0.00211046  0.50318531  1
  Ir  Ir127  1  0.00538327  0.66954055  0.50069655  1
  Ir  Ir128  1  0.00293229  0.67057473  0.74663802  1
  Ir  Ir129  1  0.83795715  0.83361700  0.00040172  1
  Ir  Ir130  1  0.33431582  0.00130740  0.49458856  1
  Ir  Ir131  1  0.83925560  0.83197109  0.75070895  1
  Ir  Ir132  1  0.32779340  0.32799739  -0.00096595  1
  Ir  Ir133  1  0.49595365  0.83708557  0.24641136  1
  Ir  Ir134  1  0.17512051  0.83204796  0.25074999  1
  Ir  Ir135  1  0.49944938  0.83497787  0.00375042  1
  Ir  Ir136  1  0.49497515  0.16534523  -0.00038955  1
  Ir  Ir137  1  0.16858496  0.50044265  0.49953785  1
  Ir  Ir138  1  0.33195532  0.33451297  0.49997821  1
  Ir  Ir139  1  0.66168352  0.00160216  0.24846046  1
  Ir  Ir140  1  0.17409057  0.50306588  0.25678280  1
  Ir  Ir141  1  0.66396456  0.32574778  0.25708426  1
  Ir  Ir142  1  0.66456837  0.33172635  0.73996816  1
  Ir  Ir143  1  0.00231808  -0.00171173  0.00258692  1
  O  O144  1  0.29653565  0.31687238  0.11855608  1
  O  O145  1  0.29899706  0.32118712  0.61982168  1
  O  O146  1  0.29749014  0.65490959  0.13612876  1
  O  O147  1  0.31399564  0.65426871  0.62436834  1
  O  O148  1  0.29970716  0.98590773  0.13134327  1
  O  O149  1  0.30273568  0.99104974  0.61840891  1
  O  O150  1  0.64504537  0.31861800  0.13779549  1
  O  O151  1  0.63914566  0.31852445  0.62083798  1
  O  O152  1  0.64759439  0.67787886  0.12426071  1
  O  O153  1  0.64056021  0.65788524  0.62703158  1
  O  O154  1  0.63126822  0.99695734  0.13093594  1
  O  O155  1  0.64435916  0.99679737  0.62883810  1
  O  O156  1  0.99205325  0.33035502  0.12793910  1
  O  O157  1  0.97170737  0.31925344  0.62334622  1
  O  O158  1  0.97479499  0.66907141  0.12580890  1
  O  O159  1  0.97372084  0.66828729  0.62328709  1
  O  O160  1  0.97214106  0.99551177  0.12134092  1
  O  O161  1  0.97636310  0.98463451  0.62129014  1
  O  O162  1  0.20474762  0.14867307  0.11450148  1
  O  O163  1  0.20696210  0.14930990  0.62967039  1
  O  O164  1  0.20602123  0.49187913  0.13821882  1
  O  O165  1  0.20045117  0.49523803  0.62148655  1
  O  O166  1  0.20416493  0.82090468  0.13260031  1
  O  O167  1  0.20562430  0.83877590  0.62712730  1
  O  O168  1  0.52643840  0.15782666  0.12020330  1
  O  O169  1  0.52856634  0.16520136  0.62198267  1
  O  O170  1  0.51640712  0.49378360  0.12890572  1
  O  O171  1  0.52800995  0.49557580  0.62050511  1
  O  O172  1  0.52043970  0.83544391  0.12511003  1
  O  O173  1  0.51361441  0.84128201  0.63174178  1
  O  O174  1  0.84426060  0.15498334  0.13253701  1
  O  O175  1  0.85746033  0.14458823  0.62223439  1
  O  O176  1  0.84405052  0.51921758  0.12735712  1
  O  O177  1  0.86958551  0.48859277  0.62306029  1
  O  O178  1  0.84742097  0.81874622  0.12145635  1
  O  O179  1  0.86361247  0.82445581  0.63024588  1
  O  O180  1  0.15068841  0.17351276  0.37698326  1
  O  O181  1  0.14427124  0.16631845  0.86998614  1
  O  O182  1  0.14461545  0.51349291  0.37718789  1
  O  O183  1  0.14707275  0.49874679  0.86542447  1
  O  O184  1  0.15169724  0.84845937  0.36950283  1
  O  O185  1  0.14804172  0.84799283  0.86772962  1
  O  O186  1  0.47723931  0.17887741  0.37869806  1
  O  O187  1  0.46623110  0.16409870  0.87436225  1
  O  O188  1  0.47013154  0.49428830  0.38159707  1
  O  O189  1  0.46124690  0.51365619  0.87821754  1
  O  O190  1  0.46757677  0.84490484  0.36608376  1
  O  O191  1  0.47746084  0.83512123  0.88117300  1
  O  O192  1  0.79817552  0.16529814  0.37106462  1
  O  O193  1  0.81344191  0.16461242  0.87310561  1
  O  O194  1  0.81233133  0.51291110  0.37551527  1
  O  O195  1  0.81656195  0.50854555  0.87200860  1
  O  O196  1  0.79823464  0.83690627  0.37589132  1
  O  O197  1  0.81879772  0.83650431  0.87465037  1
  O  O198  1  0.03654261  0.00274235  0.38229607  1
  O  O199  1  0.03425906  0.00057034  0.88107485  1
  O  O200  1  0.03705503  0.33278871  0.37624586  1
  O  O201  1  0.02008110  0.33541917  0.87245793  1
  O  O202  1  0.03818918  0.66981106  0.37665049  1
  O  O203  1  0.02238562  0.66709126  0.87610700  1
  O  O204  1  0.36872080  0.00288537  0.37214604  1
  O  O205  1  0.35055240  0.01085421  0.86735450  1
  O  O206  1  0.36733456  0.34397821  0.38164435  1
  O  O207  1  0.34965842  0.34274814  0.87819704  1
  O  O208  1  0.35780616  0.68185431  0.37130556  1
  O  O209  1  0.37192028  0.67379154  0.87552807  1
  O  O210  1  0.68270399  0.01446623  0.36747052  1
  O  O211  1  0.68165194  0.00131272  0.86874780  1
  O  O212  1  0.68149940  0.32789418  0.38277716  1
  O  O213  1  0.68401135  0.32956677  0.85844362  1
  O  O214  1  0.68089128  0.67363246  0.36879265  1
  O  O215  1  0.68005286  0.67365418  0.88334061  1
  O  O216  1  0.07893385  0.08802163  0.02535178  1
  O  O217  1  0.06972761  0.09151529  0.53245554  1
  O  O218  1  0.08794516  0.42112340  0.02708938  1
  O  O219  1  0.07577922  0.43564282  0.52953588  1
  O  O220  1  0.07433408  0.75633726  0.02027750  1
  O  O221  1  0.06929934  0.76528482  0.52250193  1
  O  O222  1  0.40454091  0.09562685  0.02716817  1
  O  O223  1  0.39824324  0.10053496  0.52191015  1
  O  O224  1  0.39007898  0.42238440  0.02338362  1
  O  O225  1  0.39632602  0.43219825  0.52447535  1
  O  O226  1  0.40465369  0.77072097  0.02758815  1
  O  O227  1  0.39650647  0.77190697  0.51728839  1
  O  O228  1  0.73974605  0.08643768  0.03281893  1
  O  O229  1  0.72213028  0.10844983  0.51218330  1
  O  O230  1  0.74044289  0.42364207  0.01388073  1
  O  O231  1  0.72676717  0.42565963  0.52830273  1
  O  O232  1  0.74465414  0.76267716  0.01924891  1
  O  O233  1  0.75180824  0.75230000  0.52673562  1
  O  O234  1  0.11028501  0.25454849  0.02283084  1
  O  O235  1  0.10270468  0.26570340  0.52837660  1
  O  O236  1  0.09510465  0.60221160  0.02615828  1
  O  O237  1  0.10027209  0.59630057  0.52023543  1
  O  O238  1  0.09624009  0.93221440  0.02406976  1
  O  O239  1  0.10033578  0.93467373  0.52383188  1
  O  O240  1  0.41770992  0.25351401  0.02266815  1
  O  O241  1  0.42288135  0.25986763  0.52328691  1
  O  O242  1  0.41960868  0.59008822  0.03429236  1
  O  O243  1  0.42702644  0.58415807  0.51802501  1
  O  O244  1  0.43031863  0.92852191  0.02768846  1
  O  O245  1  0.42569413  0.93491489  0.51141767  1
  O  O246  1  0.74424482  0.24906195  0.02166361  1
  O  O247  1  0.75807490  0.26875631  0.52690889  1
  O  O248  1  0.75727182  0.60736662  0.02067728  1
  O  O249  1  0.75929672  0.59052697  0.53410062  1
  O  O250  1  0.77061244  0.92650749  0.02198696  1
  O  O251  1  0.76906305  0.93781597  0.52671056  1
  O  O252  1  0.23952146  0.05842577  0.27238746  1
  O  O253  1  0.23214406  0.06569212  0.77253465  1
  O  O254  1  0.23695919  0.40966243  0.28778999  1
  O  O255  1  0.23076056  0.40704834  0.75747754  1
  O  O256  1  0.23750836  0.73673214  0.28075796  1
  O  O257  1  0.23724197  0.74706864  0.76764762  1
  O  O258  1  0.56355864  0.06290079  0.27040591  1
  O  O259  1  0.57209638  0.07216795  0.76536201  1
  O  O260  1  0.56818452  0.39089089  0.27801501  1
  O  O261  1  0.57533185  0.40279763  0.76243328  1
  O  O262  1  0.57081143  0.74752001  0.27413513  1
  O  O263  1  0.56357283  0.74614858  0.77220917  1
  O  O264  1  0.89868052  0.07510110  0.26114064  1
  O  O265  1  0.90457108  0.06257573  0.75720735  1
  O  O266  1  0.91090978  0.41184976  0.26283194  1
  O  O267  1  0.89643792  0.39732715  0.75603938  1
  O  O268  1  0.91648565  0.73989016  0.26012807  1
  O  O269  1  0.90477435  0.73466628  0.76012228  1
  O  O270  1  0.25981711  0.24224505  0.26826463  1
  O  O271  1  0.26660917  0.22599356  0.76868369  1
  O  O272  1  0.26774038  0.57225930  0.28557227  1
  O  O273  1  0.26177509  0.56330428  0.77037622  1
  O  O274  1  0.27047653  0.89936688  0.27761991  1
  O  O275  1  0.26020364  0.91050740  0.77060446  1
  O  O276  1  0.59733367  0.23200519  0.27512292  1
  O  O277  1  0.59658191  0.23180117  0.75803748  1
  O  O278  1  0.59414119  0.58006226  0.26148933  1
  O  O279  1  0.58444221  0.58146319  0.77677229  1
  O  O280  1  0.59384475  0.90450171  0.27616320  1
  O  O281  1  0.59167353  0.90710341  0.76841338  1
  O  O282  1  0.91587469  0.23377122  0.26759507  1
  O  O283  1  0.93884554  0.22622032  0.75147803  1
  O  O284  1  0.93607618  0.58509633  0.26646706  1
  O  O285  1  0.93697151  0.57758178  0.75272044  1
  O  O286  1  0.92623637  0.90914195  0.26654817  1
  O  O287  1  0.93248524  0.89849188  0.75643957  1
  O  O288  1  0.26365787  0.24508480  0.47878889  1
  O  O289  1  0.26928490  0.22514939  0.97234805  1
  O  O290  1  0.26277305  0.56578728  0.47365289  1
  O  O291  1  0.26715844  0.56398636  0.97627473  1
  O  O292  1  0.27016274  0.90696854  0.47074706  1
  O  O293  1  0.25665671  0.91176038  0.98499067  1
  O  O294  1  0.59356355  0.23380019  0.47695089  1
  O  O295  1  0.58159593  0.23686730  0.98566137  1
  O  O296  1  0.59012560  0.56271007  0.48764983  1
  O  O297  1  0.59056809  0.58834258  0.98357478  1
  O  O298  1  0.59342605  0.90913291  0.46597448  1
  O  O299  1  0.58901178  0.90492876  0.98787627  1
  O  O300  1  0.93142927  0.23027365  0.49063777  1
  O  O301  1  0.92337719  0.24091203  0.99306320  1
  O  O302  1  0.93912251  0.57773221  0.49219321  1
  O  O303  1  0.92798299  0.58601187  0.98960171  1
  O  O304  1  0.94058135  0.90276389  0.48750252  1
  O  O305  1  0.93183691  0.90478886  0.98164317  1
  O  O306  1  0.23634575  0.06153795  0.47899700  1
  O  O307  1  0.23586603  0.07035630  0.96846805  1
  O  O308  1  0.23517701  0.40220015  0.47390282  1
  O  O309  1  0.24352869  0.39958681  0.98282502  1
  O  O310  1  0.23461756  0.73636320  0.47113708  1
  O  O311  1  0.23741595  0.73570367  0.99064837  1
  O  O312  1  0.56229366  0.07524228  0.47065751  1
  O  O313  1  0.56446237  0.07500585  0.98824046  1
  O  O314  1  0.56266008  0.39643172  0.48045502  1
  O  O315  1  0.57003620  0.40768017  0.98046363  1
  O  O316  1  0.57881538  0.74781207  0.47847693  1
  O  O317  1  0.56591599  0.74048058  0.98058502  1
  O  O318  1  0.91201183  0.06240040  0.48632710  1
  O  O319  1  0.91114454  0.06659277  0.99140168  1
  O  O320  1  0.90105675  0.40157045  0.48504043  1
  O  O321  1  0.91445140  0.41657449  0.99159942  1
  O  O322  1  0.91591860  0.73790290  0.48692529  1
  O  O323  1  0.90541892  0.73830408  0.98753079  1
  O  O324  1  0.10411368  0.26562321  0.23139654  1
  O  O325  1  0.11062594  0.25841510  0.71830457  1
  O  O326  1  0.11089001  0.60196675  0.23336293  1
  O  O327  1  0.09438450  0.59546810  0.72558949  1
  O  O328  1  0.11104384  0.92648097  0.22726621  1
  O  O329  1  0.10393836  0.93083427  0.72345328  1
  O  O330  1  0.42191977  0.25448525  0.22720492  1
  O  O331  1  0.42404452  0.24989658  0.72902199  1
  O  O332  1  0.41679320  0.59690185  0.23567367  1
  O  O333  1  0.42002655  0.58851956  0.72335718  1
  O  O334  1  0.42990280  0.93202998  0.21994907  1
  O  O335  1  0.42087410  0.93082387  0.72664381  1
  O  O336  1  0.75372147  0.25332391  0.22926885  1
  O  O337  1  0.75723136  0.26274020  0.71367288  1
  O  O338  1  0.75778856  0.60802928  0.22776269  1
  O  O339  1  0.75949144  0.59391789  0.71950887  1
  O  O340  1  0.75886745  0.94052568  0.22410039  1
  O  O341  1  0.76605676  0.93091403  0.72890047  1
  O  O342  1  0.08138803  0.08493327  0.22421113  1
  O  O343  1  0.07872409  0.09795724  0.71798374  1
  O  O344  1  0.08872651  0.43322844  0.23343798  1
  O  O345  1  0.07434271  0.43398829  0.71469784  1
  O  O346  1  0.08606049  0.75875075  0.22451180  1
  O  O347  1  0.07301102  0.77182931  0.72431783  1
  O  O348  1  0.39893638  0.08765620  0.21761724  1
  O  O349  1  0.39538818  0.09939777  0.72524321  1
  O  O350  1  0.39345825  0.43578705  0.23276211  1
  O  O351  1  0.39704180  0.42892108  0.72996467  1
  O  O352  1  0.39318508  0.76930983  0.22839060  1
  O  O353  1  0.40350985  0.77481773  0.72777625  1
  O  O354  1  0.72491089  0.09815305  0.22663001  1
  O  O355  1  0.73282468  0.09033233  0.72053612  1
  O  O356  1  0.73310330  0.41599606  0.24052069  1
  O  O357  1  0.72984650  0.42389497  0.71388438  1
  O  O358  1  0.73276306  0.76351562  0.24322756  1
  O  O359  1  0.74975807  0.75980202  0.73445295  1
