# generated using pymatgen
data_BaLaInIrO6
_symmetry_space_group_name_H-M   'P 1'
_cell_length_a   17.51170929
_cell_length_b   17.53173400
_cell_length_c   16.48441371
_cell_angle_alpha   89.95321759
_cell_angle_beta   89.98320455
_cell_angle_gamma   90.07641091
_symmetry_Int_Tables_number   1
_chemical_formula_structural   BaLaInIrO6
_chemical_formula_sum   'Ba36 La36 In36 Ir36 O216'
_cell_volume   5060.88381814
_cell_formula_units_Z   36
loop_
 _symmetry_equiv_pos_site_id
 _symmetry_equiv_pos_as_xyz
  1  'x, y, z'
loop_
 _atom_site_type_symbol
 _atom_site_label
 _atom_site_symmetry_multiplicity
 _atom_site_fract_x
 _atom_site_fract_y
 _atom_site_fract_z
 _atom_site_occupancy
  Ba  Ba0  1  0.49658886  0.99100127  0.87578291  1
  Ba  Ba1  1  0.66496972  0.83719613  0.62621260  1
  Ba  Ba2  1  0.16844476  0.65657628  0.37357441  1
  Ba  Ba3  1  1.00431906  0.51605107  0.11858993  1
  Ba  Ba4  1  0.33789547  0.17467064  0.62537022  1
  Ba  Ba5  1  0.66788042  0.49269748  0.37460118  1
  Ba  Ba6  1  0.99880171  0.17261698  0.62975508  1
  Ba  Ba7  1  0.83517986  0.32609515  0.87783155  1
  Ba  Ba8  1  0.33241778  0.17520402  0.12703019  1
  Ba  Ba9  1  0.50069243  0.67506103  0.62396840  1
  Ba  Ba10  1  0.49670568  0.67625341  0.12486151  1
  Ba  Ba11  1  0.16366897  0.68271769  0.12386589  1
  Ba  Ba12  1  -0.00140659  0.15325823  0.87802432  1
  Ba  Ba13  1  0.83103676  0.00929532  0.62466651  1
  Ba  Ba14  1  0.32809926  0.82020675  0.87682774  1
  Ba  Ba15  1  0.50169140  0.66142632  0.87447991  1
  Ba  Ba16  1  0.99903292  0.50176051  0.62164559  1
  Ba  Ba17  1  0.83567040  0.65891995  0.37508296  1
  Ba  Ba18  1  0.33267248  0.51001719  0.12445379  1
  Ba  Ba19  1  0.33418645  0.51143304  0.62461888  1
  Ba  Ba20  1  0.16499256  0.00806085  0.62406908  1
  Ba  Ba21  1  0.83324843  0.99351328  0.87131993  1
  Ba  Ba22  1  0.16165080  0.67230987  0.62415290  1
  Ba  Ba23  1  1.00474722  0.17486137  0.12569686  1
  Ba  Ba24  1  0.66205300  0.15869773  0.37438426  1
  Ba  Ba25  1  0.83082201  0.67944758  0.62469910  1
  Ba  Ba26  1  1.00183812  0.84237462  0.12408229  1
  Ba  Ba27  1  0.83449944  0.68231140  0.12074540  1
  Ba  Ba28  1  0.33221966  0.82157056  0.37529127  1
  Ba  Ba29  1  0.83267232  0.32576445  0.37340057  1
  Ba  Ba30  1  0.83540754  0.66053251  0.87585376  1
  Ba  Ba31  1  0.50589796  0.65341570  0.37738061  1
  Ba  Ba32  1  0.16452996  0.00779311  0.12452631  1
  Ba  Ba33  1  0.66529566  0.17435423  0.62732341  1
  Ba  Ba34  1  0.66703366  0.82545413  0.37782305  1
  Ba  Ba35  1  0.33484194  0.15513932  0.37334762  1
  La  La36  1  0.16917710  0.32199485  0.37647080  1
  La  La37  1  0.66757868  0.18148762  0.12543986  1
  La  La38  1  0.17130566  0.32013716  0.87970862  1
  La  La39  1  0.83686704  0.98599552  0.38231179  1
  La  La40  1  0.82817484  0.34138197  0.62651207  1
  La  La41  1  0.33020859  0.49226779  0.87948995  1
  La  La42  1  0.49350870  0.35046658  0.61891547  1
  La  La43  1  0.83220346  0.34955097  0.12233395  1
  La  La44  1  0.49589690  0.34827655  0.13009798  1
  La  La45  1  0.33400633  0.84702363  0.12788323  1
  La  La46  1  0.67255159  0.51538321  0.62314562  1
  La  La47  1  0.83563974  0.00821403  0.12168129  1
  La  La48  1  0.32775028  0.14801463  0.87853142  1
  La  La49  1  0.66163884  0.48254731  0.87163001  1
  La  La50  1  0.49234014  0.01510722  0.12393593  1
  La  La51  1  -0.00048654  0.82347833  0.87597847  1
  La  La52  1  0.16344073  0.35075793  0.12620603  1
  La  La53  1  0.17081597  0.98442593  0.36943117  1
  La  La54  1  0.50323082  0.98669580  0.37131705  1
  La  La55  1  -0.00346418  0.14777997  0.37853927  1
  La  La56  1  0.66450834  0.15025150  0.87382517  1
  La  La57  1  -0.00168622  0.48875362  0.87513314  1
  La  La58  1  0.16173191  0.34024161  0.62296532  1
  La  La59  1  0.67548256  0.51556799  0.12360373  1
  La  La60  1  0.34086274  0.83993519  0.61957081  1
  La  La61  1  1.00173234  0.84420662  0.62457975  1
  La  La62  1  0.33337348  0.49323799  0.37580299  1
  La  La63  1  0.67172736  0.84983798  0.12116148  1
  La  La64  1  0.50478343  0.32316896  0.37574637  1
  La  La65  1  0.16696487  0.65035009  0.87834286  1
  La  La66  1  0.66340576  0.82340513  0.87639758  1
  La  La67  1  0.17301122  0.98378154  0.87674072  1
  La  La68  1  -0.00663595  0.48798057  0.37257728  1
  La  La69  1  0.49284853  -0.00026789  0.61184577  1
  La  La70  1  0.50367930  0.31741735  0.87509758  1
  La  La71  1  -0.00156239  0.81905498  0.37500599  1
  In  In72  1  0.66483658  0.33161033  -0.00112151  1
  In  In73  1  0.83407573  0.83597307  0.24806802  1
  In  In74  1  0.16880881  0.83078559  0.50076567  1
  In  In75  1  0.83392984  0.49913010  0.75197672  1
  In  In76  1  -0.00048857  -0.00196581  0.25113272  1
  In  In77  1  0.66863401  0.66535382  0.75179853  1
  In  In78  1  0.49773187  0.49957692  0.74978832  1
  In  In79  1  0.16771498  0.49678469  0.49805171  1
  In  In80  1  -0.00103839  0.66403016  0.50141773  1
  In  In81  1  0.33543628  0.33218406  0.75161482  1
  In  In82  1  0.16859030  0.82909336  0.74840970  1
  In  In83  1  0.00101426  0.66588187  0.75080769  1
  In  In84  1  0.49704124  0.83520216  0.00212337  1
  In  In85  1  0.83737720  0.50328347  0.24695468  1
  In  In86  1  0.33276035  0.33300340  0.25231214  1
  In  In87  1  0.66692486  0.66660990  -0.00116746  1
  In  In88  1  0.49776219  0.16675362  0.50105304  1
  In  In89  1  0.50013675  0.82943742  0.49416520  1
  In  In90  1  0.33394264  0.66568277  0.24946871  1
  In  In91  1  0.66446064  0.00049486  0.49715883  1
  In  In92  1  0.66278461  -0.00166879  0.74887852  1
  In  In93  1  0.83424313  0.16670310  0.24996608  1
  In  In94  1  -0.00001829  0.32810835  0.49938125  1
  In  In95  1  0.83125219  0.16888335  0.49926362  1
  In  In96  1  0.66572979  0.67073311  0.24794957  1
  In  In97  1  0.33172343  0.00008185  0.74880585  1
  In  In98  1  0.49809480  0.83445156  0.75076126  1
  In  In99  1  0.49989654  0.49975168  -0.00123590  1
  In  In100  1  0.16531785  0.16708602  0.25231258  1
  In  In101  1  0.16858064  0.49684298  0.75199352  1
  In  In102  1  0.83193316  0.16955811  0.75153522  1
  In  In103  1  0.66570742  0.33519741  0.24746337  1
  In  In104  1  0.16707612  0.16645908  0.75076691  1
  In  In105  1  0.33655988  0.33118960  0.00224562  1
  In  In106  1  0.83303435  0.16706164  0.00283691  1
  In  In107  1  0.00265179  0.33233476  0.00102205  1
  Ir  Ir108  1  0.32900752  0.00058192  0.49340753  1
  Ir  Ir109  1  0.00203357  -0.00280733  0.75004418  1
  Ir  Ir110  1  0.16648008  0.16670503  0.49899379  1
  Ir  Ir111  1  0.00362126  -0.00138282  0.50183716  1
  Ir  Ir112  1  0.16766489  0.16594499  -0.00036288  1
  Ir  Ir113  1  0.16168835  0.49830085  0.25100767  1
  Ir  Ir114  1  0.16773460  0.83459070  0.24942768  1
  Ir  Ir115  1  0.66323476  0.00169561  0.24427890  1
  Ir  Ir116  1  0.00283060  -0.00223924  -0.00491908  1
  Ir  Ir117  1  0.33307879  0.33360214  0.49709150  1
  Ir  Ir118  1  0.83473724  0.84213885  -0.00278672  1
  Ir  Ir119  1  0.00543408  0.66802893  0.24907340  1
  Ir  Ir120  1  0.00375387  0.67183535  -0.00099814  1
  Ir  Ir121  1  0.50180220  0.16294234  0.00094858  1
  Ir  Ir122  1  0.83508780  0.50169118  -0.00199537  1
  Ir  Ir123  1  0.33594971  0.66171198  0.50130527  1
  Ir  Ir124  1  0.67014915  0.66320482  0.49877654  1
  Ir  Ir125  1  0.50047181  0.49773949  0.49854687  1
  Ir  Ir126  1  0.66169174  0.33324369  0.74768089  1
  Ir  Ir127  1  0.83590511  0.83430940  0.50059661  1
  Ir  Ir128  1  0.66315536  0.00207997  0.00555123  1
  Ir  Ir129  1  0.50043794  0.49728668  0.25153080  1
  Ir  Ir130  1  0.16589227  0.83483704  -0.00011564  1
  Ir  Ir131  1  0.32765108  0.66805409  -0.00129023  1
  Ir  Ir132  1  0.33564164  -0.00186621  0.25070534  1
  Ir  Ir133  1  0.49896449  0.16777636  0.75483277  1
  Ir  Ir134  1  0.00395250  0.33560819  0.25005889  1
  Ir  Ir135  1  0.83609161  0.83649446  0.75188008  1
  Ir  Ir136  1  0.33074102  0.66536518  0.75139095  1
  Ir  Ir137  1  0.83146129  0.49527342  0.49857979  1
  Ir  Ir138  1  0.16507227  0.50161597  0.00081160  1
  Ir  Ir139  1  0.50174475  0.16410334  0.24654449  1
  Ir  Ir140  1  0.00134761  0.33367474  0.75126999  1
  Ir  Ir141  1  0.33034455  0.00146300  0.00581601  1
  Ir  Ir142  1  0.66232451  0.33722781  0.50376592  1
  Ir  Ir143  1  0.50196538  0.83846732  0.24586792  1
  O  O144  1  0.29914714  0.33021319  0.12662394  1
  O  O145  1  0.29843581  0.32820852  0.61758238  1
  O  O146  1  0.31127714  0.66562017  0.11954803  1
  O  O147  1  0.30990895  0.66782937  0.62760644  1
  O  O148  1  0.31169881  0.99037970  0.12901483  1
  O  O149  1  0.31380128  0.99059012  0.61476704  1
  O  O150  1  0.62821441  0.32377942  0.12255155  1
  O  O151  1  0.63073505  0.33395765  0.62630694  1
  O  O152  1  0.64663801  0.65131183  0.12313025  1
  O  O153  1  0.65386199  0.65737853  0.61933669  1
  O  O154  1  0.63013908  0.98811174  0.12542854  1
  O  O155  1  0.62826970  0.99544891  0.62365518  1
  O  O156  1  0.97050469  0.33109328  0.13096670  1
  O  O157  1  0.96911782  0.32975667  0.63117283  1
  O  O158  1  0.98393543  0.66987135  0.12268882  1
  O  O159  1  0.97798935  0.65705406  0.62627976  1
  O  O160  1  0.97490152  0.99616134  0.11847284  1
  O  O161  1  0.97770428  0.98546282  0.62660821  1
  O  O162  1  0.18334991  0.16193638  0.12019039  1
  O  O163  1  0.18948088  0.16511169  0.61956233  1
  O  O164  1  0.18735741  0.48794841  0.12670412  1
  O  O165  1  0.18776979  0.47870690  0.62584848  1
  O  O166  1  0.19731174  0.83627354  0.12489491  1
  O  O167  1  0.20649682  0.83244836  0.62363972  1
  O  O168  1  0.53177563  0.14974725  0.12377619  1
  O  O169  1  0.51333338  0.14489669  0.63392101  1
  O  O170  1  0.53471389  0.48885725  0.13153979  1
  O  O171  1  0.53253953  0.49083469  0.61868137  1
  O  O172  1  0.53234821  0.83760982  0.12870686  1
  O  O173  1  0.50929372  0.84332821  0.62098732  1
  O  O174  1  0.85645514  0.14406553  0.12689842  1
  O  O175  1  0.84816709  0.17810075  0.62562489  1
  O  O176  1  0.85756478  0.49109590  0.11743801  1
  O  O177  1  0.84701198  0.48450767  0.61979188  1
  O  O178  1  0.85407013  0.84979263  0.11771199  1
  O  O179  1  0.86667530  0.83428783  0.62832535  1
  O  O180  1  0.13275646  0.17989565  0.38190267  1
  O  O181  1  0.14642044  0.17978226  0.88139671  1
  O  O182  1  0.13045987  0.49859011  0.36824070  1
  O  O183  1  0.13573223  0.50891133  0.88265849  1
  O  O184  1  0.13911573  0.83941115  0.37095281  1
  O  O185  1  0.13927393  0.84057691  0.87960566  1
  O  O186  1  0.48338649  0.18366269  0.36746917  1
  O  O187  1  0.46834669  0.18086283  0.87912413  1
  O  O188  1  0.46875907  0.49784872  0.37462626  1
  O  O189  1  0.46342341  0.50137066  0.87413472  1
  O  O190  1  0.47869803  0.84415085  0.36482110  1
  O  O191  1  0.47608093  0.83642607  0.87738546  1
  O  O192  1  0.81082504  0.17164234  0.37333373  1
  O  O193  1  0.80149036  0.16965497  0.87811224  1
  O  O194  1  0.81890950  0.49559944  0.37784955  1
  O  O195  1  0.79980271  0.49814945  0.88056944  1
  O  O196  1  0.81592110  0.84272939  0.37936102  1
  O  O197  1  0.80331161  0.83892524  0.87439054  1
  O  O198  1  0.03288678  0.00688785  0.38352529  1
  O  O199  1  0.03416440  -0.00250701  0.87236100  1
  O  O200  1  0.03239915  0.34799173  0.36947309  1
  O  O201  1  0.03373593  0.34444202  0.87182634  1
  O  O202  1  0.01806881  0.67890034  0.37005724  1
  O  O203  1  0.03049828  0.68261023  0.88038529  1
  O  O204  1  0.36479276  0.00033648  0.37155826  1
  O  O205  1  0.34711035  0.00668254  0.88541793  1
  O  O206  1  0.36898404  0.34406751  0.37849618  1
  O  O207  1  0.37027200  0.34903241  0.87864559  1
  O  O208  1  0.35431579  0.65893609  0.38004993  1
  O  O209  1  0.35206604  0.66355384  0.87485744  1
  O  O210  1  0.69832554  0.00287337  0.36214829  1
  O  O211  1  0.68356593  0.01409941  0.88654206  1
  O  O212  1  0.67993259  0.33494985  0.38099289  1
  O  O213  1  0.68690909  0.33892948  0.86759729  1
  O  O214  1  0.68406917  0.66480509  0.37800122  1
  O  O215  1  0.68805587  0.68636456  0.87623453  1
  O  O216  1  0.07328306  0.09301319  0.01611181  1
  O  O217  1  0.07017223  0.09729687  0.51769962  1
  O  O218  1  0.07961637  0.42618232  0.01911231  1
  O  O219  1  0.08237677  0.41221055  0.51915981  1
  O  O220  1  0.07011477  0.76876925  0.01376912  1
  O  O221  1  0.06710671  0.76726043  0.51888865  1
  O  O222  1  0.40325112  0.09515941  0.02061472  1
  O  O223  1  0.40463108  0.08414494  0.51649192  1
  O  O224  1  0.41432724  0.42018837  0.03356186  1
  O  O225  1  0.40733399  0.42496914  0.52134982  1
  O  O226  1  0.39194367  0.76422985  0.02428241  1
  O  O227  1  0.40181352  0.75737097  0.51945130  1
  O  O228  1  0.72600646  0.09707238  0.02662820  1
  O  O229  1  0.73927079  0.09166209  0.51577985  1
  O  O230  1  0.74233014  0.43172328  0.02300653  1
  O  O231  1  0.73304168  0.42912903  0.52703213  1
  O  O232  1  0.74052169  0.77614503  0.02087222  1
  O  O233  1  0.74197398  0.75972232  0.51681253  1
  O  O234  1  0.10852119  0.26630828  0.01930839  1
  O  O235  1  0.10331493  0.25930176  0.52323838  1
  O  O236  1  0.09855689  0.60118383  0.01291489  1
  O  O237  1  0.09300980  0.58900311  0.50980505  1
  O  O238  1  0.09983721  0.93204283  0.00970704  1
  O  O239  1  0.08865825  0.92598818  0.51981706  1
  O  O240  1  0.44274082  0.26041325  0.02359525  1
  O  O241  1  0.42574606  0.26538651  0.52225039  1
  O  O242  1  0.41909040  0.59798255  0.01360434  1
  O  O243  1  0.43079073  0.59101521  0.51682589  1
  O  O244  1  0.42204074  0.93117403  0.03233916  1
  O  O245  1  0.41675667  0.92642781  0.51243691  1
  O  O246  1  0.76118590  0.26484514  0.03400627  1
  O  O247  1  0.75841974  0.27518716  0.52365653  1
  O  O248  1  0.76436642  0.58845801  0.02069740  1
  O  O249  1  0.75991559  0.58569701  0.51990827  1
  O  O250  1  0.76260480  0.93822513  0.02488295  1
  O  O251  1  0.76362633  0.92293440  0.51180235  1
  O  O252  1  0.24049000  0.06522901  0.27421038  1
  O  O253  1  0.23888145  0.07310050  0.77968520  1
  O  O254  1  0.23043219  0.40727651  0.27459019  1
  O  O255  1  0.24152015  0.40551558  0.78892178  1
  O  O256  1  0.24019832  0.74555537  0.26374100  1
  O  O257  1  0.23411314  0.72576220  0.77543434  1
  O  O258  1  0.56416019  0.06457862  0.26814823  1
  O  O259  1  0.57099302  0.08356022  0.78040329  1
  O  O260  1  0.56228732  0.39989217  0.27160749  1
  O  O261  1  0.56888861  0.39592260  0.77371358  1
  O  O262  1  0.56798286  0.74681833  0.26528701  1
  O  O263  1  0.57604469  0.74170654  0.75937402  1
  O  O264  1  0.89998208  0.06451390  0.27998883  1
  O  O265  1  0.91473960  0.07175106  0.76153710  1
  O  O266  1  0.91379074  0.40626367  0.26785574  1
  O  O267  1  0.91170110  0.40528970  0.76984425  1
  O  O268  1  0.91557774  0.74042914  0.26260604  1
  O  O269  1  0.90903634  0.75112288  0.77434635  1
  O  O270  1  0.25499192  0.24415708  0.27796643  1
  O  O271  1  0.26539827  0.23758632  0.78282056  1
  O  O272  1  0.25826678  0.56355216  0.27366051  1
  O  O273  1  0.26956221  0.56824557  0.77658052  1
  O  O274  1  0.26211758  0.90584179  0.26954724  1
  O  O275  1  0.25264902  0.91166818  0.77474914  1
  O  O276  1  0.59342423  0.23241172  0.25739020  1
  O  O277  1  0.59634106  0.23621289  0.77687490  1
  O  O278  1  0.58938119  0.56661318  0.26375027  1
  O  O279  1  0.60054417  0.56109846  0.77093090  1
  O  O280  1  0.59384954  0.90962575  0.27006132  1
  O  O281  1  0.59944689  0.90234392  0.78025290  1
  O  O282  1  0.94239142  0.23990566  0.27533951  1
  O  O283  1  0.93064419  0.24678324  0.77278247  1
  O  O284  1  0.93924055  0.57329240  0.27009136  1
  O  O285  1  0.93223053  0.56720075  0.78018664  1
  O  O286  1  0.92839140  0.90479205  0.28325028  1
  O  O287  1  0.93415787  0.90267595  0.77287345  1
  O  O288  1  0.25549402  0.24353052  0.47035609  1
  O  O289  1  0.26270135  0.23333243  0.97506814  1
  O  O290  1  0.27022951  0.56639307  0.47903437  1
  O  O291  1  0.25846606  0.57207187  0.97281438  1
  O  O292  1  0.25299290  0.91692928  0.46918301  1
  O  O293  1  0.25852427  0.90764247  0.98361690  1
  O  O294  1  0.59038823  0.24851253  0.48691578  1
  O  O295  1  0.59849436  0.22445450  0.97694129  1
  O  O296  1  0.59942549  0.56684503  0.48713739  1
  O  O297  1  0.60280839  0.56154274  0.97558354  1
  O  O298  1  0.58230893  0.91515103  0.47190273  1
  O  O299  1  0.60586491  0.90458645  0.98451009  1
  O  O300  1  0.93549840  0.23162796  0.47358444  1
  O  O301  1  0.92683452  0.24225623  0.98657708  1
  O  O302  1  0.92497227  0.56333670  0.47457096  1
  O  O303  1  0.93412488  0.57259183  0.97338044  1
  O  O304  1  0.93303455  0.90397120  0.47577689  1
  O  O305  1  0.93492405  0.90494453  0.97139531  1
  O  O306  1  0.23318478  0.07134389  0.47004951  1
  O  O307  1  0.23556484  0.07074988  0.97401135  1
  O  O308  1  0.24698341  0.40444907  0.46290621  1
  O  O309  1  0.23552828  0.40921694  0.97703984  1
  O  O310  1  0.24643969  0.73265321  0.48502733  1
  O  O311  1  0.22979115  0.73566795  0.97752798  1
  O  O312  1  0.56345121  0.07042804  0.47071912  1
  O  O313  1  0.56498795  0.06365404  0.98972683  1
  O  O314  1  0.56255445  0.39965678  0.48016980  1
  O  O315  1  0.57124032  0.40072888  0.96647942  1
  O  O316  1  0.58154068  0.73686558  0.48723698  1
  O  O317  1  0.57600819  0.74611510  0.98518227  1
  O  O318  1  0.91110828  0.06560288  0.47626786  1
  O  O319  1  0.90911186  0.06402490  0.98572089  1
  O  O320  1  0.90571797  0.40850785  0.48364680  1
  O  O321  1  0.91159632  0.41703926  0.97844842  1
  O  O322  1  0.90827019  0.74791439  0.48015348  1
  O  O323  1  0.90992280  0.74859454  0.97515949  1
  O  O324  1  0.09988275  0.27425913  0.22936482  1
  O  O325  1  0.09794272  0.26824988  0.73175538  1
  O  O326  1  0.09670162  0.59414480  0.23218216  1
  O  O327  1  0.10207678  0.59662701  0.74934384  1
  O  O328  1  0.09932345  0.92610879  0.23975280  1
  O  O329  1  0.08755027  0.92551182  0.73322532  1
  O  O330  1  0.43597862  0.26039561  0.22617650  1
  O  O331  1  0.43906073  0.26204889  0.72793102  1
  O  O332  1  0.43005416  0.58828950  0.23469376  1
  O  O333  1  0.42365575  0.60025395  0.73398908  1
  O  O334  1  0.43158933  0.93103937  0.22284077  1
  O  O335  1  0.42862212  0.93517801  0.72288790  1
  O  O336  1  0.76439174  0.26490682  0.21784525  1
  O  O337  1  0.75730874  0.27273281  0.72708835  1
  O  O338  1  0.75918920  0.59234265  0.22995148  1
  O  O339  1  0.75841633  0.58799111  0.72885337  1
  O  O340  1  0.75760607  0.93730348  0.21990682  1
  O  O341  1  0.76379829  0.92219278  0.73290744  1
  O  O342  1  0.06807419  0.09730059  0.24730841  1
  O  O343  1  0.07275424  0.08732975  0.73605209  1
  O  O344  1  0.07064381  0.42837979  0.22483229  1
  O  O345  1  0.07133228  0.42059787  0.73235838  1
  O  O346  1  0.07235828  0.76693298  0.23757352  1
  O  O347  1  0.06693685  0.76830034  0.72472572  1
  O  O348  1  0.40943462  0.08943440  0.22732318  1
  O  O349  1  0.40263756  0.10380200  0.75186021  1
  O  O350  1  0.41019317  0.42746114  0.23288233  1
  O  O351  1  0.41267290  0.41922483  0.71614287  1
  O  O352  1  0.40708170  0.77122305  0.22490841  1
  O  O353  1  0.39140705  0.76389948  0.72903617  1
  O  O354  1  0.72594497  0.09402007  0.21849037  1
  O  O355  1  0.73621090  0.09324925  0.74250991  1
  O  O356  1  0.74068834  0.42753525  0.21822833  1
  O  O357  1  0.72758592  0.42681016  0.72664401  1
  O  O358  1  0.73541283  0.77050726  0.22477184  1
  O  O359  1  0.74810976  0.76549073  0.73674453  1
