# generated using pymatgen
data_BaLaInIrO6
_symmetry_space_group_name_H-M   'P 1'
_cell_length_a   17.52491756
_cell_length_b   17.55263657
_cell_length_c   16.48068879
_cell_angle_alpha   90.00734315
_cell_angle_beta   89.98380701
_cell_angle_gamma   89.99052928
_symmetry_Int_Tables_number   1
_chemical_formula_structural   BaLaInIrO6
_chemical_formula_sum   'Ba36 La36 In36 Ir36 O216'
_cell_volume   5069.59979015
_cell_formula_units_Z   36
loop_
 _symmetry_equiv_pos_site_id
 _symmetry_equiv_pos_as_xyz
  1  'x, y, z'
loop_
 _atom_site_type_symbol
 _atom_site_label
 _atom_site_symmetry_multiplicity
 _atom_site_fract_x
 _atom_site_fract_y
 _atom_site_fract_z
 _atom_site_occupancy
  Ba  Ba0  1  0.17006516  0.65072934  0.37657029  1
  Ba  Ba1  1  0.66735167  0.84206867  0.62794872  1
  Ba  Ba2  1  0.33184297  0.17441829  0.12820651  1
  Ba  Ba3  1  0.33437800  0.84273310  0.62346374  1
  Ba  Ba4  1  0.83537041  0.66045423  0.87561839  1
  Ba  Ba5  1  0.66981662  0.82368661  0.87710928  1
  Ba  Ba6  1  0.33390871  0.17857093  0.62363799  1
  Ba  Ba7  1  0.16517850  0.34256559  0.62405387  1
  Ba  Ba8  1  0.16124748  0.01318468  0.12565990  1
  Ba  Ba9  1  0.83662671  0.98815241  0.87455850  1
  Ba  Ba10  1  -0.00475881  0.49113516  0.37116797  1
  Ba  Ba11  1  -0.00668200  0.82461938  0.88016072  1
  Ba  Ba12  1  1.00038834  0.17603847  0.62604016  1
  Ba  Ba13  1  0.66674115  0.48839722  0.87835674  1
  Ba  Ba14  1  -0.00198604  0.15870168  0.87081490  1
  Ba  Ba15  1  0.83202893  0.67804319  0.62637168  1
  Ba  Ba16  1  0.50028248  0.33992916  0.12733557  1
  Ba  Ba17  1  0.33256325  0.49106380  0.37257018  1
  Ba  Ba18  1  0.16898615  0.32576689  0.87660380  1
  Ba  Ba19  1  0.83577913  0.67293686  0.12785785  1
  Ba  Ba20  1  0.33248823  0.16022175  0.37202195  1
  Ba  Ba21  1  0.16674603  0.67192391  0.63033162  1
  Ba  Ba22  1  0.66648055  0.49275015  0.37463431  1
  Ba  Ba23  1  -0.00256239  0.15274826  0.37581837  1
  Ba  Ba24  1  0.66780411  0.51148935  0.62692686  1
  Ba  Ba25  1  0.50359028  0.32755035  0.37558319  1
  Ba  Ba26  1  0.50495568  0.32670775  0.87700091  1
  Ba  Ba27  1  0.32910928  0.82143702  0.37213097  1
  Ba  Ba28  1  0.83947422  0.32291155  0.37226776  1
  Ba  Ba29  1  0.33349241  0.48918522  0.87908414  1
  Ba  Ba30  1  0.66497360  0.82518737  0.37293267  1
  Ba  Ba31  1  0.83420900  0.32737290  0.87408617  1
  Ba  Ba32  1  0.99927689  0.50966284  0.12308994  1
  Ba  Ba33  1  0.83745149  0.00897695  0.12407725  1
  Ba  Ba34  1  0.49837305  0.99220940  0.37262067  1
  Ba  Ba35  1  0.33037031  0.84281703  0.12373729  1
  La  La36  1  0.66403918  0.15440363  0.37337981  1
  La  La37  1  0.83781603  0.65357928  0.37947717  1
  La  La38  1  0.16613227  0.64454814  0.88021980  1
  La  La39  1  0.67297914  0.18208868  0.62386713  1
  La  La40  1  0.15685107  0.67999586  0.12721301  1
  La  La41  1  0.67119553  0.18242780  0.12495309  1
  La  La42  1  0.32795673  0.15729000  0.87912868  1
  La  La43  1  0.50739259  0.65131197  0.87123225  1
  La  La44  1  0.50320622  0.98901718  0.87356531  1
  La  La45  1  0.16034696  0.01105441  0.62022133  1
  La  La46  1  0.33335199  0.50217614  0.61900400  1
  La  La47  1  0.16361043  0.34944211  0.12449409  1
  La  La48  1  -0.00271192  0.81920378  0.37652227  1
  La  La49  1  0.67217342  0.51257529  0.12222477  1
  La  La50  1  0.66296241  0.15513869  0.87536048  1
  La  La51  1  0.33106678  0.50903445  0.12654552  1
  La  La52  1  0.49881450  0.67547184  0.61931406  1
  La  La53  1  0.49326530  0.01640391  0.12233830  1
  La  La54  1  0.49568259  0.67443499  0.12265220  1
  La  La55  1  1.00467867  0.18388327  0.12279641  1
  La  La56  1  0.83268562  0.00941607  0.62921723  1
  La  La57  1  1.00164734  0.50807792  0.62399860  1
  La  La58  1  0.49646582  0.01671540  0.62203243  1
  La  La59  1  1.00530328  0.84616915  0.63188999  1
  La  La60  1  0.16973540  0.98593965  0.87334301  1
  La  La61  1  0.66992986  0.84614456  0.13011677  1
  La  La62  1  0.17553383  0.98453758  0.37092138  1
  La  La63  1  1.00570162  0.84989641  0.12436398  1
  La  La64  1  0.49837984  0.35209119  0.62644022  1
  La  La65  1  0.83804949  0.98452348  0.37324329  1
  La  La66  1  0.83091394  0.34906194  0.62581076  1
  La  La67  1  0.32686306  0.81346050  0.87167563  1
  La  La68  1  0.50306023  0.66240905  0.37574891  1
  La  La69  1  -0.00824995  0.49054625  0.87335129  1
  La  La70  1  0.16995598  0.32284630  0.37638504  1
  La  La71  1  0.83047015  0.34716349  0.12012625  1
  In  In72  1  0.83099770  0.16659198  0.74997497  1
  In  In73  1  0.83282145  0.16374484  0.49731213  1
  In  In74  1  0.33600312  0.33469731  0.75264252  1
  In  In75  1  0.33315356  0.00080161  0.24557585  1
  In  In76  1  0.33046085  0.00096757  0.49964031  1
  In  In77  1  0.16284190  0.82947303  0.50141696  1
  In  In78  1  0.67008039  0.67017557  0.49911183  1
  In  In79  1  0.50167367  0.83256923  0.24540566  1
  In  In80  1  0.00114504  0.66679785  0.25165663  1
  In  In81  1  0.66987011  0.00014683  0.50160354  1
  In  In82  1  0.49713167  0.83403365  0.75082446  1
  In  In83  1  0.33379686  0.66127201  0.75293984  1
  In  In84  1  0.16848242  0.16460739  0.75253056  1
  In  In85  1  0.83312191  0.16828075  -0.00008335  1
  In  In86  1  0.50011270  0.83489432  0.49985673  1
  In  In87  1  0.00031876  0.33413991  0.75061773  1
  In  In88  1  0.83378051  0.82985719  0.00593403  1
  In  In89  1  -0.00125374  0.33343934  0.49790878  1
  In  In90  1  0.33509726  0.33290657  0.49872686  1
  In  In91  1  0.33268881  -0.00064470  -0.00207115  1
  In  In92  1  0.83215580  0.50013839  0.50154447  1
  In  In93  1  0.33185735  0.66395923  0.50072339  1
  In  In94  1  0.49952076  0.49689139  0.00353725  1
  In  In95  1  0.66439702  0.00197958  0.00062575  1
  In  In96  1  0.50172240  0.17159177  0.74867950  1
  In  In97  1  0.33111117  0.66492741  0.00322827  1
  In  In98  1  0.33465214  0.00134086  0.74875908  1
  In  In99  1  0.50310312  0.17105239  0.25019335  1
  In  In100  1  0.83172613  0.49918942  0.24768731  1
  In  In101  1  0.00207694  0.00238620  -0.00193893  1
  In  In102  1  0.50258068  0.50164712  0.49717130  1
  In  In103  1  -0.00025359  0.66829209  0.75157220  1
  In  In104  1  0.49937300  0.83373155  -0.00044828  1
  In  In105  1  0.66994906  0.00232088  0.24864008  1
  In  In106  1  0.50049477  0.49984934  0.24671755  1
  In  In107  1  0.16460785  0.16569698  0.49675572  1
  Ir  Ir108  1  0.83631253  0.83272216  0.25498310  1
  Ir  Ir109  1  -0.00043196  0.66686178  0.50223756  1
  Ir  Ir110  1  0.66849727  0.33198007  0.00098845  1
  Ir  Ir111  1  0.00161770  0.33763561  0.00232697  1
  Ir  Ir112  1  0.00047943  -0.00105857  0.25601131  1
  Ir  Ir113  1  0.16708146  0.49686510  0.24893486  1
  Ir  Ir114  1  0.66710827  0.33356356  0.74776295  1
  Ir  Ir115  1  0.32763335  0.66344099  0.24396441  1
  Ir  Ir116  1  0.16350190  0.49966043  0.49956051  1
  Ir  Ir117  1  0.83378026  0.83405256  0.74691814  1
  Ir  Ir118  1  0.00081016  -0.00575173  0.74604870  1
  Ir  Ir119  1  0.67265162  0.33160306  0.24966329  1
  Ir  Ir120  1  0.66630007  0.66539456  0.75566991  1
  Ir  Ir121  1  0.50460350  0.50332381  0.74945352  1
  Ir  Ir122  1  0.50761904  0.16990690  0.50077694  1
  Ir  Ir123  1  0.16478872  0.17007643  0.00277991  1
  Ir  Ir124  1  0.83404717  0.50056504  -0.00201098  1
  Ir  Ir125  1  0.16117434  0.83239404  0.24641138  1
  Ir  Ir126  1  0.32707299  0.33354381  0.24611387  1
  Ir  Ir127  1  0.00392657  0.66512916  0.00078040  1
  Ir  Ir128  1  0.66741561  0.33082198  0.50207910  1
  Ir  Ir129  1  0.84030371  0.83497275  0.50050066  1
  Ir  Ir130  1  0.49880310  0.17106641  -0.00288060  1
  Ir  Ir131  1  0.16005408  0.17071898  0.24547437  1
  Ir  Ir132  1  0.66429561  0.00187523  0.75108986  1
  Ir  Ir133  1  -0.00159116  -0.00727907  0.49966749  1
  Ir  Ir134  1  0.83672600  0.16912305  0.24677238  1
  Ir  Ir135  1  0.66359760  0.66431812  0.00072238  1
  Ir  Ir136  1  0.16484879  0.83289698  0.75605561  1
  Ir  Ir137  1  0.33050654  0.33060763  0.00515718  1
  Ir  Ir138  1  0.16409883  0.50042812  0.75155082  1
  Ir  Ir139  1  0.83276802  0.50110644  0.75373918  1
  Ir  Ir140  1  0.00211251  0.33250237  0.24441072  1
  Ir  Ir141  1  0.16466142  0.49716657  0.00143498  1
  Ir  Ir142  1  0.66707603  0.66766998  0.24507422  1
  Ir  Ir143  1  0.16399385  0.83006801  -0.00429362  1
  O  O144  1  0.29939205  0.32981662  0.12575051  1
  O  O145  1  0.31648048  0.34495371  0.62635626  1
  O  O146  1  0.29073670  0.65488141  0.12711681  1
  O  O147  1  0.31363344  0.64016836  0.63078853  1
  O  O148  1  0.30819630  1.00522832  0.12143595  1
  O  O149  1  0.29472804  1.00151652  0.62532247  1
  O  O150  1  0.64835681  0.31900609  0.12650281  1
  O  O151  1  0.63482795  0.32284513  0.62429398  1
  O  O152  1  0.63284271  0.65797654  0.12272093  1
  O  O153  1  0.63997969  0.66862063  0.63514441  1
  O  O154  1  0.63051103  0.99382999  0.12432564  1
  O  O155  1  0.63450846  0.99782441  0.63279140  1
  O  O156  1  0.96921346  0.32621797  0.12293804  1
  O  O157  1  0.96884607  0.34184150  0.62607767  1
  O  O158  1  0.98880718  0.66511662  0.12046898  1
  O  O159  1  0.98233153  0.65049753  0.62288889  1
  O  O160  1  0.98547263  0.99086629  0.13473463  1
  O  O161  1  0.96731985  0.98507618  0.62194624  1
  O  O162  1  0.18172937  0.16896199  0.12405059  1
  O  O163  1  0.18354076  0.14842577  0.62473971  1
  O  O164  1  0.19598507  0.49202977  0.12569101  1
  O  O165  1  0.19493835  0.50036842  0.62667589  1
  O  O166  1  0.18347586  0.81619946  0.12029088  1
  O  O167  1  0.18310245  0.83073018  0.63719869  1
  O  O168  1  0.53294637  0.16295899  0.11718904  1
  O  O169  1  0.53766549  0.15851863  0.61985174  1
  O  O170  1  0.53636226  0.49884301  0.12643471  1
  O  O171  1  0.51959864  0.49454166  0.63020845  1
  O  O172  1  0.53849700  0.81054045  0.12181633  1
  O  O173  1  0.52098130  0.80949381  0.62841739  1
  O  O174  1  0.86815540  0.16825859  0.12908036  1
  O  O175  1  0.85164507  0.14613402  0.62497569  1
  O  O176  1  0.85042021  0.49230417  0.11756387  1
  O  O177  1  0.86088228  0.49447257  0.63352505  1
  O  O178  1  0.86959381  0.82705978  0.13777136  1
  O  O179  1  0.86769028  0.83389311  0.62201711  1
  O  O180  1  0.14254545  0.18399800  0.36323555  1
  O  O181  1  0.14567375  0.17208331  0.88543822  1
  O  O182  1  0.14049084  0.49586941  0.37552149  1
  O  O183  1  0.13143845  0.50361775  0.87690640  1
  O  O184  1  0.13325326  0.84173643  0.36746320  1
  O  O185  1  0.13977129  0.84691460  0.87537616  1
  O  O186  1  0.48461130  0.17626731  0.38210744  1
  O  O187  1  0.46642246  0.17557572  0.87875246  1
  O  O188  1  0.48296425  0.51658055  0.36923025  1
  O  O189  1  0.48505960  0.50883717  0.87250327  1
  O  O190  1  0.47832930  0.82677396  0.37047499  1
  O  O191  1  0.46027680  0.84843206  0.87519205  1
  O  O192  1  0.80291102  0.16824790  0.36581933  1
  O  O193  1  0.79840078  0.16957572  0.87407084  1
  O  O194  1  0.81650826  0.51234824  0.37276625  1
  O  O195  1  0.81405420  0.50295090  0.87647064  1
  O  O196  1  0.81362055  0.84662334  0.37845885  1
  O  O197  1  0.82086303  0.83368783  0.87051267  1
  O  O198  1  0.03319044  -0.00482752  0.37897855  1
  O  O199  1  0.03111477  -0.00210017  0.86728596  1
  O  O200  1  0.03197613  0.33757925  0.36334842  1
  O  O201  1  0.02095244  0.35219293  0.88175904  1
  O  O202  1  0.02128322  0.67890180  0.38135079  1
  O  O203  1  0.02896369  0.66578794  0.88075129  1
  O  O204  1  0.34555588  -0.00074161  0.37143297  1
  O  O205  1  0.36678887  0.01742119  0.87600683  1
  O  O206  1  0.34856884  0.33671380  0.36572892  1
  O  O207  1  0.35185782  0.33509420  0.88518772  1
  O  O208  1  0.36086705  0.66295175  0.36370932  1
  O  O209  1  0.36565572  0.66809147  0.87866317  1
  O  O210  1  0.70531089  0.01465721  0.37401192  1
  O  O211  1  0.69042827  0.01530187  0.86989621  1
  O  O212  1  0.69339844  0.33679509  0.37730279  1
  O  O213  1  0.68787620  0.33540919  0.87428452  1
  O  O214  1  0.70315977  0.67004910  0.36228226  1
  O  O215  1  0.68942226  0.66325188  0.87945238  1
  O  O216  1  0.07013226  0.10448860  0.02256229  1
  O  O217  1  0.06579887  0.08195540  0.52047791  1
  O  O218  1  0.07696709  0.42406843  0.02634211  1
  O  O219  1  0.06989893  0.43757106  0.52208311  1
  O  O220  1  0.07034926  0.76099645  0.02631792  1
  O  O221  1  0.05952405  0.76401344  0.52292803  1
  O  O222  1  0.41278366  0.10090668  0.01940345  1
  O  O223  1  0.41764633  0.09915427  0.51934473  1
  O  O224  1  0.39610756  0.42543802  0.02682401  1
  O  O225  1  0.40743655  0.42833047  0.51913601  1
  O  O226  1  0.40863431  0.75472927  0.02495632  1
  O  O227  1  0.41040393  0.75273142  0.52126102  1
  O  O228  1  0.73017883  0.10303347  0.02250053  1
  O  O229  1  0.73337470  0.09936836  0.52478487  1
  O  O230  1  0.73991092  0.42688161  0.02706180  1
  O  O231  1  0.73920028  0.41844720  0.52616280  1
  O  O232  1  0.73268431  0.75486010  0.02628350  1
  O  O233  1  0.74829637  0.76850051  0.51551320  1
  O  O234  1  0.09335628  0.26562085  0.03047592  1
  O  O235  1  0.09470376  0.26265657  0.50822729  1
  O  O236  1  0.10432461  0.59980838  0.01717228  1
  O  O237  1  0.09035629  0.59293807  0.52314761  1
  O  O238  1  0.09516347  0.92077110  0.01729933  1
  O  O239  1  0.08755451  0.92599187  0.53083852  1
  O  O240  1  0.42586627  0.26319438  0.02084229  1
  O  O241  1  0.44215455  0.26353846  0.52487660  1
  O  O242  1  0.42127072  0.58663498  0.03389064  1
  O  O243  1  0.42834955  0.59322179  0.52534611  1
  O  O244  1  0.43270290  0.93516617  0.02746141  1
  O  O245  1  0.43017538  0.93456265  0.52664709  1
  O  O246  1  0.76139439  0.26644191  0.02650674  1
  O  O247  1  0.75857426  0.26439386  0.52968611  1
  O  O248  1  0.75339049  0.58728297  0.02662716  1
  O  O249  1  0.76437504  0.59816799  0.50970385  1
  O  O250  1  0.75135710  0.91693441  0.02625926  1
  O  O251  1  0.77929533  0.93265640  0.51941429  1
  O  O252  1  0.22610415  0.07779974  0.26940702  1
  O  O253  1  0.23778728  0.06901608  0.78596645  1
  O  O254  1  0.22875591  0.39770053  0.26515302  1
  O  O255  1  0.23751676  0.41458846  0.76653519  1
  O  O256  1  0.23251422  0.73643240  0.26322560  1
  O  O257  1  0.22900471  0.73903193  0.78491404  1
  O  O258  1  0.58366603  0.08297683  0.27647846  1
  O  O259  1  0.57391141  0.07080832  0.77775772  1
  O  O260  1  0.58267321  0.40241958  0.26509338  1
  O  O261  1  0.57023542  0.40354501  0.75925603  1
  O  O262  1  0.57388985  0.72952651  0.26998098  1
  O  O263  1  0.57336878  0.73183876  0.77854149  1
  O  O264  1  0.90217734  0.06732221  0.27530325  1
  O  O265  1  0.90885078  0.06297718  0.76028054  1
  O  O266  1  0.91128995  0.40277569  0.25624421  1
  O  O267  1  0.90682840  0.41725467  0.77117215  1
  O  O268  1  0.90372307  0.74354244  0.28407004  1
  O  O269  1  0.90463804  0.74415002  0.76114545  1
  O  O270  1  0.25180350  0.24403871  0.26977797  1
  O  O271  1  0.27118881  0.23263430  0.77291714  1
  O  O272  1  0.26013280  0.56641834  0.26345644  1
  O  O273  1  0.24842113  0.57455556  0.78203140  1
  O  O274  1  0.24760041  0.90641726  0.26513480  1
  O  O275  1  0.25985867  0.89920003  0.78113180  1
  O  O276  1  0.60828254  0.23799227  0.26755170  1
  O  O277  1  0.60754698  0.23523112  0.76869579  1
  O  O278  1  0.59509349  0.58247636  0.26641708  1
  O  O279  1  0.59693059  0.57413961  0.77569411  1
  O  O280  1  0.60270677  0.90140024  0.25653974  1
  O  O281  1  0.59533379  0.91327572  0.77503937  1
  O  O282  1  0.93510497  0.23753880  0.26409669  1
  O  O283  1  0.92096583  0.24407812  0.76611919  1
  O  O284  1  0.91734422  0.58385088  0.26400672  1
  O  O285  1  0.92614317  0.56950965  0.77149430  1
  O  O286  1  0.93194082  0.90241836  0.28179253  1
  O  O287  1  0.93110421  0.90103035  0.75964289  1
  O  O288  1  0.25772338  0.24437707  0.47994825  1
  O  O289  1  0.26433549  0.23366145  0.98139489  1
  O  O290  1  0.25776241  0.56294442  0.48706684  1
  O  O291  1  0.25189637  0.56925514  0.98077047  1
  O  O292  1  0.24778813  0.90980505  0.47673948  1
  O  O293  1  0.25714905  0.89932366  0.96929776  1
  O  O294  1  0.60614342  0.23363228  0.47915771  1
  O  O295  1  0.60131012  0.23495320  0.97793597  1
  O  O296  1  0.59245071  0.57877486  0.48181811  1
  O  O297  1  0.59139916  0.57800885  0.98305944  1
  O  O298  1  0.59592737  0.90987850  0.48407396  1
  O  O299  1  0.58566746  0.91500080  0.96890750  1
  O  O300  1  0.92419147  0.23748751  0.48326694  1
  O  O301  1  0.93099438  0.24866118  0.98510241  1
  O  O302  1  0.92949969  0.57971820  0.48293362  1
  O  O303  1  0.93394549  0.56928178  0.97562485  1
  O  O304  1  0.93727617  0.89621060  0.47740551  1
  O  O305  1  0.92906604  0.90510458  0.99988062  1
  O  O306  1  0.22832007  0.06773611  0.47055305  1
  O  O307  1  0.23191039  0.07646801  0.97467167  1
  O  O308  1  0.22906894  0.40697865  0.47884220  1
  O  O309  1  0.23210837  0.39771939  0.99395305  1
  O  O310  1  0.23710726  0.73713456  0.48695346  1
  O  O311  1  0.23158499  0.73739209  0.97208305  1
  O  O312  1  0.57484824  0.08095847  0.47755474  1
  O  O313  1  0.56458978  0.08049701  0.96961017  1
  O  O314  1  0.57662351  0.40047213  0.49111573  1
  O  O315  1  0.57902844  0.40320090  0.98861810  1
  O  O316  1  0.57150526  0.73396405  0.47567605  1
  O  O317  1  0.57154451  0.72990499  0.97384748  1
  O  O318  1  0.90256393  0.05553712  0.47747326  1
  O  O319  1  0.90850801  0.07606187  0.98282981  1
  O  O320  1  0.90541979  0.40832779  0.48480417  1
  O  O321  1  0.91116486  0.41280009  0.97695678  1
  O  O322  1  0.90492072  0.73644066  0.47484501  1
  O  O323  1  0.91100205  0.73283920  0.98924491  1
  O  O324  1  0.09260894  0.26392348  0.21624887  1
  O  O325  1  0.09259525  0.25698686  0.73793083  1
  O  O326  1  0.10115508  0.59301783  0.22976599  1
  O  O327  1  0.09266740  0.58841491  0.73936568  1
  O  O328  1  0.09038855  0.92398958  0.22744148  1
  O  O329  1  0.09898963  0.92868517  0.72592076  1
  O  O330  1  0.41950222  0.26383225  0.23476949  1
  O  O331  1  0.44029768  0.27371709  0.72618297  1
  O  O332  1  0.41610887  0.59272159  0.21504904  1
  O  O333  1  0.44550965  0.60091611  0.73498124  1
  O  O334  1  0.43178377  0.92864506  0.21826917  1
  O  O335  1  0.43592726  0.93750780  0.72233800  1
  O  O336  1  0.77104466  0.26394588  0.21993243  1
  O  O337  1  0.75727789  0.26642091  0.71742679  1
  O  O338  1  0.74768132  0.58881642  0.22112039  1
  O  O339  1  0.76001383  0.59172283  0.73474971  1
  O  O340  1  0.76785856  0.92277120  0.23247156  1
  O  O341  1  0.76244731  0.93424242  0.72694368  1
  O  O342  1  0.06432858  0.10147567  0.22633679  1
  O  O343  1  0.07296919  0.07956633  0.72801286  1
  O  O344  1  0.07609961  0.42316676  0.22106997  1
  O  O345  1  0.07072832  0.43626303  0.72691055  1
  O  O346  1  0.06839880  0.76541233  0.22656124  1
  O  O347  1  0.07002722  0.76821415  0.73245204  1
  O  O348  1  0.41774241  0.08983499  0.22858748  1
  O  O349  1  0.41303067  0.09499832  0.72233368  1
  O  O350  1  0.39518804  0.42657520  0.22357249  1
  O  O351  1  0.40881290  0.44014650  0.72908270  1
  O  O352  1  0.40349702  0.74625513  0.22058530  1
  O  O353  1  0.39478723  0.76462577  0.74334884  1
  O  O354  1  0.74306160  0.10579518  0.22142703  1
  O  O355  1  0.72949651  0.09405479  0.72561335  1
  O  O356  1  0.73914587  0.42221806  0.21932835  1
  O  O357  1  0.74566781  0.42332273  0.72516976  1
  O  O358  1  0.73968186  0.76538291  0.22327426  1
  O  O359  1  0.73978111  0.76131816  0.73561412  1
