# generated using pymatgen
data_BaLaInIrO6
_symmetry_space_group_name_H-M   'P 1'
_cell_length_a   17.52518431
_cell_length_b   17.54669229
_cell_length_c   16.49394201
_cell_angle_alpha   89.97201414
_cell_angle_beta   89.97610822
_cell_angle_gamma   90.00697978
_symmetry_Int_Tables_number   1
_chemical_formula_structural   BaLaInIrO6
_chemical_formula_sum   'Ba36 La36 In36 Ir36 O216'
_cell_volume   5072.03480162
_cell_formula_units_Z   36
loop_
 _symmetry_equiv_pos_site_id
 _symmetry_equiv_pos_as_xyz
  1  'x, y, z'
loop_
 _atom_site_type_symbol
 _atom_site_label
 _atom_site_symmetry_multiplicity
 _atom_site_fract_x
 _atom_site_fract_y
 _atom_site_fract_z
 _atom_site_occupancy
  Ba  Ba0  1  0.83614842  0.32105731  0.37130335  1
  Ba  Ba1  1  0.16623250  0.33906128  0.62311146  1
  Ba  Ba2  1  0.83568853  0.99400803  0.87806840  1
  Ba  Ba3  1  0.83410580  0.32395969  0.87627416  1
  Ba  Ba4  1  0.16966443  0.32263302  0.37436925  1
  Ba  Ba5  1  -0.00458713  0.82858800  0.87506561  1
  Ba  Ba6  1  0.66796066  0.50512121  0.12206002  1
  Ba  Ba7  1  0.49869644  0.00847753  0.12475335  1
  Ba  Ba8  1  0.16948720  0.99181663  0.87511289  1
  Ba  Ba9  1  0.33417645  0.83462385  0.38001986  1
  Ba  Ba10  1  0.33371217  0.84392443  0.62712478  1
  Ba  Ba11  1  0.00158048  0.15652387  0.87787428  1
  Ba  Ba12  1  0.33584200  0.50949362  0.12585423  1
  Ba  Ba13  1  -0.00031711  0.15733098  0.37379799  1
  Ba  Ba14  1  0.67103511  0.82550237  0.87675574  1
  Ba  Ba15  1  1.00230341  0.16838432  0.62591476  1
  Ba  Ba16  1  0.50016586  0.33943950  0.12667380  1
  Ba  Ba17  1  0.33515890  0.49442060  0.37661863  1
  Ba  Ba18  1  0.66660199  0.48807800  0.37290483  1
  Ba  Ba19  1  0.66195281  0.16055230  0.37445541  1
  Ba  Ba20  1  0.16956173  0.34412980  0.12582655  1
  Ba  Ba21  1  0.33495204  0.17256824  0.62903155  1
  Ba  Ba22  1  0.49840763  0.01032853  0.62741624  1
  Ba  Ba23  1  0.33333929  0.49039422  0.87138644  1
  Ba  Ba24  1  0.83323245  0.00653258  0.12188241  1
  Ba  Ba25  1  0.49385821  1.00104209  0.37685804  1
  Ba  Ba26  1  0.83246104  0.01002176  0.63000168  1
  Ba  Ba27  1  0.49537145  0.67321020  0.62338184  1
  Ba  Ba28  1  0.16644219  0.67430436  0.62310647  1
  Ba  Ba29  1  0.50400568  0.32532485  0.37415323  1
  Ba  Ba30  1  0.83520767  0.65365657  0.87480624  1
  Ba  Ba31  1  0.33070223  0.16232990  0.37507354  1
  Ba  Ba32  1  0.16626330  0.99537698  0.37184745  1
  Ba  Ba33  1  0.50418746  0.32462788  0.87883912  1
  Ba  Ba34  1  0.50127908  0.98515538  0.88030387  1
  Ba  Ba35  1  0.66695800  0.17093280  0.12272501  1
  La  La36  1  -0.00695019  0.81978849  0.37322932  1
  La  La37  1  0.50577231  0.65248127  0.37257948  1
  La  La38  1  0.83262137  0.34621980  0.62754603  1
  La  La39  1  0.49921644  0.34251550  0.62240281  1
  La  La40  1  1.00750034  0.85077720  0.62968201  1
  La  La41  1  1.00646163  0.51468859  0.12553494  1
  La  La42  1  0.82724954  0.68443605  0.62539589  1
  La  La43  1  0.67024192  0.18058490  0.62739114  1
  La  La44  1  0.33864361  0.50716551  0.62150486  1
  La  La45  1  0.16998014  0.65297775  0.87853240  1
  La  La46  1  1.00160199  0.51223919  0.62339731  1
  La  La47  1  0.16301313  0.68197604  0.12905343  1
  La  La48  1  0.66169978  0.84407762  0.11675880  1
  La  La49  1  0.49478858  0.67500179  0.12509033  1
  La  La50  1  0.66250571  0.48840937  0.87468169  1
  La  La51  1  0.16101594  0.02126006  0.12485206  1
  La  La52  1  0.83359620  0.98929312  0.36996079  1
  La  La53  1  0.83758296  0.64844194  0.37472732  1
  La  La54  1  0.16466136  0.00552060  0.61090423  1
  La  La55  1  1.00321724  0.85516710  0.12290216  1
  La  La56  1  0.33574147  0.84755352  0.12210934  1
  La  La57  1  0.33039603  0.15406291  0.88179705  1
  La  La58  1  0.83025709  0.34488291  0.12167091  1
  La  La59  1  0.16577869  0.65515122  0.37477546  1
  La  La60  1  0.34182392  0.18170819  0.12989062  1
  La  La61  1  -0.00407152  0.48671348  0.87240606  1
  La  La62  1  -0.00675172  0.48076920  0.37482488  1
  La  La63  1  0.82846695  0.68044727  0.11781984  1
  La  La64  1  0.66356478  0.14714141  0.87615221  1
  La  La65  1  0.50252118  0.65565384  0.87385239  1
  La  La66  1  0.65527443  0.82604225  0.37681632  1
  La  La67  1  0.67168290  0.51311136  0.62507389  1
  La  La68  1  0.17435250  0.31793974  0.87307072  1
  La  La69  1  1.00288967  0.18499383  0.12241838  1
  La  La70  1  0.32708467  0.81843259  0.87781188  1
  La  La71  1  0.66654106  0.85254642  0.63004694  1
  In  In72  1  0.66989787  0.33325756  0.50188901  1
  In  In73  1  0.17017658  0.16469370  0.75095377  1
  In  In74  1  0.32834318  0.00054082  0.24793586  1
  In  In75  1  0.83522801  0.16630612  0.00128753  1
  In  In76  1  0.67007671  0.66942513  0.49781825  1
  In  In77  1  0.33238560  0.33555171  -0.00069110  1
  In  In78  1  0.33091455  0.67210867  0.25069353  1
  In  In79  1  0.00174195  0.66804755  0.00047880  1
  In  In80  1  0.67075856  0.33114811  0.24618797  1
  In  In81  1  0.83230679  0.83120049  0.25027036  1
  In  In82  1  0.83206303  0.16781463  0.75136595  1
  In  In83  1  0.50356725  0.49794573  0.50006209  1
  In  In84  1  -0.00220785  0.32981302  0.50122341  1
  In  In85  1  -0.00224440  0.66709128  0.74780101  1
  In  In86  1  0.83567625  0.83227670  0.00075089  1
  In  In87  1  0.50057594  0.50215253  0.00033379  1
  In  In88  1  0.33402437  0.33579275  0.25482866  1
  In  In89  1  0.66980740  0.00263384  0.50147248  1
  In  In90  1  0.83827514  0.50242173  0.24356467  1
  In  In91  1  0.50051587  0.16621941  -0.00136302  1
  In  In92  1  0.16624810  0.83307639  0.75351001  1
  In  In93  1  0.33280966  0.66368499  0.75293633  1
  In  In94  1  0.00096706  0.33123130  0.75055040  1
  In  In95  1  0.66894700  0.67022786  0.24563609  1
  In  In96  1  -0.00552694  -0.00002934  0.49505703  1
  In  In97  1  0.16382497  0.50210294  0.25083336  1
  In  In98  1  0.67081965  -0.00038149  0.25026680  1
  In  In99  1  0.16076803  0.83256499  0.49635795  1
  In  In100  1  0.16527879  0.49789892  0.74831219  1
  In  In101  1  0.33216651  0.66819285  0.49644601  1
  In  In102  1  0.16474875  0.49959666  0.49957313  1
  In  In103  1  0.66497025  0.66752388  0.74991424  1
  In  In104  1  0.33611719  -0.00117884  0.75450820  1
  In  In105  1  0.49947600  0.83416390  0.50173168  1
  In  In106  1  0.83329341  0.83475360  0.74671489  1
  In  In107  1  0.49862830  0.83297016  0.24815918  1
  Ir  Ir108  1  0.32878720  -0.00178100  0.00342953  1
  Ir  Ir109  1  0.33428258  0.33000676  0.50686071  1
  Ir  Ir110  1  0.83144087  0.83255192  0.49751098  1
  Ir  Ir111  1  0.66353187  0.66496611  -0.00119205  1
  Ir  Ir112  1  0.83142906  0.16680729  0.49994366  1
  Ir  Ir113  1  0.83173679  0.49707874  0.74925557  1
  Ir  Ir114  1  0.16424307  0.16769314  0.24615028  1
  Ir  Ir115  1  0.33024919  0.00532453  0.50222040  1
  Ir  Ir116  1  0.16850121  0.83360681  0.00567323  1
  Ir  Ir117  1  0.49973396  0.83162523  0.75496647  1
  Ir  Ir118  1  0.50317382  0.16979739  0.75106970  1
  Ir  Ir119  1  0.16327992  0.50375070  0.00063347  1
  Ir  Ir120  1  0.50101419  0.16614980  0.50451528  1
  Ir  Ir121  1  -0.00146522  0.33226448  0.24533036  1
  Ir  Ir122  1  0.00434134  0.33794228  0.00238707  1
  Ir  Ir123  1  0.67363306  0.33404040  -0.00388798  1
  Ir  Ir124  1  0.50365264  0.49569823  0.75040940  1
  Ir  Ir125  1  0.16778410  0.16839039  0.00419821  1
  Ir  Ir126  1  0.16922461  0.16526829  0.49914783  1
  Ir  Ir127  1  0.66514147  0.33467398  0.75074428  1
  Ir  Ir128  1  0.00632348  0.00159698  0.00200642  1
  Ir  Ir129  1  0.84019143  0.16483631  0.24929558  1
  Ir  Ir130  1  0.49956715  0.16566502  0.25149438  1
  Ir  Ir131  1  0.66058397  0.00138285  0.75241183  1
  Ir  Ir132  1  0.15870676  0.83412941  0.24589972  1
  Ir  Ir133  1  0.00229370  0.00069779  0.24629830  1
  Ir  Ir134  1  0.32953806  0.66937109  0.00095684  1
  Ir  Ir135  1  0.50376107  0.50353057  0.24768321  1
  Ir  Ir136  1  0.33877041  0.33167638  0.74967812  1
  Ir  Ir137  1  -0.00191298  0.66884500  0.25161834  1
  Ir  Ir138  1  0.00236194  0.00056339  0.75030751  1
  Ir  Ir139  1  0.66393996  -0.00438511  -0.00153137  1
  Ir  Ir140  1  0.83754155  0.50234390  0.50348913  1
  Ir  Ir141  1  0.49544486  0.82739728  -0.00169239  1
  Ir  Ir142  1  0.83838456  0.49752567  -0.00483898  1
  Ir  Ir143  1  -0.00885740  0.66765183  0.49613204  1
  O  O144  1  0.31943348  0.32125772  0.12680721  1
  O  O145  1  0.31458270  0.33330002  0.63015152  1
  O  O146  1  0.29759065  0.66407927  0.11895657  1
  O  O147  1  0.31599393  0.64821526  0.62702948  1
  O  O148  1  0.29608995  0.98696112  0.11993645  1
  O  O149  1  0.30442285  1.00498969  0.62479423  1
  O  O150  1  0.65336718  0.32982252  0.11527016  1
  O  O151  1  0.63654020  0.32160754  0.63310132  1
  O  O152  1  0.63204644  0.66302210  0.11662040  1
  O  O153  1  0.64668037  0.64932484  0.62461262  1
  O  O154  1  0.64972447  0.98690026  0.11991793  1
  O  O155  1  0.64790208  0.99324240  0.63175123  1
  O  O156  1  0.96901573  0.32716829  0.12356567  1
  O  O157  1  0.96608290  0.32582914  0.62508761  1
  O  O158  1  0.96531226  0.65262376  0.13272988  1
  O  O159  1  0.95834384  0.65081245  0.61273006  1
  O  O160  1  0.98339818  0.99809862  0.12434414  1
  O  O161  1  0.98519385  1.00125189  0.62835145  1
  O  O162  1  0.19825848  0.16192538  0.12499763  1
  O  O163  1  0.18171892  0.14913168  0.62028786  1
  O  O164  1  0.18482272  0.50189380  0.11937646  1
  O  O165  1  0.20302871  0.49851834  0.62377467  1
  O  O166  1  0.19690878  0.82135631  0.12647954  1
  O  O167  1  0.18145614  0.83411616  0.62421573  1
  O  O168  1  0.51323152  0.16652325  0.13030646  1
  O  O169  1  0.53310006  0.16666809  0.62862735  1
  O  O170  1  0.51755980  0.51191612  0.12827907  1
  O  O171  1  0.53383071  0.48809339  0.63254376  1
  O  O172  1  0.52827931  0.81630236  0.11667705  1
  O  O173  1  0.53135831  0.82932408  0.63518128  1
  O  O174  1  0.86687988  0.16128023  0.12914131  1
  O  O175  1  0.85035912  0.16506908  0.61980857  1
  O  O176  1  0.87144696  0.48968352  0.11519853  1
  O  O177  1  0.86568548  0.48791125  0.62743379  1
  O  O178  1  0.86860431  0.82163218  0.12629818  1
  O  O179  1  0.86949193  0.82683784  0.61408226  1
  O  O180  1  0.14703341  0.16875633  0.36954843  1
  O  O181  1  0.14941945  0.17750835  0.88433873  1
  O  O182  1  0.12509995  0.51146958  0.37422597  1
  O  O183  1  0.13163926  0.51179905  0.88220084  1
  O  O184  1  0.12619422  0.84127903  0.36459359  1
  O  O185  1  0.14344004  0.83629555  0.88766786  1
  O  O186  1  0.48027663  0.16849836  0.38016638  1
  O  O187  1  0.47039244  0.17032008  0.86983549  1
  O  O188  1  0.48756111  0.50454986  0.36762296  1
  O  O189  1  0.48338627  0.50932901  0.86981077  1
  O  O190  1  0.48678679  0.84843529  0.37404125  1
  O  O191  1  0.46461130  0.83095668  0.87691526  1
  O  O192  1  0.81200043  0.16532479  0.37374455  1
  O  O193  1  0.80062419  0.16660848  0.87709043  1
  O  O194  1  0.81668498  0.50951015  0.38033238  1
  O  O195  1  0.79984266  0.50030008  0.87189646  1
  O  O196  1  0.79554103  0.84024798  0.38013957  1
  O  O197  1  0.82485912  0.83703054  0.87417167  1
  O  O198  1  0.01712448  -0.00074235  0.36560017  1
  O  O199  1  0.02050745  -0.00755997  0.87776201  1
  O  O200  1  0.01750279  0.34122030  0.36871059  1
  O  O201  1  0.03778598  0.34837788  0.88402483  1
  O  O202  1  0.02867835  0.68270506  0.37418109  1
  O  O203  1  0.03256820  0.67076378  0.87533547  1
  O  O204  1  0.34294991  0.00206082  0.37883303  1
  O  O205  1  0.35463717  0.01208456  0.88616001  1
  O  O206  1  0.35353645  0.32925088  0.38648371  1
  O  O207  1  0.35469488  0.33321972  0.86790228  1
  O  O208  1  0.37194752  0.67823409  0.37197159  1
  O  O209  1  0.36486078  0.67597297  0.88256348  1
  O  O210  1  0.69707795  0.00225972  0.37727842  1
  O  O211  1  0.68367172  0.00761339  0.87424085  1
  O  O212  1  0.68443975  0.33090347  0.37443285  1
  O  O213  1  0.68949822  0.35064061  0.87252259  1
  O  O214  1  0.70605940  0.68625981  0.37261063  1
  O  O215  1  0.68691470  0.66677643  0.87878538  1
  O  O216  1  0.07546332  0.09693401  0.03009481  1
  O  O217  1  0.08387321  0.08707577  0.51019628  1
  O  O218  1  0.06730449  0.43803655  0.02538824  1
  O  O219  1  0.06552847  0.43163538  0.52161292  1
  O  O220  1  0.07612401  0.76643633  0.03514698  1
  O  O221  1  0.04947509  0.76490134  0.51761239  1
  O  O222  1  0.39397750  0.09285450  0.02542348  1
  O  O223  1  0.40649231  0.09580828  0.51593694  1
  O  O224  1  0.40982297  0.42686247  0.01230474  1
  O  O225  1  0.40561485  0.41795850  0.52859797  1
  O  O226  1  0.39673965  0.76407488  0.02391184  1
  O  O227  1  0.40659238  0.76096050  0.52166398  1
  O  O228  1  0.73716339  0.08511596  0.01010571  1
  O  O229  1  0.73623238  0.10500036  0.52486504  1
  O  O230  1  0.75033043  0.42327245  0.01974695  1
  O  O231  1  0.74491553  0.43309921  0.53325886  1
  O  O232  1  0.73414948  0.75442076  0.02599602  1
  O  O233  1  0.74111327  0.76755542  0.53399062  1
  O  O234  1  0.09185600  0.25846446  0.02875373  1
  O  O235  1  0.09455670  0.25167441  0.51329287  1
  O  O236  1  0.09847864  0.59813565  0.02937833  1
  O  O237  1  0.08008128  0.59981560  0.51819300  1
  O  O238  1  0.10292812  0.92940722  0.03120235  1
  O  O239  1  0.08469147  0.92415505  0.52381264  1
  O  O240  1  0.42016598  0.25138048  0.01668197  1
  O  O241  1  0.43238051  0.26207085  0.52849399  1
  O  O242  1  0.42723168  0.60701573  0.02001774  1
  O  O243  1  0.41744239  0.57836991  0.51729534  1
  O  O244  1  0.41915383  0.92090726  0.02646943  1
  O  O245  1  0.41748389  0.93292038  0.51706217  1
  O  O246  1  0.76503752  0.26533065  0.02271984  1
  O  O247  1  0.76645736  0.26214395  0.52825612  1
  O  O248  1  0.76403270  0.59537153  0.02357001  1
  O  O249  1  0.77262945  0.59642075  0.52238764  1
  O  O250  1  0.74881337  0.91813786  0.01692900  1
  O  O251  1  0.76787623  0.92333754  0.52165865  1
  O  O252  1  0.23031420  0.07408036  0.25391908  1
  O  O253  1  0.25299595  0.08326241  0.77909965  1
  O  O254  1  0.24207412  0.41230235  0.26742703  1
  O  O255  1  0.24051917  0.39561855  0.77202330  1
  O  O256  1  0.21937721  0.73905466  0.26889833  1
  O  O257  1  0.23866844  0.73833220  0.78476739  1
  O  O258  1  0.57237669  0.07637045  0.26194914  1
  O  O259  1  0.57304868  0.07911820  0.77918838  1
  O  O260  1  0.57704480  0.41463132  0.25593913  1
  O  O261  1  0.57645932  0.40823582  0.77513522  1
  O  O262  1  0.56704866  0.73308971  0.27497145  1
  O  O263  1  0.56415306  0.73685995  0.77643806  1
  O  O264  1  0.90394331  0.06504056  0.27278675  1
  O  O265  1  0.91068483  0.07039836  0.76585787  1
  O  O266  1  0.91288065  0.40564975  0.26456899  1
  O  O267  1  0.90112334  0.40896001  0.76869189  1
  O  O268  1  0.90447371  0.73351188  0.28192811  1
  O  O269  1  0.89569764  0.72974261  0.75057666  1
  O  O270  1  0.25529565  0.23619189  0.25892247  1
  O  O271  1  0.27157290  0.24038723  0.77600459  1
  O  O272  1  0.25089125  0.58503713  0.27406286  1
  O  O273  1  0.24917307  0.57858524  0.78119221  1
  O  O274  1  0.25051748  0.89925776  0.26289131  1
  O  O275  1  0.26723291  0.90086519  0.77936507  1
  O  O276  1  0.58817389  0.23926403  0.25980843  1
  O  O277  1  0.60255227  0.23567758  0.77508281  1
  O  O278  1  0.59299437  0.57520752  0.26884642  1
  O  O279  1  0.59583681  0.56521208  0.77265038  1
  O  O280  1  0.60806815  0.89351424  0.25654047  1
  O  O281  1  0.59518061  0.90139270  0.76790667  1
  O  O282  1  0.93495678  0.23303206  0.25867759  1
  O  O283  1  0.92495598  0.24088508  0.77220393  1
  O  O284  1  0.93799081  0.57207114  0.27862164  1
  O  O285  1  0.92597281  0.56064108  0.77272903  1
  O  O286  1  0.94005843  0.90202722  0.26530616  1
  O  O287  1  0.93364234  0.90842764  0.75100407  1
  O  O288  1  0.25980412  0.24029175  0.48977757  1
  O  O289  1  0.25752713  0.23809035  0.97645831  1
  O  O290  1  0.24705728  0.58229384  0.46837192  1
  O  O291  1  0.25553812  0.57782248  0.97319870  1
  O  O292  1  0.25320784  0.92049138  0.49217075  1
  O  O293  1  0.26651253  0.89690496  0.98096587  1
  O  O294  1  0.59236410  0.23284404  0.49664116  1
  O  O295  1  0.60511787  0.24054225  0.97473042  1
  O  O296  1  0.59481758  0.57529682  0.47890443  1
  O  O297  1  0.59556487  0.57505248  0.97036098  1
  O  O298  1  0.60606497  0.89790928  0.49295786  1
  O  O299  1  0.59161612  0.89679073  0.98630078  1
  O  O300  1  0.92136319  0.23390270  0.48223310  1
  O  O301  1  0.93468317  0.24618741  0.98885560  1
  O  O302  1  0.93122447  0.56917543  0.47029683  1
  O  O303  1  0.93201399  0.56356786  0.97575183  1
  O  O304  1  0.92073871  0.90118259  0.46410947  1
  O  O305  1  0.93592051  0.90940783  0.99694626  1
  O  O306  1  0.23897535  0.07453543  0.48505515  1
  O  O307  1  0.23934681  0.07568375  0.98084569  1
  O  O308  1  0.24759901  0.40342134  0.48597742  1
  O  O309  1  0.22810281  0.40804921  0.97497299  1
  O  O310  1  0.22997569  0.73928660  0.46973007  1
  O  O311  1  0.23336942  0.73666288  0.97706692  1
  O  O312  1  0.57000660  0.07591624  0.48870556  1
  O  O313  1  0.57887541  0.07465021  0.98334289  1
  O  O314  1  0.57184905  0.40077988  0.49498432  1
  O  O315  1  0.58807507  0.41249559  0.98198629  1
  O  O316  1  0.57410449  0.73854112  0.46600331  1
  O  O317  1  0.56316711  0.72998613  0.97495278  1
  O  O318  1  0.89435497  0.06972184  0.47924905  1
  O  O319  1  0.91621551  0.07321419  0.98540490  1
  O  O320  1  0.90378421  0.41150461  0.48239444  1
  O  O321  1  0.91473973  0.41027356  0.96979296  1
  O  O322  1  0.89505125  0.73515550  0.46991298  1
  O  O323  1  0.90230645  0.73141074  0.99168901  1
  O  O324  1  0.08873104  0.25799456  0.22377148  1
  O  O325  1  0.10284257  0.26338307  0.74588750  1
  O  O326  1  0.09034994  0.60397493  0.22273094  1
  O  O327  1  0.08320575  0.58829572  0.71903244  1
  O  O328  1  0.09667958  0.93233300  0.21598456  1
  O  O329  1  0.09575694  0.93398020  0.72479499  1
  O  O330  1  0.42394070  0.25101074  0.23724544  1
  O  O331  1  0.43807493  0.26657254  0.72647019  1
  O  O332  1  0.43437190  0.59717348  0.23323072  1
  O  O333  1  0.42857470  0.58131738  0.73354099  1
  O  O334  1  0.41688804  0.92168658  0.22373829  1
  O  O335  1  0.43243664  0.92236833  0.73827258  1
  O  O336  1  0.77608101  0.25913442  0.22363217  1
  O  O337  1  0.75658355  0.26776622  0.72180878  1
  O  O338  1  0.77242104  0.60270828  0.22709548  1
  O  O339  1  0.76502778  0.58821076  0.72177388  1
  O  O340  1  0.77472917  0.93536338  0.24372548  1
  O  O341  1  0.74946096  0.92699009  0.73321053  1
  O  O342  1  0.06911551  0.09797418  0.22011459  1
  O  O343  1  0.07523857  0.08670484  0.74149443  1
  O  O344  1  0.06148504  0.43000714  0.22757692  1
  O  O345  1  0.06371388  0.43309486  0.72784526  1
  O  O346  1  0.06161559  0.76725001  0.22191871  1
  O  O347  1  0.06439521  0.76800181  0.72554601  1
  O  O348  1  0.40452235  0.09710783  0.23090905  1
  O  O349  1  0.41528850  0.09795010  0.73688668  1
  O  O350  1  0.41589393  0.42927662  0.23541810  1
  O  O351  1  0.40936400  0.42619947  0.72049685  1
  O  O352  1  0.40438011  0.75940681  0.20954566  1
  O  O353  1  0.40973388  0.76197998  0.73906656  1
  O  O354  1  0.74880150  0.09927017  0.23378077  1
  O  O355  1  0.72579764  0.09865956  0.73514458  1
  O  O356  1  0.75221920  0.42061158  0.22482609  1
  O  O357  1  0.73331234  0.43082124  0.72282359  1
  O  O358  1  0.73713047  0.76489722  0.20853629  1
  O  O359  1  0.73546478  0.76290305  0.71944188  1
