# generated using pymatgen
data_BaLaInIrO6
_symmetry_space_group_name_H-M   'P 1'
_cell_length_a   17.51345134
_cell_length_b   17.53784709
_cell_length_c   16.47962651
_cell_angle_alpha   90.01064636
_cell_angle_beta   90.00623414
_cell_angle_gamma   90.00631089
_symmetry_Int_Tables_number   1
_chemical_formula_structural   BaLaInIrO6
_chemical_formula_sum   'Ba36 La36 In36 Ir36 O216'
_cell_volume   5061.68799257
_cell_formula_units_Z   36
loop_
 _symmetry_equiv_pos_site_id
 _symmetry_equiv_pos_as_xyz
  1  'x, y, z'
loop_
 _atom_site_type_symbol
 _atom_site_label
 _atom_site_symmetry_multiplicity
 _atom_site_fract_x
 _atom_site_fract_y
 _atom_site_fract_z
 _atom_site_occupancy
  Ba  Ba0  1  0.16392353  0.67597526  0.12649284  1
  Ba  Ba1  1  0.33927187  0.17293909  0.62419911  1
  Ba  Ba2  1  1.00105230  0.17267828  0.62503188  1
  Ba  Ba3  1  0.83401354  0.67625711  0.62749487  1
  Ba  Ba4  1  0.33675530  0.84258601  0.62327283  1
  Ba  Ba5  1  0.83026241  0.67419542  0.12328208  1
  Ba  Ba6  1  0.33167408  0.49172305  0.37484286  1
  Ba  Ba7  1  0.83209170  0.32655307  0.87196928  1
  Ba  Ba8  1  0.66562073  0.15506392  0.87705231  1
  Ba  Ba9  1  0.83197137  0.99310005  0.87526439  1
  Ba  Ba10  1  0.99721177  0.84144190  0.62436611  1
  Ba  Ba11  1  0.16768092  0.99345509  0.37918935  1
  Ba  Ba12  1  0.49928277  0.33874264  0.62974508  1
  Ba  Ba13  1  0.17020756  0.65950595  0.37945810  1
  Ba  Ba14  1  0.16293728  0.00777192  0.12710165  1
  Ba  Ba15  1  0.49426447  0.34389134  0.12162996  1
  Ba  Ba16  1  0.83511894  0.99281350  0.37560892  1
  Ba  Ba17  1  0.83794841  0.32800409  0.37196671  1
  Ba  Ba18  1  -0.00000966  0.82701459  0.37523778  1
  Ba  Ba19  1  0.66359753  0.82779722  0.87565476  1
  Ba  Ba20  1  0.66715047  0.17713187  0.62551889  1
  Ba  Ba21  1  0.50104653  0.98834664  0.37971939  1
  Ba  Ba22  1  0.83024984  0.66040364  0.87192562  1
  Ba  Ba23  1  0.33197469  0.82616247  0.37720562  1
  Ba  Ba24  1  0.50353954  0.98632184  0.87179262  1
  Ba  Ba25  1  0.83470738  0.33830597  0.12131135  1
  Ba  Ba26  1  0.16576749  0.32797311  0.37163922  1
  Ba  Ba27  1  0.33748488  0.82134957  0.87140319  1
  Ba  Ba28  1  0.50135776  0.00666275  0.62823837  1
  Ba  Ba29  1  0.99635395  0.50980674  0.12263923  1
  Ba  Ba30  1  0.84006171  0.00498655  0.12414238  1
  Ba  Ba31  1  -0.00434304  0.16025571  0.87633567  1
  Ba  Ba32  1  0.16407862  0.34799744  0.12375049  1
  Ba  Ba33  1  -0.00546662  0.82747791  0.87424710  1
  Ba  Ba34  1  0.83408003  0.65639921  0.37931580  1
  Ba  Ba35  1  0.83403675  0.01165334  0.62598077  1
  La  La36  1  0.16571890  0.34956182  0.62222260  1
  La  La37  1  0.67706217  0.85276564  0.63266903  1
  La  La38  1  0.50301891  0.31806126  0.37792328  1
  La  La39  1  0.67024063  0.17790504  0.12555479  1
  La  La40  1  0.33933103  0.51283565  0.62518476  1
  La  La41  1  -0.00473769  0.15395711  0.37117349  1
  La  La42  1  0.49924439  0.68327266  0.62305895  1
  La  La43  1  0.33406394  0.51700883  0.12842337  1
  La  La44  1  0.67471478  0.51314563  0.12407630  1
  La  La45  1  0.82937871  0.34412255  0.62475862  1
  La  La46  1  0.66659435  0.15198309  0.37485536  1
  La  La47  1  0.33166746  0.14745776  0.87621653  1
  La  La48  1  0.67182797  0.50920167  0.62355025  1
  La  La49  1  0.67247536  0.85057722  0.12283589  1
  La  La50  1  0.65593536  0.81733064  0.38173039  1
  La  La51  1  0.49387104  0.01219462  0.12086696  1
  La  La52  1  0.66118833  0.48402511  0.87220654  1
  La  La53  1  0.33190603  0.48370777  0.87806477  1
  La  La54  1  -0.00402122  0.49435124  0.87722018  1
  La  La55  1  0.33406401  0.18222075  0.12493817  1
  La  La56  1  0.50687845  0.31449749  0.87051526  1
  La  La57  1  0.16385767  0.65837422  0.87481276  1
  La  La58  1  0.98995473  0.83603998  0.12844897  1
  La  La59  1  0.32714344  0.15469121  0.37491809  1
  La  La60  1  0.17166998  0.97896973  0.87368927  1
  La  La61  1  0.15955088  0.01440796  0.62832967  1
  La  La62  1  1.00025779  0.51141900  0.62460761  1
  La  La63  1  0.33322406  0.84830358  0.12610592  1
  La  La64  1  0.50851395  0.65596818  0.86958989  1
  La  La65  1  0.49401119  0.68187931  0.12474850  1
  La  La66  1  0.66216951  0.48397075  0.37238766  1
  La  La67  1  1.00282619  0.18507478  0.12439622  1
  La  La68  1  0.50617248  0.64779535  0.37581328  1
  La  La69  1  0.00361442  0.49874033  0.36827259  1
  La  La70  1  0.16482289  0.68163214  0.62680424  1
  La  La71  1  0.17091506  0.31353136  0.87613718  1
  In  In72  1  0.00150817  -0.00053218  0.24948497  1
  In  In73  1  0.49838575  0.83140472  0.00096000  1
  In  In74  1  0.49701163  0.50098268  0.00032320  1
  In  In75  1  0.82942394  0.83227603  0.49997970  1
  In  In76  1  0.66734395  0.00123653  0.49974946  1
  In  In77  1  0.49826651  0.16719055  0.49957267  1
  In  In78  1  0.50202303  0.49548373  0.50364586  1
  In  In79  1  0.16771611  0.49974270  0.75123935  1
  In  In80  1  0.33293200  0.33163623  0.75110035  1
  In  In81  1  0.00212137  0.33497490  0.74640890  1
  In  In82  1  -0.00142512  0.66721866  0.25088287  1
  In  In83  1  -0.00140959  0.33567714  0.50059197  1
  In  In84  1  0.83088766  0.49820114  0.25081720  1
  In  In85  1  0.66184953  0.66744282  0.24688731  1
  In  In86  1  0.33583681  0.66288403  0.75469322  1
  In  In87  1  0.82511156  0.83211963  0.25335626  1
  In  In88  1  0.16935727  0.17267217  0.50191102  1
  In  In89  1  0.00197767  0.66504707  0.50201300  1
  In  In90  1  0.33435167  0.00157737  0.24883882  1
  In  In91  1  0.00481788  -0.00020960  -0.00103703  1
  In  In92  1  0.33310027  -0.00313483  0.74835502  1
  In  In93  1  0.49959945  0.16676973  0.24888141  1
  In  In94  1  0.00048529  0.00134156  0.75302886  1
  In  In95  1  0.33607723  0.66536312  0.50263690  1
  In  In96  1  0.49797533  0.16369634  -0.00010513  1
  In  In97  1  0.82994738  0.50293613  -0.00542830  1
  In  In98  1  0.83190263  0.16810739  0.25088693  1
  In  In99  1  0.66113295  0.33416904  0.00123799  1
  In  In100  1  0.66630755  0.66481488  0.74678538  1
  In  In101  1  0.00098064  0.00075634  0.50173368  1
  In  In102  1  0.33453991  0.33649926  0.25042661  1
  In  In103  1  0.33769197  0.66946363  0.25142638  1
  In  In104  1  0.00380070  0.33723161  -0.00446191  1
  In  In105  1  0.83375909  0.16564197  0.00020530  1
  In  In106  1  0.16763112  0.50424742  -0.00121376  1
  In  In107  1  0.16846030  0.83294284  0.25044630  1
  Ir  Ir108  1  0.17090311  0.49818492  0.50393890  1
  Ir  Ir109  1  0.50025648  0.16671024  0.75170344  1
  Ir  Ir110  1  0.82989676  0.49845706  0.50259561  1
  Ir  Ir111  1  0.65906530  0.66440777  -0.00240450  1
  Ir  Ir112  1  0.50341846  0.49894623  0.24850382  1
  Ir  Ir113  1  0.17124147  0.16641086  0.00017975  1
  Ir  Ir114  1  0.33315164  0.33552711  0.50028526  1
  Ir  Ir115  1  0.17142295  0.83453449  0.50809169  1
  Ir  Ir116  1  0.32926082  -0.00106895  0.00000427  1
  Ir  Ir117  1  0.83037208  0.17032313  0.74734463  1
  Ir  Ir118  1  0.50305900  0.82969888  0.74482862  1
  Ir  Ir119  1  0.66225968  -0.00413910  0.00447485  1
  Ir  Ir120  1  0.66531729  0.33617154  0.74431307  1
  Ir  Ir121  1  0.83334905  0.50023001  0.74736449  1
  Ir  Ir122  1  0.66159156  0.33236546  0.25439572  1
  Ir  Ir123  1  0.66094027  -0.00054488  0.24801350  1
  Ir  Ir124  1  0.83179388  0.83299335  0.75316947  1
  Ir  Ir125  1  0.16554523  0.17024870  0.24791442  1
  Ir  Ir126  1  0.50055330  0.50014001  0.74954354  1
  Ir  Ir127  1  0.50456786  0.83247884  0.24995469  1
  Ir  Ir128  1  0.33232502  -0.00057555  0.50071756  1
  Ir  Ir129  1  0.33556171  0.66617786  0.00021010  1
  Ir  Ir130  1  0.83204388  0.17363523  0.49941356  1
  Ir  Ir131  1  0.50243077  0.82974304  0.49858258  1
  Ir  Ir132  1  0.16886739  0.50079528  0.25152256  1
  Ir  Ir133  1  0.66311259  0.66267773  0.50060245  1
  Ir  Ir134  1  0.33242423  0.33304663  -0.00283653  1
  Ir  Ir135  1  0.82979242  0.83018454  -0.00172335  1
  Ir  Ir136  1  0.66866863  0.33450454  0.49703465  1
  Ir  Ir137  1  0.66626991  0.00145552  0.75377671  1
  Ir  Ir138  1  0.00191500  0.66747425  0.75080292  1
  Ir  Ir139  1  0.17099929  0.83032234  -0.00512560  1
  Ir  Ir140  1  0.16637216  0.82929879  0.75118684  1
  Ir  Ir141  1  0.00522023  0.33528803  0.25236493  1
  Ir  Ir142  1  0.00196017  0.67492361  -0.00460730  1
  Ir  Ir143  1  0.17131962  0.16571997  0.75560576  1
  O  O144  1  0.31089557  0.32142190  0.11740835  1
  O  O145  1  0.30263124  0.32816364  0.62167071  1
  O  O146  1  0.31463487  0.65505117  0.11960749  1
  O  O147  1  0.30344543  0.65113767  0.62931819  1
  O  O148  1  0.31259659  0.98782748  0.11812293  1
  O  O149  1  0.30117984  1.00056747  0.62192653  1
  O  O150  1  0.64002699  0.31857139  0.13470609  1
  O  O151  1  0.64664150  0.33433640  0.61971906  1
  O  O152  1  0.62946366  0.64925063  0.11780475  1
  O  O153  1  0.63296848  0.64744301  0.61965266  1
  O  O154  1  0.62874784  0.98881091  0.12707294  1
  O  O155  1  0.65065874  0.99760587  0.63248361  1
  O  O156  1  0.98942258  0.32391964  0.13024725  1
  O  O157  1  0.96547712  0.33299214  0.62433385  1
  O  O158  1  0.98237915  0.67036864  0.11508675  1
  O  O159  1  0.98188385  0.65080540  0.63078542  1
  O  O160  1  0.99399321  0.97450567  0.12173679  1
  O  O161  1  0.98978571  1.00386362  0.62841880  1
  O  O162  1  0.20084139  0.16598091  0.12302768  1
  O  O163  1  0.19276074  0.15522513  0.63557558  1
  O  O164  1  0.19689849  0.50297703  0.12845561  1
  O  O165  1  0.20436708  0.48890895  0.62280490  1
  O  O166  1  0.19949665  0.82992740  0.11257516  1
  O  O167  1  0.19083641  0.81955046  0.63207429  1
  O  O168  1  0.53370196  0.15774153  0.12437371  1
  O  O169  1  0.51503883  0.16897978  0.62985756  1
  O  O170  1  0.53684109  0.49532455  0.12906544  1
  O  O171  1  0.53592937  0.49031958  0.63192920  1
  O  O172  1  0.53450173  0.82075673  0.13108144  1
  O  O173  1  0.53521361  0.82392767  0.62079884  1
  O  O174  1  0.86379405  0.16897740  0.12770243  1
  O  O175  1  0.85165383  0.17902281  0.62234051  1
  O  O176  1  0.84182703  0.49777517  0.12205496  1
  O  O177  1  0.86356048  0.49136255  0.62512178  1
  O  O178  1  0.85120281  0.82975480  0.11805705  1
  O  O179  1  0.84377905  0.83365076  0.63421763  1
  O  O180  1  0.13509259  0.17128326  0.36817663  1
  O  O181  1  0.14535393  0.17597571  0.87728995  1
  O  O182  1  0.13987487  0.50173296  0.37873367  1
  O  O183  1  0.13291548  0.51826285  0.87332764  1
  O  O184  1  0.15337399  0.83457791  0.38867712  1
  O  O185  1  0.14527110  0.83324249  0.87196833  1
  O  O186  1  0.46439754  0.17611959  0.37447361  1
  O  O187  1  0.47091725  0.16858260  0.87267829  1
  O  O188  1  0.48075849  0.50755372  0.36987668  1
  O  O189  1  0.46602680  0.51706343  0.86814538  1
  O  O190  1  0.48014296  0.83363799  0.37407370  1
  O  O191  1  0.48911742  0.82609194  0.86838594  1
  O  O192  1  0.80267750  0.17313443  0.37924530  1
  O  O193  1  0.81410072  0.16914328  0.86723782  1
  O  O194  1  0.79889138  0.49889208  0.38251566  1
  O  O195  1  0.79747623  0.50294505  0.86576915  1
  O  O196  1  0.78914361  0.83378241  0.37723344  1
  O  O197  1  0.81228691  0.83033225  0.87527406  1
  O  O198  1  0.01840160  0.01819202  0.37686329  1
  O  O199  1  0.03470060  0.00088498  0.87489290  1
  O  O200  1  0.01679808  0.35505792  0.37375278  1
  O  O201  1  0.03728412  0.34949758  0.86846510  1
  O  O202  1  0.02138850  0.65469488  0.37832520  1
  O  O203  1  0.03071093  0.67625769  0.87233179  1
  O  O204  1  0.35236836  0.00921272  0.37827807  1
  O  O205  1  0.35141068  0.00687189  0.87991743  1
  O  O206  1  0.36581306  0.34075302  0.38023282  1
  O  O207  1  0.36810620  0.34592017  0.87945055  1
  O  O208  1  0.37023512  0.66399347  0.37698994  1
  O  O209  1  0.37163023  0.66895878  0.88174424  1
  O  O210  1  0.68538702  0.01069110  0.36766374  1
  O  O211  1  0.68426263  -0.00198941  0.88124585  1
  O  O212  1  0.68979668  0.34763196  0.37560226  1
  O  O213  1  0.68270279  0.34431430  0.86494107  1
  O  O214  1  0.68169007  0.67689769  0.38051625  1
  O  O215  1  0.67653005  0.67285970  0.87785433  1
  O  O216  1  0.07572163  0.10528250  0.02680390  1
  O  O217  1  0.08684380  0.08835277  0.52109810  1
  O  O218  1  0.07428391  0.43327574  0.01518920  1
  O  O219  1  0.07533527  0.43502072  0.52558557  1
  O  O220  1  0.07013258  0.77168256  0.02122814  1
  O  O221  1  0.08630101  0.75688862  0.52479972  1
  O  O222  1  0.39546489  0.09397453  0.02453102  1
  O  O223  1  0.40650494  0.08447851  0.51361068  1
  O  O224  1  0.39051047  0.43455444  0.02066069  1
  O  O225  1  0.39734999  0.43040420  0.52661555  1
  O  O226  1  0.39946509  0.76109158  0.02981003  1
  O  O227  1  0.41679858  0.75627895  0.52432069  1
  O  O228  1  0.72874526  0.08974433  0.02674524  1
  O  O229  1  0.74229591  0.10313882  0.51045888  1
  O  O230  1  0.72547070  0.43525741  0.01310227  1
  O  O231  1  0.73388449  0.43110089  0.52483635  1
  O  O232  1  0.72718439  0.76092464  0.02272109  1
  O  O233  1  0.72263993  0.75824712  0.52709101  1
  O  O234  1  0.10408620  0.25897149  0.01171849  1
  O  O235  1  0.10114305  0.27054467  0.52667726  1
  O  O236  1  0.09622551  0.60996629  0.00507581  1
  O  O237  1  0.10349287  0.58927302  0.53282662  1
  O  O238  1  0.10972911  0.92560496  0.00246165  1
  O  O239  1  0.10459137  0.92574000  0.52849313  1
  O  O240  1  0.41734483  0.25807844  0.01744111  1
  O  O241  1  0.42722898  0.26990383  0.51215001  1
  O  O242  1  0.42851512  0.59921885  0.02916642  1
  O  O243  1  0.43323753  0.59210226  0.53139149  1
  O  O244  1  0.42419336  0.92946383  0.02542858  1
  O  O245  1  0.42985971  0.92283757  0.51925817  1
  O  O246  1  0.74820202  0.25145164  0.01977890  1
  O  O247  1  0.76604484  0.27165625  0.52017044  1
  O  O248  1  0.74917389  0.59681199  0.01442278  1
  O  O249  1  0.75557464  0.58984425  0.52581281  1
  O  O250  1  0.75605549  0.92184167  0.02332726  1
  O  O251  1  0.75122425  0.92177880  0.52611086  1
  O  O252  1  0.23923898  0.08354410  0.26861910  1
  O  O253  1  0.23597361  0.07104486  0.77942167  1
  O  O254  1  0.23970040  0.41140303  0.26366258  1
  O  O255  1  0.23497577  0.39844208  0.77982066  1
  O  O256  1  0.24318300  0.73960508  0.26626414  1
  O  O257  1  0.23109449  0.73158279  0.76972722  1
  O  O258  1  0.57271808  0.06919108  0.26852148  1
  O  O259  1  0.57358125  0.07428362  0.76963427  1
  O  O260  1  0.56577997  0.40095152  0.27963562  1
  O  O261  1  0.56815662  0.40606766  0.77749398  1
  O  O262  1  0.55883423  0.73157561  0.27381392  1
  O  O263  1  0.56412589  0.73074710  0.75805125  1
  O  O264  1  0.91116314  0.08084407  0.27047484  1
  O  O265  1  0.90335422  0.08218666  0.76165626  1
  O  O266  1  0.91440232  0.40498556  0.26059500  1
  O  O267  1  0.90989901  0.41838545  0.77111604  1
  O  O268  1  0.90089841  0.73814734  0.26413340  1
  O  O269  1  0.90513149  0.73925324  0.76677570  1
  O  O270  1  0.26266432  0.23413137  0.27073749  1
  O  O271  1  0.26452434  0.23122231  0.78260335  1
  O  O272  1  0.26290793  0.56836141  0.25972535  1
  O  O273  1  0.26986597  0.56315872  0.77923405  1
  O  O274  1  0.27120582  0.90161667  0.25303827  1
  O  O275  1  0.25455483  0.90298881  0.77108894  1
  O  O276  1  0.59653841  0.23953502  0.28379855  1
  O  O277  1  0.59028588  0.24558885  0.77300070  1
  O  O278  1  0.59444085  0.56469894  0.27644530  1
  O  O279  1  0.59366434  0.56459280  0.77494582  1
  O  O280  1  0.60191914  0.89717646  0.27357606  1
  O  O281  1  0.59861774  0.90189101  0.75722879  1
  O  O282  1  0.93938864  0.24115412  0.27101936  1
  O  O283  1  0.91963383  0.24157535  0.76395746  1
  O  O284  1  0.92779831  0.56746698  0.27218069  1
  O  O285  1  0.93269089  0.56924925  0.77216562  1
  O  O286  1  0.92140109  0.90565834  0.25902039  1
  O  O287  1  0.91985583  0.90716955  0.76503388  1
  O  O288  1  0.27057026  0.24009640  0.47329596  1
  O  O289  1  0.26854074  0.23349294  0.97224974  1
  O  O290  1  0.26083419  0.56633537  0.48773590  1
  O  O291  1  0.27116464  0.57077462  0.97429967  1
  O  O292  1  0.26161066  0.90996309  0.48585492  1
  O  O293  1  0.26391335  0.90167440  0.97396861  1
  O  O294  1  0.59958145  0.24362543  0.46860712  1
  O  O295  1  0.58231621  0.24577698  0.97540191  1
  O  O296  1  0.59950405  0.56803647  0.47282225  1
  O  O297  1  0.59584567  0.57028042  0.96796149  1
  O  O298  1  0.59462970  0.89843647  0.48132218  1
  O  O299  1  0.59576128  0.90247214  0.99316004  1
  O  O300  1  0.92855659  0.23588655  0.47369817  1
  O  O301  1  0.92742308  0.24586629  0.98992757  1
  O  O302  1  0.92862879  0.55931534  0.48491555  1
  O  O303  1  0.93473786  0.58035322  0.97285427  1
  O  O304  1  0.92237963  0.91036884  0.48451935  1
  O  O305  1  0.92032428  0.90047453  0.98888990  1
  O  O306  1  0.25255569  0.07977279  0.48060435  1
  O  O307  1  0.23627105  0.06953952  0.97208455  1
  O  O308  1  0.23544906  0.39944218  0.48686743  1
  O  O309  1  0.24141878  0.40147395  0.96821858  1
  O  O310  1  0.24278749  0.74412430  0.49469542  1
  O  O311  1  0.23747338  0.73039045  0.97328654  1
  O  O312  1  0.58104203  0.08181050  0.47921679  1
  O  O313  1  0.56798974  0.06123865  0.99120826  1
  O  O314  1  0.57325724  0.39994144  0.47168582  1
  O  O315  1  0.56321877  0.40592327  0.96724052  1
  O  O316  1  0.56649927  0.72969613  0.47589250  1
  O  O317  1  0.55939477  0.72350854  0.98564974  1
  O  O318  1  0.90507835  0.08713170  0.48233354  1
  O  O319  1  0.90920932  0.07258480  0.98498751  1
  O  O320  1  0.89692284  0.40869152  0.48876006  1
  O  O321  1  0.91309418  0.41841840  0.97207427  1
  O  O322  1  0.90787350  0.74019312  0.49143767  1
  O  O323  1  0.90283780  0.73922275  0.98173415  1
  O  O324  1  0.09505185  0.26063499  0.22807152  1
  O  O325  1  0.11044368  0.26425970  0.73219531  1
  O  O326  1  0.09633777  0.58666011  0.23793159  1
  O  O327  1  0.09686481  0.60230809  0.72895103  1
  O  O328  1  0.09869989  0.92839658  0.24635265  1
  O  O329  1  0.10530482  0.92730689  0.73348120  1
  O  O330  1  0.42404635  0.25954751  0.22902433  1
  O  O331  1  0.43080016  0.25899739  0.74327750  1
  O  O332  1  0.43850806  0.59449468  0.22362786  1
  O  O333  1  0.43804393  0.59378411  0.72012949  1
  O  O334  1  0.44202421  0.92786264  0.22348237  1
  O  O335  1  0.42937359  0.91910753  0.73565888  1
  O  O336  1  0.75142515  0.26127510  0.23221940  1
  O  O337  1  0.76175482  0.26887509  0.72478016  1
  O  O338  1  0.75026348  0.58848139  0.23096580  1
  O  O339  1  0.75504874  0.58290628  0.72369400  1
  O  O340  1  0.74912534  0.93199752  0.22481757  1
  O  O341  1  0.75729746  0.92477946  0.73240135  1
  O  O342  1  0.07061000  0.10756244  0.22431982  1
  O  O343  1  0.08366442  0.09590678  0.73523699  1
  O  O344  1  0.07123523  0.43257864  0.23844055  1
  O  O345  1  0.07523521  0.43040976  0.71093198  1
  O  O346  1  0.06737769  0.76609806  0.22717979  1
  O  O347  1  0.07422803  0.75732788  0.72499980  1
  O  O348  1  0.40420870  0.09437606  0.21552496  1
  O  O349  1  0.40878211  0.09472963  0.74072117  1
  O  O350  1  0.40642311  0.43778046  0.22247924  1
  O  O351  1  0.40293210  0.43731103  0.72980341  1
  O  O352  1  0.41045507  0.76779761  0.21892463  1
  O  O353  1  0.41431166  0.75609864  0.72645425  1
  O  O354  1  0.72410461  0.09803093  0.22987385  1
  O  O355  1  0.73726118  0.09603004  0.73577478  1
  O  O356  1  0.72374781  0.42816442  0.23221965  1
  O  O357  1  0.73977026  0.42839185  0.71843757  1
  O  O358  1  0.72360397  0.76743731  0.22492950  1
  O  O359  1  0.73698933  0.76348886  0.73158292  1
