# generated using pymatgen
data_BaLaInIrO6
_symmetry_space_group_name_H-M   'P 1'
_cell_length_a   17.52513095
_cell_length_b   17.54641055
_cell_length_c   16.48982247
_cell_angle_alpha   90.03088908
_cell_angle_beta   90.00452096
_cell_angle_gamma   90.01107216
_symmetry_Int_Tables_number   1
_chemical_formula_structural   BaLaInIrO6
_chemical_formula_sum   'Ba36 La36 In36 Ir36 O216'
_cell_volume   5070.67138359
_cell_formula_units_Z   36
loop_
 _symmetry_equiv_pos_site_id
 _symmetry_equiv_pos_as_xyz
  1  'x, y, z'
loop_
 _atom_site_type_symbol
 _atom_site_label
 _atom_site_symmetry_multiplicity
 _atom_site_fract_x
 _atom_site_fract_y
 _atom_site_fract_z
 _atom_site_occupancy
  Ba  Ba0  1  0.33690009  0.50918271  0.62320725  1
  Ba  Ba1  1  0.66438863  0.16048677  0.87169698  1
  Ba  Ba2  1  0.50290038  0.01383351  0.62902565  1
  Ba  Ba3  1  0.50587900  0.99334385  0.87307047  1
  Ba  Ba4  1  0.82962805  0.33892331  0.62377394  1
  Ba  Ba5  1  0.00144018  0.49228450  0.37445917  1
  Ba  Ba6  1  0.66431637  0.50602307  0.62824723  1
  Ba  Ba7  1  0.83243273  0.67192294  0.12526231  1
  Ba  Ba8  1  0.33004362  0.16035406  0.37733600  1
  Ba  Ba9  1  0.66829015  0.84289126  0.12385515  1
  Ba  Ba10  1  0.49897574  0.32764293  0.87317107  1
  Ba  Ba11  1  0.66903799  0.82535714  0.87753400  1
  Ba  Ba12  1  0.83589003  0.65865941  0.87400408  1
  Ba  Ba13  1  0.16644393  0.00918718  0.62487696  1
  Ba  Ba14  1  -0.00245325  0.15900892  0.37522791  1
  Ba  Ba15  1  0.66560943  0.17706393  0.62557001  1
  Ba  Ba16  1  0.49600870  0.32759836  0.37642985  1
  Ba  Ba17  1  0.33408022  0.83860083  0.12350256  1
  Ba  Ba18  1  0.16547888  0.67483833  0.62026139  1
  Ba  Ba19  1  0.83265014  0.67330788  0.62477436  1
  Ba  Ba20  1  0.16773097  0.65767804  0.87504511  1
  Ba  Ba21  1  0.66567361  0.17811862  0.12356937  1
  Ba  Ba22  1  0.50180303  0.65462941  0.36802658  1
  Ba  Ba23  1  0.16366918  0.99497438  0.87295562  1
  Ba  Ba24  1  0.16980766  0.32245208  0.37687757  1
  Ba  Ba25  1  1.00091124  0.84293070  0.62610548  1
  Ba  Ba26  1  0.16564071  0.99484042  0.37628569  1
  Ba  Ba27  1  0.32994816  0.49230647  0.37396533  1
  Ba  Ba28  1  0.49692663  0.33938212  0.12447939  1
  Ba  Ba29  1  0.66493758  0.16198151  0.37536007  1
  Ba  Ba30  1  0.50425130  0.34023863  0.62242723  1
  Ba  Ba31  1  -0.00451145  0.15422031  0.87465058  1
  Ba  Ba32  1  0.16863142  0.65806917  0.37477234  1
  Ba  Ba33  1  0.50090792  0.00848842  0.12353441  1
  Ba  Ba34  1  0.99825236  0.17909697  0.12013254  1
  Ba  Ba35  1  0.67096695  0.49415688  0.87597417  1
  La  La36  1  0.33511923  0.84311500  0.62482508  1
  La  La37  1  0.49298539  0.68259607  0.62666910  1
  La  La38  1  0.16355342  0.01698777  0.12770375  1
  La  La39  1  0.33402346  0.82296720  0.87293118  1
  La  La40  1  0.33803779  0.18141327  0.62698571  1
  La  La41  1  0.82575296  0.01372313  0.63089898  1
  La  La42  1  0.49693986  0.68182665  0.12225549  1
  La  La43  1  0.32836411  0.48287103  0.87145353  1
  La  La44  1  0.84278696  0.98438344  0.37680286  1
  La  La45  1  0.83577501  0.65206349  0.37685503  1
  La  La46  1  0.82969669  0.34469153  0.12519641  1
  La  La47  1  0.33062342  0.15344830  0.87808657  1
  La  La48  1  0.83590976  0.31755583  0.87335150  1
  La  La49  1  0.50163384  0.98758780  0.37682294  1
  La  La50  1  0.50733815  0.65590563  0.87676492  1
  La  La51  1  1.00750780  0.51424480  0.62907028  1
  La  La52  1  0.82348032  0.01729789  0.12446446  1
  La  La53  1  0.66664592  0.51091702  0.12603245  1
  La  La54  1  0.16229631  0.34657440  0.62417148  1
  La  La55  1  0.33938280  0.51348080  0.12605396  1
  La  La56  1  0.67271331  0.84723705  0.62778139  1
  La  La57  1  -0.00538510  0.81568828  0.38222311  1
  La  La58  1  0.66470864  0.81636071  0.37548797  1
  La  La59  1  0.84022568  0.98378648  0.87722034  1
  La  La60  1  0.17075852  0.31489444  0.87335230  1
  La  La61  1  1.00124593  0.17692114  0.62200877  1
  La  La62  1  1.00879623  0.84898883  0.12644056  1
  La  La63  1  0.16441566  0.68213963  0.12551401  1
  La  La64  1  1.00507008  0.51396637  0.12046807  1
  La  La65  1  0.33271478  0.81993725  0.37329872  1
  La  La66  1  0.33868337  0.17883235  0.12873267  1
  La  La67  1  0.65975255  0.48546132  0.37297636  1
  La  La68  1  0.16193499  0.35051182  0.12575922  1
  La  La69  1  -0.00688442  0.81914185  0.87025501  1
  La  La70  1  -0.00844449  0.48282868  0.87451746  1
  La  La71  1  0.83432521  0.31927158  0.37241110  1
  In  In72  1  0.16502949  0.16780601  0.25031221  1
  In  In73  1  0.16498865  0.83615464  0.25220591  1
  In  In74  1  0.16638014  0.16829984  0.00042430  1
  In  In75  1  0.33229526  -0.00074362  0.25019156  1
  In  In76  1  -0.00091077  0.66683734  0.24993759  1
  In  In77  1  0.00152384  0.32951415  0.75292164  1
  In  In78  1  0.83303666  0.83096015  0.74734238  1
  In  In79  1  0.67073825  -0.00069270  0.25502926  1
  In  In80  1  -0.00012207  0.33527887  0.24763565  1
  In  In81  1  0.33445172  0.66889957  0.49915343  1
  In  In82  1  0.49932984  0.16547365  0.25278226  1
  In  In83  1  0.33071055  0.33351889  0.50166469  1
  In  In84  1  0.16441348  0.49979459  0.49840165  1
  In  In85  1  0.50180663  0.83360053  0.25218599  1
  In  In86  1  0.83473864  0.50004170  0.74722267  1
  In  In87  1  0.16653303  0.83639540  0.49878283  1
  In  In88  1  0.83497909  0.49919305  0.00078334  1
  In  In89  1  0.33389869  0.66570333  0.75201812  1
  In  In90  1  0.32998346  0.33490568  0.00106924  1
  In  In91  1  0.49812965  0.50123705  0.75200380  1
  In  In92  1  0.50111946  0.50290783  0.49881137  1
  In  In93  1  0.83741603  0.82971157  0.00388184  1
  In  In94  1  0.66863433  0.00021060  0.49885656  1
  In  In95  1  0.50098247  0.83621427  -0.00300288  1
  In  In96  1  0.33408454  0.66318365  -0.00341402  1
  In  In97  1  0.16655442  0.83418422  0.75277265  1
  In  In98  1  0.33570125  0.00033970  0.75010500  1
  In  In99  1  -0.00191351  -0.00016019  0.00241104  1
  In  In100  1  0.66727030  0.33377825  0.75303255  1
  In  In101  1  0.83293547  0.16328810  0.49969936  1
  In  In102  1  0.66545259  0.66617437  0.50237753  1
  In  In103  1  0.50028197  0.16769342  -0.00108262  1
  In  In104  1  0.83500983  0.83255868  0.24981241  1
  In  In105  1  0.16659498  0.83627229  -0.00229897  1
  In  In106  1  -0.00318764  0.33435729  0.50054770  1
  In  In107  1  0.83276510  0.49728665  0.25106388  1
  Ir  Ir108  1  -0.00588900  0.00023729  0.25244713  1
  Ir  Ir109  1  0.50184338  0.49947872  0.24388008  1
  Ir  Ir110  1  0.66700889  0.66464614  0.24748750  1
  Ir  Ir111  1  -0.00032728  0.33591573  -0.00014532  1
  Ir  Ir112  1  0.17122242  0.50139124  0.23989182  1
  Ir  Ir113  1  0.66308607  0.66329788  0.00096589  1
  Ir  Ir114  1  0.33250684  0.66192384  0.24482467  1
  Ir  Ir115  1  0.33091288  -0.00005788  -0.00200004  1
  Ir  Ir116  1  0.67259900  0.00331973  -0.00214338  1
  Ir  Ir117  1  -0.00647727  0.66524250  0.50192696  1
  Ir  Ir118  1  0.83190272  0.16868564  -0.00027059  1
  Ir  Ir119  1  0.16951583  0.16192393  0.50753265  1
  Ir  Ir120  1  -0.00325637  0.00273784  0.74662254  1
  Ir  Ir121  1  0.50466432  0.83523789  0.74616937  1
  Ir  Ir122  1  0.66992778  0.33497591  0.49430693  1
  Ir  Ir123  1  0.83097447  0.83436822  0.50081573  1
  Ir  Ir124  1  0.00513207  0.66329842  -0.00112836  1
  Ir  Ir125  1  0.32767242  0.33630889  0.24646266  1
  Ir  Ir126  1  0.66115342  0.67002940  0.75263765  1
  Ir  Ir127  1  0.83097762  0.49995633  0.49668086  1
  Ir  Ir128  1  0.33999818  0.00048305  0.50094507  1
  Ir  Ir129  1  0.66878096  0.00086502  0.75199303  1
  Ir  Ir130  1  0.66767757  0.33639720  0.24611349  1
  Ir  Ir131  1  0.00467432  0.66279791  0.75136041  1
  Ir  Ir132  1  0.32659257  0.33155741  0.75318083  1
  Ir  Ir133  1  -0.00408197  -0.00111255  0.50028822  1
  Ir  Ir134  1  0.50028273  0.50149566  0.00423004  1
  Ir  Ir135  1  0.16778876  0.16707888  0.74748520  1
  Ir  Ir136  1  0.49482235  0.17027161  0.74759911  1
  Ir  Ir137  1  0.49695221  0.16610318  0.50305746  1
  Ir  Ir138  1  0.16414546  0.49836905  -0.00322148  1
  Ir  Ir139  1  0.83378626  0.16127602  0.75476919  1
  Ir  Ir140  1  0.83292180  0.16791677  0.24619158  1
  Ir  Ir141  1  0.66852017  0.33703312  0.00433874  1
  Ir  Ir142  1  0.50197060  0.83710169  0.50148892  1
  Ir  Ir143  1  0.16333986  0.49719829  0.75662985  1
  O  O144  1  0.29913364  0.32520104  0.12625579  1
  O  O145  1  0.29833717  0.32256414  0.63490567  1
  O  O146  1  0.30188553  0.65355919  0.12422468  1
  O  O147  1  0.31665031  0.67688410  0.62681901  1
  O  O148  1  0.29868713  0.98979722  0.11669991  1
  O  O149  1  0.31806197  0.98374134  0.62004264  1
  O  O150  1  0.64330498  0.33592480  0.12522900  1
  O  O151  1  0.65600325  0.33229091  0.61575767  1
  O  O152  1  0.63245369  0.65414933  0.12405358  1
  O  O153  1  0.63172180  0.66761987  0.63208944  1
  O  O154  1  0.65516062  1.00177652  0.11918405  1
  O  O155  1  0.65126284  0.98726195  0.62991231  1
  O  O156  1  0.96712737  0.33746396  0.11785896  1
  O  O157  1  0.98246087  0.31781701  0.62799496  1
  O  O158  1  0.98271761  0.65030459  0.11852889  1
  O  O159  1  0.97897739  0.64900286  0.62827966  1
  O  O160  1  0.96125769  0.98938791  0.13415390  1
  O  O161  1  0.96488209  1.00100569  0.62327749  1
  O  O162  1  0.19961411  0.15734979  0.12344432  1
  O  O163  1  0.20022978  0.16149348  0.62855148  1
  O  O164  1  0.19974878  0.49061020  0.11650850  1
  O  O165  1  0.18498745  0.48898122  0.63743443  1
  O  O166  1  0.18364213  0.81987374  0.12581078  1
  O  O167  1  0.19601301  0.83354449  0.62463786  1
  O  O168  1  0.51511142  0.16664754  0.12578611  1
  O  O169  1  0.51766288  0.17125534  0.62431605  1
  O  O170  1  0.53259151  0.49577397  0.12379888  1
  O  O171  1  0.51508458  0.49675897  0.62552602  1
  O  O172  1  0.51956495  0.82437320  0.12526509  1
  O  O173  1  0.53753220  0.82743939  0.62399767  1
  O  O174  1  0.85270879  0.15471645  0.12221283  1
  O  O175  1  0.86280512  0.15311114  0.63450428  1
  O  O176  1  0.86847272  0.48773147  0.12357435  1
  O  O177  1  0.86771099  0.49632769  0.61673263  1
  O  O178  1  0.87318347  0.82496867  0.12658567  1
  O  O179  1  0.85200863  0.82862241  0.61993084  1
  O  O180  1  0.14978570  0.16475593  0.38560996  1
  O  O181  1  0.14318087  0.17386950  0.86812212  1
  O  O182  1  0.15195029  0.50073300  0.36237107  1
  O  O183  1  0.12816842  0.50231930  0.87776510  1
  O  O184  1  0.12913233  0.83536691  0.37532191  1
  O  O185  1  0.12536566  0.83999090  0.87617770  1
  O  O186  1  0.48064415  0.16855897  0.38418839  1
  O  O187  1  0.46796986  0.16860824  0.86885120  1
  O  O188  1  0.48162201  0.49978712  0.36339976  1
  O  O189  1  0.46563097  0.51289580  0.88487546  1
  O  O190  1  0.46951785  0.84106661  0.38305392  1
  O  O191  1  0.47310173  0.83456334  0.86649014  1
  O  O192  1  0.81798705  0.18018080  0.36738155  1
  O  O193  1  0.81229152  0.17905934  0.87830796  1
  O  O194  1  0.79815594  0.51011379  0.37754641  1
  O  O195  1  0.82323820  0.50629046  0.87607040  1
  O  O196  1  0.80110142  0.84473940  0.38167053  1
  O  O197  1  0.82168442  0.83984010  0.87466621  1
  O  O198  1  0.01830260  0.00494845  0.37662240  1
  O  O199  1  0.01282754  0.00288059  0.86725142  1
  O  O200  1  0.01959090  0.33248697  0.37493200  1
  O  O201  1  0.03486464  0.34058147  0.88071656  1
  O  O202  1  0.01692867  0.67245151  0.38196558  1
  O  O203  1  0.02315698  0.68150556  0.87533326  1
  O  O204  1  0.36777462  0.00958435  0.38312540  1
  O  O205  1  0.35682859  0.01647858  0.87889928  1
  O  O206  1  0.34142066  0.33825913  0.36777481  1
  O  O207  1  0.34794497  0.34422047  0.87260570  1
  O  O208  1  0.35248336  0.67162734  0.36566908  1
  O  O209  1  0.37185144  0.67691277  0.87459090  1
  O  O210  1  0.70908839  0.00551238  0.37835074  1
  O  O211  1  0.70234100  0.00269545  0.87503890  1
  O  O212  1  0.69943421  0.34462374  0.36781610  1
  O  O213  1  0.69979640  0.33596828  0.88588893  1
  O  O214  1  0.69726285  0.67674832  0.36904882  1
  O  O215  1  0.68763950  0.66948079  0.87682943  1
  O  O216  1  0.07669713  0.08942478  0.01980067  1
  O  O217  1  0.06379678  0.09602846  0.52462151  1
  O  O218  1  0.06692643  0.43251955  0.02554312  1
  O  O219  1  0.06905024  0.42777719  0.53002212  1
  O  O220  1  0.06910642  0.75498466  0.02779136  1
  O  O221  1  0.06634118  0.75426008  0.51586934  1
  O  O222  1  0.39442187  0.09448762  0.02211907  1
  O  O223  1  0.40368816  0.09893972  0.52938625  1
  O  O224  1  0.40372998  0.43554107  0.02148686  1
  O  O225  1  0.40874629  0.42388783  0.51059290  1
  O  O226  1  0.41492881  0.75235525  0.02145048  1
  O  O227  1  0.40947724  0.77338764  0.52676439  1
  O  O228  1  0.74355885  0.09461266  0.02174450  1
  O  O229  1  0.74545446  0.08899643  0.53027633  1
  O  O230  1  0.73965343  0.42416905  0.03259478  1
  O  O231  1  0.73832698  0.43044296  0.51389419  1
  O  O232  1  0.73874301  0.75100416  0.01809176  1
  O  O233  1  0.73251731  0.77125932  0.51856537  1
  O  O234  1  0.09586846  0.27249370  0.02305788  1
  O  O235  1  0.10064118  0.25234510  0.53138273  1
  O  O236  1  0.10132905  0.59522671  0.02638944  1
  O  O237  1  0.07861454  0.58785366  0.51963528  1
  O  O238  1  0.09389344  0.92874003  0.03666701  1
  O  O239  1  0.08662031  0.93077780  0.51697238  1
  O  O240  1  0.41615187  0.25403227  0.01878860  1
  O  O241  1  0.42186148  0.25284753  0.52175482  1
  O  O242  1  0.43221315  0.59067082  0.03316912  1
  O  O243  1  0.43696450  0.60693595  0.51784070  1
  O  O244  1  0.42020473  0.93054679  0.01201150  1
  O  O245  1  0.43610277  0.93334776  0.51747243  1
  O  O246  1  0.76632046  0.26962815  0.02336720  1
  O  O247  1  0.75886302  0.26369984  0.50219419  1
  O  O248  1  0.74818094  0.58672102  0.02424304  1
  O  O249  1  0.76570592  0.59335558  0.51412172  1
  O  O250  1  0.76850586  0.93535108  0.01497010  1
  O  O251  1  0.76785658  0.92625052  0.52940350  1
  O  O252  1  0.23054490  0.06558729  0.25655065  1
  O  O253  1  0.24010400  0.08014105  0.76819070  1
  O  O254  1  0.23183183  0.40277929  0.25405374  1
  O  O255  1  0.22952250  0.39969529  0.77961448  1
  O  O256  1  0.24184978  0.73168631  0.26025520  1
  O  O257  1  0.25038256  0.74814555  0.78191233  1
  O  O258  1  0.56903345  0.06568291  0.27682599  1
  O  O259  1  0.57174924  0.07914382  0.76701219  1
  O  O260  1  0.57766278  0.40940023  0.27211895  1
  O  O261  1  0.57564495  0.41114280  0.76858923  1
  O  O262  1  0.58063768  0.73765111  0.26648664  1
  O  O263  1  0.56660327  0.73850377  0.77309346  1
  O  O264  1  0.89523465  0.06678063  0.27179622  1
  O  O265  1  0.89654121  0.06363316  0.77122163  1
  O  O266  1  0.89656592  0.39688170  0.27177146  1
  O  O267  1  0.90888067  0.40229079  0.78118575  1
  O  O268  1  0.90290630  0.73835409  0.28545908  1
  O  O269  1  0.91651269  0.73907401  0.76518851  1
  O  O270  1  0.26219355  0.24418702  0.26220259  1
  O  O271  1  0.26324600  0.23302290  0.77641878  1
  O  O272  1  0.26859809  0.56491959  0.25481709  1
  O  O273  1  0.26072868  0.56149251  0.77640242  1
  O  O274  1  0.26697517  0.89714411  0.27884599  1
  O  O275  1  0.26793970  0.90397724  0.77477031  1
  O  O276  1  0.59491143  0.24852034  0.26633949  1
  O  O277  1  0.58391098  0.24230453  0.76299980  1
  O  O278  1  0.60102118  0.56450721  0.26544728  1
  O  O279  1  0.59065714  0.58454161  0.77816374  1
  O  O280  1  0.60072938  0.90106614  0.28368021  1
  O  O281  1  0.60002531  0.90474631  0.76537328  1
  O  O282  1  0.92221688  0.23698801  0.25847486  1
  O  O283  1  0.92184567  0.23465987  0.76950931  1
  O  O284  1  0.92311133  0.57554942  0.26739113  1
  O  O285  1  0.94049745  0.56691296  0.76783002  1
  O  O286  1  0.93449034  0.90522044  0.28230924  1
  O  O287  1  0.92859525  0.91057894  0.76992265  1
  O  O288  1  0.26021560  0.23039545  0.49636876  1
  O  O289  1  0.25791106  0.23991320  0.96572322  1
  O  O290  1  0.25448692  0.57708930  0.48993018  1
  O  O291  1  0.26292457  0.55926176  0.97393526  1
  O  O292  1  0.27660416  0.90641441  0.47659886  1
  O  O293  1  0.26821314  0.90594941  0.96837092  1
  O  O294  1  0.59450973  0.24369737  0.48117475  1
  O  O295  1  0.59478278  0.25058801  0.98263009  1
  O  O296  1  0.60210398  0.56884917  0.47092169  1
  O  O297  1  0.58804924  0.57461514  0.97832079  1
  O  O298  1  0.59672221  0.90104515  0.47392135  1
  O  O299  1  0.59933855  0.91387583  0.98397926  1
  O  O300  1  0.92747550  0.23489462  0.49368902  1
  O  O301  1  0.92406429  0.24574211  0.97448776  1
  O  O302  1  0.91715997  0.57587424  0.47128832  1
  O  O303  1  0.94333690  0.56677685  0.98028027  1
  O  O304  1  0.92921721  0.90064151  0.47424449  1
  O  O305  1  0.93534797  0.90035300  0.97473131  1
  O  O306  1  0.24381035  0.06756653  0.48674922  1
  O  O307  1  0.24396128  0.07091362  0.98011321  1
  O  O308  1  0.22970428  0.39873370  0.50017487  1
  O  O309  1  0.22594422  0.40249663  0.97414030  1
  O  O310  1  0.24941543  0.75167162  0.46996328  1
  O  O311  1  0.24531876  0.74398369  0.97985792  1
  O  O312  1  0.56641982  0.07151475  0.48157910  1
  O  O313  1  0.58185931  0.07461920  0.98253615  1
  O  O314  1  0.58415923  0.40820421  0.47663076  1
  O  O315  1  0.57554319  0.40942914  0.98139903  1
  O  O316  1  0.56985952  0.74648112  0.47908353  1
  O  O317  1  0.57264060  0.73317488  0.98141445  1
  O  O318  1  0.90096130  0.06053517  0.48058372  1
  O  O319  1  0.89514065  0.07004776  0.98097025  1
  O  O320  1  0.89397220  0.40547185  0.47245750  1
  O  O321  1  0.90743719  0.39976912  0.97131730  1
  O  O322  1  0.89908944  0.73876727  0.47301715  1
  O  O323  1  0.91629592  0.73360889  0.98104542  1
  O  O324  1  0.09756568  0.26639792  0.22169661  1
  O  O325  1  0.10451072  0.26230466  0.72910444  1
  O  O326  1  0.10408052  0.59538513  0.22132326  1
  O  O327  1  0.09613260  0.58927969  0.72871585  1
  O  O328  1  0.08847985  0.93493808  0.22240757  1
  O  O329  1  0.08643292  0.93287710  0.73113271  1
  O  O330  1  0.41520038  0.26432535  0.23337950  1
  O  O331  1  0.41839970  0.26019761  0.72447616  1
  O  O332  1  0.43082677  0.59251168  0.21585448  1
  O  O333  1  0.43607738  0.60421371  0.73069101  1
  O  O334  1  0.43291333  0.93177711  0.24464691  1
  O  O335  1  0.43223595  0.92165863  0.72831374  1
  O  O336  1  0.76855110  0.26881639  0.22667664  1
  O  O337  1  0.76357147  0.25236005  0.74199326  1
  O  O338  1  0.75206749  0.58987468  0.22773701  1
  O  O339  1  0.75195188  0.59917334  0.73543031  1
  O  O340  1  0.77113048  0.93272935  0.22642473  1
  O  O341  1  0.76102631  0.93190963  0.73257598  1
  O  O342  1  0.06423194  0.08897802  0.22792867  1
  O  O343  1  0.06766173  0.10230924  0.72357373  1
  O  O344  1  0.07477555  0.43638273  0.21776736  1
  O  O345  1  0.06998561  0.43249558  0.73233072  1
  O  O346  1  0.06553781  0.76420800  0.22607036  1
  O  O347  1  0.07325523  0.75293356  0.73384977  1
  O  O348  1  0.39688659  0.10087375  0.22679310  1
  O  O349  1  0.40209098  0.10211322  0.72960578  1
  O  O350  1  0.40042185  0.43319538  0.22229206  1
  O  O351  1  0.39212112  0.42751872  0.74417766  1
  O  O352  1  0.40639725  0.74998212  0.23300879  1
  O  O353  1  0.41407765  0.76953067  0.72090796  1
  O  O354  1  0.74417689  0.09869620  0.23135404  1
  O  O355  1  0.74240538  0.08926130  0.72882203  1
  O  O356  1  0.73524465  0.42721516  0.22112468  1
  O  O357  1  0.74555719  0.42278631  0.73410504  1
  O  O358  1  0.73552430  0.75663707  0.23366245  1
  O  O359  1  0.72977813  0.76271173  0.72757354  1
