# generated using pymatgen
data_BaLaInIrO6
_symmetry_space_group_name_H-M   'P 1'
_cell_length_a   17.50849721
_cell_length_b   17.53348029
_cell_length_c   16.49409362
_cell_angle_alpha   90.00710180
_cell_angle_beta   90.00565883
_cell_angle_gamma   89.98428376
_symmetry_Int_Tables_number   1
_chemical_formula_structural   BaLaInIrO6
_chemical_formula_sum   'Ba36 La36 In36 Ir36 O216'
_cell_volume   5063.43727654
_cell_formula_units_Z   36
loop_
 _symmetry_equiv_pos_site_id
 _symmetry_equiv_pos_as_xyz
  1  'x, y, z'
loop_
 _atom_site_type_symbol
 _atom_site_label
 _atom_site_symmetry_multiplicity
 _atom_site_fract_x
 _atom_site_fract_y
 _atom_site_fract_z
 _atom_site_occupancy
  Ba  Ba0  1  0.16324152  0.34496253  0.62342558  1
  Ba  Ba1  1  0.66540028  0.50598518  0.62131664  1
  Ba  Ba2  1  0.33438766  0.18574444  0.62759931  1
  Ba  Ba3  1  0.99909289  0.17941120  0.12499660  1
  Ba  Ba4  1  0.83609933  0.99254952  0.87531946  1
  Ba  Ba5  1  0.33654197  0.50689731  0.13198973  1
  Ba  Ba6  1  0.33278731  0.17438607  0.12483915  1
  Ba  Ba7  1  0.50221109  0.33987971  0.62581050  1
  Ba  Ba8  1  0.83663839  0.67160254  0.12236082  1
  Ba  Ba9  1  0.99877260  0.83959214  0.62372598  1
  Ba  Ba10  1  0.16751506  0.00906549  0.62487800  1
  Ba  Ba11  1  0.33469994  0.83999657  0.12658256  1
  Ba  Ba12  1  0.82948621  0.34010024  0.62754755  1
  Ba  Ba13  1  0.99978922  0.50585780  0.12565652  1
  Ba  Ba14  1  0.83056198  0.67253471  0.62239862  1
  Ba  Ba15  1  -0.00161342  0.49301218  0.87487673  1
  Ba  Ba16  1  0.66602464  0.17407265  0.62125465  1
  Ba  Ba17  1  0.66989638  0.16136972  0.87335503  1
  Ba  Ba18  1  0.50069304  0.34074810  0.12919847  1
  Ba  Ba19  1  0.50002587  0.32872009  0.37574560  1
  Ba  Ba20  1  0.50034206  0.65829064  0.88036479  1
  Ba  Ba21  1  0.16521692  0.98968785  0.87513369  1
  Ba  Ba22  1  0.66851860  0.17795199  0.12587924  1
  Ba  Ba23  1  -0.00204299  0.15656509  0.87542608  1
  Ba  Ba24  1  0.66328128  0.16147435  0.37402985  1
  Ba  Ba25  1  0.50231233  0.99460096  0.37135597  1
  Ba  Ba26  1  0.16724336  0.32479110  0.37524850  1
  Ba  Ba27  1  0.66723352  0.49569595  0.87542278  1
  Ba  Ba28  1  0.16910366  0.67549672  0.62306791  1
  Ba  Ba29  1  0.50372363  0.67449969  0.12592668  1
  Ba  Ba30  1  0.00255168  0.82652123  0.87004319  1
  Ba  Ba31  1  0.67124709  0.49161387  0.37649864  1
  Ba  Ba32  1  0.82936929  0.34175118  0.12616508  1
  Ba  Ba33  1  0.15789823  0.34301409  0.12573944  1
  Ba  Ba34  1  0.49497122  0.01949434  0.62293807  1
  Ba  Ba35  1  0.83129096  0.98837232  0.37454291  1
  La  La36  1  0.50713968  0.65277300  0.37043116  1
  La  La37  1  0.32529815  0.15003971  0.87273560  1
  La  La38  1  0.83643527  0.31534636  0.87287238  1
  La  La39  1  0.83581883  0.31525915  0.37654876  1
  La  La40  1  0.49589090  0.67917051  0.62429472  1
  La  La41  1  -0.00155499  0.81549627  0.37694693  1
  La  La42  1  1.00735246  0.51649896  0.62421529  1
  La  La43  1  1.00534250  0.84580019  0.12664979  1
  La  La44  1  0.33762711  0.16839940  0.38548817  1
  La  La45  1  0.67369474  0.84585589  0.62359749  1
  La  La46  1  -0.00592040  0.48154373  0.37760785  1
  La  La47  1  0.50038090  0.31969717  0.87646392  1
  La  La48  1  0.83497325  0.65242765  0.87392584  1
  La  La49  1  0.32626505  0.81599052  0.87749665  1
  La  La50  1  0.33307977  0.81613421  0.37558468  1
  La  La51  1  0.16139833  0.01646978  0.12562530  1
  La  La52  1  0.33240271  0.48076246  0.37716792  1
  La  La53  1  0.83500548  0.65091272  0.37317323  1
  La  La54  1  0.34324289  0.85363478  0.62815892  1
  La  La55  1  0.17224915  0.65050660  0.87300864  1
  La  La56  1  0.66970421  0.84670166  0.12884742  1
  La  La57  1  0.50604808  0.98631254  0.87404948  1
  La  La58  1  0.16280335  0.66888787  0.11814464  1
  La  La59  1  0.82907148  0.00871178  0.62984262  1
  La  La60  1  0.17342005  0.64842636  0.38058693  1
  La  La61  1  -0.00642057  0.15098108  0.36779376  1
  La  La62  1  0.17021473  0.98676240  0.37504203  1
  La  La63  1  0.49667501  0.01583491  0.12390670  1
  La  La64  1  1.00691355  0.17888154  0.62474601  1
  La  La65  1  0.66256117  0.81894270  0.37463859  1
  La  La66  1  0.33502133  0.50528397  0.62230621  1
  La  La67  1  0.67191570  0.51224814  0.12996776  1
  La  La68  1  0.32922631  0.48195224  0.87398083  1
  La  La69  1  0.16571397  0.31783329  0.87456747  1
  La  La70  1  0.66201457  0.82057595  0.87631204  1
  La  La71  1  0.82859096  0.01516462  0.12658308  1
  In  In72  1  -0.00096769  -0.00280454  0.49701011  1
  In  In73  1  0.16394612  0.16432250  0.25518083  1
  In  In74  1  -0.00235364  0.33535077  -0.00178387  1
  In  In75  1  0.66649705  -0.00076993  -0.00059554  1
  In  In76  1  0.16700367  0.82923651  0.25247727  1
  In  In77  1  0.50134497  0.83348243  0.49943044  1
  In  In78  1  0.16946904  0.83273010  0.49933388  1
  In  In79  1  0.66752277  0.33360384  0.49972300  1
  In  In80  1  0.50029077  0.49847352  0.00067033  1
  In  In81  1  0.83494429  0.83096486  0.25030564  1
  In  In82  1  0.16659046  0.83207164  0.00245857  1
  In  In83  1  -0.00135126  -0.00179703  0.74632286  1
  In  In84  1  0.16772486  0.16667307  0.74605426  1
  In  In85  1  0.33394840  0.66231643  0.00313440  1
  In  In86  1  0.33470133  0.66367302  0.74760581  1
  In  In87  1  0.17044574  0.83155108  0.74734982  1
  In  In88  1  0.83117864  0.82967882  0.75232223  1
  In  In89  1  -0.00040060  0.67014237  -0.00325986  1
  In  In90  1  0.00296043  0.66561692  0.25262068  1
  In  In91  1  0.66634398  0.33664590  0.75348807  1
  In  In92  1  0.33117480  0.33074145  0.24719033  1
  In  In93  1  0.49847719  0.83480871  0.00273876  1
  In  In94  1  0.66685445  -0.00024552  0.49727025  1
  In  In95  1  0.49949714  0.50234114  0.49978359  1
  In  In96  1  0.66300600  0.00032807  0.74812996  1
  In  In97  1  0.66290775  0.66622097  0.74688981  1
  In  In98  1  0.83699085  0.49974640  0.50379562  1
  In  In99  1  0.50076710  0.16758686  0.24838026  1
  In  In100  1  0.16649690  0.50309299  0.25355764  1
  In  In101  1  0.83208775  0.49833263  -0.00014381  1
  In  In102  1  0.66556511  0.33592874  0.00022952  1
  In  In103  1  0.16911932  0.49802696  -0.00168061  1
  In  In104  1  0.16633621  0.16576149  -0.00040550  1
  In  In105  1  0.33325709  0.00333036  0.49686272  1
  In  In106  1  0.83557918  0.16662883  0.74442010  1
  In  In107  1  0.33256257  -0.00160603  0.24935757  1
  Ir  Ir108  1  0.33402855  0.33040773  -0.00597706  1
  Ir  Ir109  1  0.49527555  0.50158197  0.75060226  1
  Ir  Ir110  1  0.16678070  0.49702834  0.74706349  1
  Ir  Ir111  1  0.00026460  0.33762225  0.74553359  1
  Ir  Ir112  1  0.16046826  0.16920370  0.49870921  1
  Ir  Ir113  1  0.83187970  0.83348924  0.00329025  1
  Ir  Ir114  1  0.33797603  0.66517360  0.26051089  1
  Ir  Ir115  1  0.33275261  0.33810342  0.75249934  1
  Ir  Ir116  1  0.83411780  0.16460278  0.00443200  1
  Ir  Ir117  1  0.50385771  0.50304269  0.25224144  1
  Ir  Ir118  1  0.66997059  0.33697497  0.25140600  1
  Ir  Ir119  1  0.32798143  0.33647463  0.50354708  1
  Ir  Ir120  1  0.49119042  0.17006741  0.75431607  1
  Ir  Ir121  1  -0.00487353  0.33452578  0.25611213  1
  Ir  Ir122  1  0.00256300  0.66458234  0.49938238  1
  Ir  Ir123  1  0.34146586  -0.00137735  0.75387014  1
  Ir  Ir124  1  0.49318509  0.16538178  -0.00611760  1
  Ir  Ir125  1  0.00148189  0.66242701  0.74693800  1
  Ir  Ir126  1  -0.00007633  -0.00139583  0.24824245  1
  Ir  Ir127  1  0.16510442  0.50060886  0.50190948  1
  Ir  Ir128  1  0.66830978  0.66820661  0.25046149  1
  Ir  Ir129  1  0.67077971  0.67103895  0.00291207  1
  Ir  Ir130  1  -0.00467335  -0.00334260  0.00760006  1
  Ir  Ir131  1  0.66610481  -0.00316981  0.24722681  1
  Ir  Ir132  1  0.49553831  0.17145751  0.50330810  1
  Ir  Ir133  1  0.83829081  0.50261744  0.74916341  1
  Ir  Ir134  1  0.83206306  0.16459905  0.25123066  1
  Ir  Ir135  1  0.66555886  0.67014781  0.49492133  1
  Ir  Ir136  1  0.83389978  0.49990167  0.25376122  1
  Ir  Ir137  1  0.83139951  0.82796557  0.49707132  1
  Ir  Ir138  1  0.50259604  0.83154794  0.25089174  1
  Ir  Ir139  1  0.49850152  0.83362603  0.75043792  1
  Ir  Ir140  1  0.84047655  0.16436709  0.49414818  1
  Ir  Ir141  1  -0.00073412  0.33172888  0.49895279  1
  Ir  Ir142  1  0.33650017  0.66426643  0.49916555  1
  Ir  Ir143  1  0.33628887  0.00050068  -0.00235981  1
  O  O144  1  0.30915532  0.33022407  0.11442490  1
  O  O145  1  0.31189412  0.34763097  0.62977467  1
  O  O146  1  0.30071278  0.66047013  0.14036204  1
  O  O147  1  0.31472099  0.64548774  0.61796550  1
  O  O148  1  0.30161815  0.99601908  0.11654571  1
  O  O149  1  0.31840803  0.99179578  0.63095556  1
  O  O150  1  0.65217615  0.33573746  0.13120455  1
  O  O151  1  0.65502941  0.33066325  0.62797489  1
  O  O152  1  0.65196586  0.65092006  0.12729147  1
  O  O153  1  0.63437406  0.66532317  0.61607279  1
  O  O154  1  0.63481306  0.98672968  0.12672020  1
  O  O155  1  0.64071258  0.98346429  0.62203408  1
  O  O156  1  0.98095414  0.33637124  0.13495234  1
  O  O157  1  0.97779688  0.31963546  0.62153818  1
  O  O158  1  0.99156798  0.65965024  0.12660968  1
  O  O159  1  0.97673947  0.65379127  0.62242548  1
  O  O160  1  0.96497179  0.98581556  0.12958091  1
  O  O161  1  0.96256962  0.99576522  0.61816063  1
  O  O162  1  0.18039756  0.15763637  0.12576899  1
  O  O163  1  0.18492321  0.17111333  0.61748258  1
  O  O164  1  0.18221303  0.51020745  0.12703431  1
  O  O165  1  0.19774295  0.49818492  0.62476562  1
  O  O166  1  0.18657484  0.80805230  0.12878702  1
  O  O167  1  0.20826654  0.83124913  0.62229698  1
  O  O168  1  0.51745008  0.15671554  0.11363650  1
  O  O169  1  0.51671793  0.17420761  0.63001117  1
  O  O170  1  0.53487076  0.49587696  0.13241856  1
  O  O171  1  0.51311694  0.49724004  0.63126941  1
  O  O172  1  0.53343162  0.82998559  0.13162366  1
  O  O173  1  0.53292441  0.82142198  0.62986992  1
  O  O174  1  0.85219319  0.15608253  0.12942158  1
  O  O175  1  0.87049311  0.15936857  0.61244164  1
  O  O176  1  0.84768366  0.50232300  0.13307390  1
  O  O177  1  0.86870907  0.49988761  0.62968718  1
  O  O178  1  0.86741802  0.82495565  0.12207121  1
  O  O179  1  0.85038548  0.82278247  0.61505124  1
  O  O180  1  0.12946334  0.16683789  0.38105026  1
  O  O181  1  0.15228145  0.17316333  0.87238560  1
  O  O182  1  0.13276530  0.50930198  0.38297222  1
  O  O183  1  0.14712384  0.50613022  0.86446407  1
  O  O184  1  0.13283806  0.84740249  0.37437913  1
  O  O185  1  0.15766550  0.83646715  0.87584670  1
  O  O186  1  0.47452970  0.16848914  0.38073991  1
  O  O187  1  0.46004547  0.17682533  0.87398383  1
  O  O188  1  0.46962004  0.51417877  0.37221391  1
  O  O189  1  0.46666854  0.50653687  0.86836606  1
  O  O190  1  0.47134699  0.83460363  0.36938554  1
  O  O191  1  0.46403101  0.84362933  0.86924312  1
  O  O192  1  0.81203225  0.17404056  0.37270898  1
  O  O193  1  0.82249750  0.17038293  0.88281449  1
  O  O194  1  0.82185740  0.50893093  0.37357594  1
  O  O195  1  0.81790150  0.51247914  0.86838586  1
  O  O196  1  0.79996990  0.83212328  0.37899834  1
  O  O197  1  0.79613493  0.83964762  0.88480983  1
  O  O198  1  0.03243161  0.00883187  0.36708592  1
  O  O199  1  0.01399751  0.00013848  0.88761506  1
  O  O200  1  0.01995646  0.34434244  0.37819052  1
  O  O201  1  0.02855022  0.33903910  0.86380444  1
  O  O202  1  0.03361978  0.67357742  0.38196419  1
  O  O203  1  0.03278633  0.66589638  0.86507118  1
  O  O204  1  0.35208195  0.03021798  0.37282950  1
  O  O205  1  0.37059671  0.00919368  0.87617107  1
  O  O206  1  0.34615467  0.33623845  0.38310029  1
  O  O207  1  0.36427886  0.34146927  0.87231144  1
  O  O208  1  0.37257029  0.67802418  0.38063911  1
  O  O209  1  0.35374957  0.67980569  0.87256631  1
  O  O210  1  0.68325626  0.00374447  0.36774127  1
  O  O211  1  0.68237781  0.00271859  0.87408377  1
  O  O212  1  0.69765421  0.33326990  0.37029646  1
  O  O213  1  0.70056936  0.33871119  0.87713307  1
  O  O214  1  0.69837818  0.68149737  0.37283173  1
  O  O215  1  0.69478228  0.68232947  0.88083104  1
  O  O216  1  0.07011720  0.08318302  0.02363759  1
  O  O217  1  0.06726068  0.10505663  0.52058935  1
  O  O218  1  0.07233528  0.42884789  0.01277385  1
  O  O219  1  0.06459132  0.43343942  0.52215611  1
  O  O220  1  0.06165626  0.77079540  0.02311630  1
  O  O221  1  0.07077496  0.75607168  0.51442908  1
  O  O222  1  0.39945734  0.09774463  0.01240155  1
  O  O223  1  0.40308670  0.10469684  0.51575560  1
  O  O224  1  0.39727013  0.42330849  0.00955792  1
  O  O225  1  0.39273246  0.43547798  0.51233251  1
  O  O226  1  0.40350293  0.76390331  0.01108694  1
  O  O227  1  0.40091177  0.75846572  0.52816134  1
  O  O228  1  0.74528812  0.09066654  0.02184291  1
  O  O229  1  0.75695541  0.08553322  0.52055013  1
  O  O230  1  0.72950233  0.43855988  0.02523820  1
  O  O231  1  0.74672712  0.42469458  0.51436318  1
  O  O232  1  0.73512427  0.76987909  0.02693005  1
  O  O233  1  0.73045028  0.76595369  0.51887969  1
  O  O234  1  0.09472631  0.26307832  0.00334354  1
  O  O235  1  0.08972719  0.25981597  0.52174265  1
  O  O236  1  0.10643199  0.60602724  0.00386178  1
  O  O237  1  0.09347766  0.59181094  0.52447438  1
  O  O238  1  0.09067197  0.93148226  0.03104805  1
  O  O239  1  0.09691891  0.93062494  0.51336207  1
  O  O240  1  0.43091731  0.26525008  0.01057971  1
  O  O241  1  0.42109635  0.26540618  0.51723323  1
  O  O242  1  0.42724975  0.58921099  0.02383461  1
  O  O243  1  0.43233320  0.60283497  0.52207216  1
  O  O244  1  0.43351706  0.94100438  0.02068001  1
  O  O245  1  0.42375662  0.92275402  0.51927337  1
  O  O246  1  0.76296465  0.25499377  0.01099118  1
  O  O247  1  0.76692151  0.25107586  0.50867564  1
  O  O248  1  0.75853811  0.60074147  0.00780809  1
  O  O249  1  0.75852297  0.60068522  0.50522448  1
  O  O250  1  0.76347127  0.92339960  0.03564806  1
  O  O251  1  0.76721530  0.92146371  0.52445812  1
  O  O252  1  0.22195321  0.05571889  0.26052711  1
  O  O253  1  0.25041412  0.07056707  0.77113268  1
  O  O254  1  0.24656568  0.41385428  0.26988885  1
  O  O255  1  0.23479214  0.40273190  0.77809385  1
  O  O256  1  0.24651325  0.73269394  0.29016963  1
  O  O257  1  0.23813361  0.73289137  0.77359332  1
  O  O258  1  0.57780537  0.07063470  0.25772728  1
  O  O259  1  0.55785686  0.07521442  0.77293491  1
  O  O260  1  0.57778237  0.40915723  0.27270755  1
  O  O261  1  0.56080012  0.40774001  0.77556606  1
  O  O262  1  0.57359511  0.73691034  0.27808030  1
  O  O263  1  0.56683759  0.74466501  0.77298111  1
  O  O264  1  0.90368562  0.06973490  0.26841887  1
  O  O265  1  0.90595849  0.07353402  0.76013910  1
  O  O266  1  0.89837056  0.40277314  0.27993519  1
  O  O267  1  0.90304752  0.40394817  0.77103179  1
  O  O268  1  0.90157054  0.73339449  0.28241969  1
  O  O269  1  0.90571000  0.72768842  0.77202740  1
  O  O270  1  0.26335968  0.23017139  0.27745553  1
  O  O271  1  0.26454982  0.24509558  0.77650054  1
  O  O272  1  0.27238340  0.57449375  0.29137129  1
  O  O273  1  0.26208023  0.56152663  0.76895385  1
  O  O274  1  0.26737555  0.89777474  0.27939174  1
  O  O275  1  0.28236851  0.90023701  0.76868771  1
  O  O276  1  0.59698811  0.24691880  0.26328501  1
  O  O277  1  0.57922094  0.24239327  0.77593796  1
  O  O278  1  0.59562834  0.57738362  0.27285740  1
  O  O279  1  0.58825483  0.57036268  0.76511777  1
  O  O280  1  0.60194730  0.89668693  0.27104719  1
  O  O281  1  0.58915324  0.90107280  0.78028902  1
  O  O282  1  0.92412784  0.23841140  0.27938576  1
  O  O283  1  0.92989580  0.24939569  0.76572261  1
  O  O284  1  0.93088266  0.56499331  0.27747288  1
  O  O285  1  0.92990157  0.57342134  0.76582423  1
  O  O286  1  0.93703926  0.90279923  0.27399861  1
  O  O287  1  0.92182829  0.90435208  0.76440431  1
  O  O288  1  0.25975253  0.23700498  0.48057536  1
  O  O289  1  0.26853279  0.23847640  0.97102117  1
  O  O290  1  0.26468240  0.56757728  0.47309425  1
  O  O291  1  0.26587820  0.56507043  0.96635400  1
  O  O292  1  0.26406729  0.90613640  0.46517420  1
  O  O293  1  0.27465461  0.90420084  0.97777327  1
  O  O294  1  0.58481771  0.24130035  0.48671113  1
  O  O295  1  0.58330269  0.23592301  0.97817933  1
  O  O296  1  0.59308804  0.58330217  0.47392467  1
  O  O297  1  0.60061709  0.57968722  0.98914300  1
  O  O298  1  0.60279002  0.89685604  0.47653843  1
  O  O299  1  0.59404242  0.90303891  0.97263111  1
  O  O300  1  0.93220088  0.23793092  0.46710607  1
  O  O301  1  0.92122521  0.23801044  0.98566071  1
  O  O302  1  0.93543698  0.57152612  0.47740023  1
  O  O303  1  0.91991563  0.58038308  0.98091074  1
  O  O304  1  0.92585655  0.89266389  0.47127856  1
  O  O305  1  0.92557585  0.90129480  0.98588226  1
  O  O306  1  0.22770259  0.07701779  0.47523671  1
  O  O307  1  0.24540630  0.06941950  0.97937812  1
  O  O308  1  0.23872801  0.41205547  0.47830686  1
  O  O309  1  0.23980944  0.39506752  0.96879254  1
  O  O310  1  0.24458000  0.73234654  0.47081994  1
  O  O311  1  0.23086814  0.72704944  0.98184715  1
  O  O312  1  0.57012260  0.08246403  0.48945461  1
  O  O313  1  0.55683804  0.06804478  0.98057018  1
  O  O314  1  0.57524520  0.41243640  0.48538259  1
  O  O315  1  0.56430291  0.40065965  0.97449315  1
  O  O316  1  0.57134581  0.73503697  0.47212618  1
  O  O317  1  0.58355237  0.74329622  0.98440779  1
  O  O318  1  0.91342616  0.08071849  0.46494017  1
  O  O319  1  0.89975958  0.06478177  0.99891788  1
  O  O320  1  0.90915479  0.40035900  0.47340059  1
  O  O321  1  0.89660655  0.39842179  0.97377807  1
  O  O322  1  0.90525336  0.73179990  0.47006443  1
  O  O323  1  0.89358654  0.74157061  0.97078527  1
  O  O324  1  0.08533337  0.26313728  0.24045396  1
  O  O325  1  0.08964909  0.26574315  0.73307244  1
  O  O326  1  0.11498361  0.61340036  0.24427264  1
  O  O327  1  0.09441533  0.58823349  0.72211743  1
  O  O328  1  0.09462952  0.93610883  0.22089147  1
  O  O329  1  0.09440766  0.92417678  0.73363375  1
  O  O330  1  0.42460686  0.25820069  0.23744693  1
  O  O331  1  0.42706847  0.26976401  0.73763718  1
  O  O332  1  0.43404217  0.59704066  0.23549983  1
  O  O333  1  0.43437480  0.59682043  0.72314217  1
  O  O334  1  0.43802285  0.92452746  0.22540879  1
  O  O335  1  0.43339971  0.92682736  0.72807765  1
  O  O336  1  0.76507886  0.26459451  0.23886534  1
  O  O337  1  0.76204035  0.25931436  0.74705822  1
  O  O338  1  0.76578329  0.59835293  0.23883144  1
  O  O339  1  0.76689388  0.59539966  0.73989021  1
  O  O340  1  0.75875627  0.92696810  0.22336543  1
  O  O341  1  0.75741557  0.92336122  0.71818917  1
  O  O342  1  0.06289722  0.09117950  0.22993991  1
  O  O343  1  0.07043703  0.09796569  0.72462138  1
  O  O344  1  0.06356662  0.42930217  0.24760008  1
  O  O345  1  0.06763443  0.43247515  0.72207942  1
  O  O346  1  0.05679239  0.77614014  0.24015316  1
  O  O347  1  0.07104490  0.75018934  0.72886747  1
  O  O348  1  0.41499714  0.08346820  0.22092281  1
  O  O349  1  0.39958134  0.10075319  0.73926581  1
  O  O350  1  0.41461983  0.42983234  0.24432449  1
  O  O351  1  0.39420151  0.44036869  0.73405995  1
  O  O352  1  0.40665335  0.76132226  0.23633107  1
  O  O353  1  0.40825366  0.76475632  0.71831945  1
  O  O354  1  0.74196123  0.08558540  0.22241483  1
  O  O355  1  0.74375807  0.08844503  0.72280283  1
  O  O356  1  0.73638413  0.43532608  0.23135507  1
  O  O357  1  0.74788414  0.43576700  0.73435728  1
  O  O358  1  0.73027682  0.76434791  0.22761175  1
  O  O359  1  0.72766942  0.76689178  0.73237309  1
