# generated using pymatgen
data_BaLaInIrO6
_symmetry_space_group_name_H-M   'P 1'
_cell_length_a   17.52271945
_cell_length_b   17.54940858
_cell_length_c   16.50472717
_cell_angle_alpha   90.03653181
_cell_angle_beta   89.98561143
_cell_angle_gamma   90.00568608
_symmetry_Int_Tables_number   1
_chemical_formula_structural   BaLaInIrO6
_chemical_formula_sum   'Ba36 La36 In36 Ir36 O216'
_cell_volume   5075.42293978
_cell_formula_units_Z   36
loop_
 _symmetry_equiv_pos_site_id
 _symmetry_equiv_pos_as_xyz
  1  'x, y, z'
loop_
 _atom_site_type_symbol
 _atom_site_label
 _atom_site_symmetry_multiplicity
 _atom_site_fract_x
 _atom_site_fract_y
 _atom_site_fract_z
 _atom_site_occupancy
  Ba  Ba0  1  -0.00163118  0.82483589  0.37947654  1
  Ba  Ba1  1  0.83389648  0.01009910  0.61784088  1
  Ba  Ba2  1  0.49416808  0.67872173  0.62663522  1
  Ba  Ba3  1  0.16973328  0.65825554  0.87390786  1
  Ba  Ba4  1  0.33680779  0.50576315  0.62423733  1
  Ba  Ba5  1  0.83621134  0.32602887  0.87323387  1
  Ba  Ba6  1  -0.00389088  0.16141875  0.87229842  1
  Ba  Ba7  1  0.33346788  0.50663956  0.12468647  1
  Ba  Ba8  1  0.66917309  0.50803505  0.12941838  1
  Ba  Ba9  1  0.33012224  0.81797537  0.37662710  1
  Ba  Ba10  1  0.16407349  0.33995645  0.62783399  1
  Ba  Ba11  1  0.83386849  0.99539758  0.87224059  1
  Ba  Ba12  1  0.33408049  0.83777885  0.12374825  1
  Ba  Ba13  1  0.66440199  0.84227719  0.62418833  1
  Ba  Ba14  1  0.66950191  0.84461431  0.12548808  1
  Ba  Ba15  1  0.66713059  0.15963395  0.87005936  1
  Ba  Ba16  1  0.83574480  0.00952470  0.12492117  1
  Ba  Ba17  1  0.16081302  0.67920302  0.12306884  1
  Ba  Ba18  1  0.50352241  0.32545526  0.37773944  1
  Ba  Ba19  1  0.49749529  0.65745006  0.87733704  1
  Ba  Ba20  1  0.32879681  0.17685412  0.62279782  1
  Ba  Ba21  1  1.00202524  0.51323599  0.12191709  1
  Ba  Ba22  1  0.83638725  0.33928864  0.62717031  1
  Ba  Ba23  1  0.83484784  0.65806199  0.37558076  1
  Ba  Ba24  1  0.16856003  0.32262413  0.87745097  1
  Ba  Ba25  1  0.83120467  0.67471398  0.12434328  1
  Ba  Ba26  1  0.66967679  0.50434951  0.62802232  1
  Ba  Ba27  1  0.66473887  0.82434753  0.37615632  1
  Ba  Ba28  1  0.17240507  0.98317056  0.38124042  1
  Ba  Ba29  1  0.16445938  0.00783817  0.62317865  1
  Ba  Ba30  1  0.49660982  0.32510623  0.87619837  1
  Ba  Ba31  1  0.49897188  0.67352274  0.12370054  1
  Ba  Ba32  1  -0.00248124  0.82743514  0.87380088  1
  Ba  Ba33  1  1.00448510  0.50680267  0.62446614  1
  Ba  Ba34  1  0.33329207  0.17340659  0.13303631  1
  Ba  Ba35  1  0.16451112  0.67569075  0.62634049  1
  La  La36  1  0.99863507  0.84326054  0.12787277  1
  La  La37  1  0.33591712  0.84677633  0.62398191  1
  La  La38  1  0.67082207  0.18048157  0.12229481  1
  La  La39  1  0.83689181  0.65161843  0.87427965  1
  La  La40  1  0.66458458  0.18156163  0.62258412  1
  La  La41  1  0.33280447  0.48748403  0.37599418  1
  La  La42  1  0.33211541  0.14829904  0.38070027  1
  La  La43  1  0.15692923  0.00481459  0.12561718  1
  La  La44  1  0.49296446  0.01229487  0.62038633  1
  La  La45  1  -0.00697132  0.15441493  0.37217627  1
  La  La46  1  0.50295619  0.98787473  0.36972465  1
  La  La47  1  1.00336691  0.84589394  0.62576856  1
  La  La48  1  0.83698910  0.32177393  0.36950596  1
  La  La49  1  0.50568418  0.98741738  0.87591937  1
  La  La50  1  0.49586425  0.35015514  0.12623507  1
  La  La51  1  0.16063669  0.35271912  0.12595702  1
  La  La52  1  0.16877099  0.65324089  0.37594102  1
  La  La53  1  0.32891742  0.48256539  0.87221772  1
  La  La54  1  0.66664173  0.82217657  0.87861332  1
  La  La55  1  0.16858629  0.98412764  0.87040634  1
  La  La56  1  0.49747121  0.01227491  0.12555503  1
  La  La57  1  0.50740061  0.64955237  0.37116623  1
  La  La58  1  0.66199288  0.48173173  0.88121334  1
  La  La59  1  1.00896224  0.18248626  0.62943253  1
  La  La60  1  0.83235633  0.35022043  0.12541314  1
  La  La61  1  0.82946285  0.68145073  0.62518230  1
  La  La62  1  0.00070314  0.48833951  0.37340495  1
  La  La63  1  0.66416884  0.15431496  0.37512204  1
  La  La64  1  0.49294588  0.34327542  0.62978406  1
  La  La65  1  0.17222098  0.32329527  0.37736742  1
  La  La66  1  0.32118407  0.14945101  0.86892786  1
  La  La67  1  0.32923953  0.81892340  0.87238967  1
  La  La68  1  0.83560854  0.98549942  0.37301618  1
  La  La69  1  1.00426922  0.18483327  0.12277197  1
  La  La70  1  -0.00093441  0.48725042  0.87403876  1
  La  La71  1  0.66712821  0.48920085  0.37646259  1
  In  In72  1  -0.00115541  0.33386209  0.49667765  1
  In  In73  1  0.49687497  0.83167919  0.49719485  1
  In  In74  1  0.83232162  0.83165892  0.25000117  1
  In  In75  1  0.66681889  0.66546515  0.00014578  1
  In  In76  1  0.66685030  0.00385858  0.00027450  1
  In  In77  1  0.16394090  0.16685416  0.49803046  1
  In  In78  1  0.83533923  0.50090390  0.74717109  1
  In  In79  1  0.33210717  0.66623207  0.74717770  1
  In  In80  1  -0.00064732  0.00366204  -0.00244078  1
  In  In81  1  0.49991078  0.83138713  0.24610558  1
  In  In82  1  0.33156997  -0.00180818  0.24849671  1
  In  In83  1  0.49535079  0.16383533  0.75126702  1
  In  In84  1  0.00038440  0.66712775  0.25184432  1
  In  In85  1  0.66828450  0.33266060  0.25101681  1
  In  In86  1  0.16588782  0.16698251  0.25204592  1
  In  In87  1  0.83261100  0.83415000  0.50198606  1
  In  In88  1  0.83364049  0.16415182  0.74376392  1
  In  In89  1  0.16720987  0.16294820  0.00122847  1
  In  In90  1  -0.00085866  0.00291124  0.49928239  1
  In  In91  1  0.50177698  0.16982787  0.25118417  1
  In  In92  1  0.16852734  0.49914748  0.50130814  1
  In  In93  1  0.66581164  0.33126303  0.74923431  1
  In  In94  1  0.50154412  0.49758719  0.49938388  1
  In  In95  1  0.16761855  0.83139108  0.25253209  1
  In  In96  1  0.66533261  0.66303520  0.50155138  1
  In  In97  1  0.00016276  0.66775964  0.74910109  1
  In  In98  1  0.83304539  0.83429807  -0.00246130  1
  In  In99  1  -0.00043578  0.66993536  -0.00314243  1
  In  In100  1  0.50210552  0.50071210  0.75407764  1
  In  In101  1  0.33228184  -0.00182413  0.00041625  1
  In  In102  1  0.16772864  0.50062382  -0.00206924  1
  In  In103  1  0.49797448  0.16645747  0.00087227  1
  In  In104  1  0.66780629  0.66573488  0.75185140  1
  In  In105  1  0.33380987  0.66434227  0.00145435  1
  In  In106  1  0.33285951  0.32666796  0.00422198  1
  In  In107  1  0.66416396  0.00374593  0.50122788  1
  Ir  Ir108  1  0.50055221  0.49656754  0.00215856  1
  Ir  Ir109  1  0.33559256  -0.00164701  0.74863252  1
  Ir  Ir110  1  0.00144399  -0.00084617  0.74833529  1
  Ir  Ir111  1  0.00186183  0.33553240  0.24820322  1
  Ir  Ir112  1  0.66219393  -0.00305321  0.74760075  1
  Ir  Ir113  1  0.66771580  0.33251379  0.00413943  1
  Ir  Ir114  1  0.83532760  0.49825270  0.49506290  1
  Ir  Ir115  1  0.49728666  0.49893916  0.25071667  1
  Ir  Ir116  1  0.16743887  0.82730091  0.50560519  1
  Ir  Ir117  1  0.66628531  0.66095245  0.25195398  1
  Ir  Ir118  1  0.16843411  0.83952426  -0.00286110  1
  Ir  Ir119  1  0.49820504  0.83936329  0.75243107  1
  Ir  Ir120  1  0.16694888  0.49842004  0.25408310  1
  Ir  Ir121  1  0.83438605  0.49767393  0.25327552  1
  Ir  Ir122  1  0.49998010  0.16712133  0.49784201  1
  Ir  Ir123  1  0.83160526  0.83698486  0.74805049  1
  Ir  Ir124  1  0.33307089  0.66540132  0.49718377  1
  Ir  Ir125  1  0.67109989  0.33198454  0.49603994  1
  Ir  Ir126  1  0.16820522  0.83786912  0.74856970  1
  Ir  Ir127  1  0.82984592  0.17157904  0.49256379  1
  Ir  Ir128  1  0.16693537  0.49555174  0.75131826  1
  Ir  Ir129  1  0.33544654  -0.00055254  0.50490128  1
  Ir  Ir130  1  0.49968459  0.83496535  -0.00416073  1
  Ir  Ir131  1  0.83170964  0.49623291  0.00033052  1
  Ir  Ir132  1  0.33219683  0.33509337  0.25517320  1
  Ir  Ir133  1  0.83474729  0.16982501  0.24859621  1
  Ir  Ir134  1  -0.00161521  0.00568980  0.25086387  1
  Ir  Ir135  1  0.33385111  0.65957535  0.25457128  1
  Ir  Ir136  1  0.33100352  0.33184151  0.74603909  1
  Ir  Ir137  1  -0.00306050  0.33412400  0.00477885  1
  Ir  Ir138  1  0.66858869  0.00742362  0.25150466  1
  Ir  Ir139  1  0.16464895  0.16270818  0.75084582  1
  Ir  Ir140  1  0.83452170  0.17257920  0.00521909  1
  Ir  Ir141  1  0.00327915  0.33271463  0.75418062  1
  Ir  Ir142  1  0.00076287  0.66454410  0.50140400  1
  Ir  Ir143  1  0.33721822  0.33037713  0.49691244  1
  O  O144  1  0.29766485  0.33004823  0.13759666  1
  O  O145  1  0.31219578  0.33153704  0.61921122  1
  O  O146  1  0.31234993  0.66139573  0.13282251  1
  O  O147  1  0.31316149  0.66370967  0.61741014  1
  O  O148  1  0.29131805  0.99578067  0.12392139  1
  O  O149  1  0.30999884  0.98584993  0.62788214  1
  O  O150  1  0.63663354  0.32407909  0.12454158  1
  O  O151  1  0.63487912  0.32324380  0.61462045  1
  O  O152  1  0.64920227  0.66139814  0.13200320  1
  O  O153  1  0.64268364  0.66019502  0.62753788  1
  O  O154  1  0.63605100  1.00569480  0.13212589  1
  O  O155  1  0.62976257  0.99815632  0.62959588  1
  O  O156  1  0.96752732  0.32557265  0.12730538  1
  O  O157  1  0.98672817  0.32533495  0.63034397  1
  O  O158  1  0.98387623  0.66891408  0.12376798  1
  O  O159  1  0.96850911  0.66093086  0.62238391  1
  O  O160  1  0.98881300  0.98663729  0.13095931  1
  O  O161  1  0.98483488  0.98727550  0.62898379  1
  O  O162  1  0.18593258  0.14448294  0.12851284  1
  O  O163  1  0.17834605  0.16552051  0.62953173  1
  O  O164  1  0.18384647  0.48994431  0.13293586  1
  O  O165  1  0.18704215  0.49653829  0.63024772  1
  O  O166  1  0.18172496  0.84802180  0.11728729  1
  O  O167  1  0.19806489  0.83518211  0.62720143  1
  O  O168  1  0.53734587  0.15243020  0.12720145  1
  O  O169  1  0.52936863  0.15431895  0.61717079  1
  O  O170  1  0.52281835  0.48828381  0.12631172  1
  O  O171  1  0.51712232  0.48221852  0.62468539  1
  O  O172  1  0.52163881  0.82991023  0.11628304  1
  O  O173  1  0.51541440  0.83532081  0.63213660  1
  O  O174  1  0.86747213  0.16727358  0.12840130  1
  O  O175  1  0.86800244  0.16786390  0.61083869  1
  O  O176  1  0.85678195  0.48693663  0.12735689  1
  O  O177  1  0.85679519  0.49220204  0.61423960  1
  O  O178  1  0.86328843  0.83185818  0.12679078  1
  O  O179  1  0.86558628  0.82482007  0.62985401  1
  O  O180  1  0.12912769  0.18507162  0.37285604  1
  O  O181  1  0.14692674  0.16452507  0.86982463  1
  O  O182  1  0.14013617  0.50686133  0.37225205  1
  O  O183  1  0.13807195  0.49332345  0.86966886  1
  O  O184  1  0.14939889  0.82083232  0.38591072  1
  O  O185  1  0.14635656  0.84304688  0.87262445  1
  O  O186  1  0.46644670  0.17328412  0.38023460  1
  O  O187  1  0.45872912  0.17006662  0.87515707  1
  O  O188  1  0.46883553  0.50500556  0.37067732  1
  O  O189  1  0.46726050  0.49552632  0.88386733  1
  O  O190  1  0.47750210  0.85075619  0.37060318  1
  O  O191  1  0.46645542  0.84819192  0.87367534  1
  O  O192  1  0.79876145  0.18255883  0.36945003  1
  O  O193  1  0.81744531  0.17164808  0.88203826  1
  O  O194  1  0.80313942  0.50101124  0.37383039  1
  O  O195  1  0.80054820  0.50260711  0.88156847  1
  O  O196  1  0.81580164  0.84764917  0.37459008  1
  O  O197  1  0.80206500  0.84400894  0.86545485  1
  O  O198  1  0.02068758  0.01765061  0.37038078  1
  O  O199  1  0.02882689  0.00562575  0.86776027  1
  O  O200  1  0.03410851  0.34513742  0.36552089  1
  O  O201  1  0.02038065  0.34469610  0.88009240  1
  O  O202  1  0.03171969  0.66744727  0.38177673  1
  O  O203  1  0.02326596  0.67536042  0.87207488  1
  O  O204  1  0.36527493  0.00761343  0.38499364  1
  O  O205  1  0.36684232  0.01003431  0.86702096  1
  O  O206  1  0.35856569  0.34773029  0.37586532  1
  O  O207  1  0.34581693  0.34096389  0.86784947  1
  O  O208  1  0.36536777  0.66196385  0.37584538  1
  O  O209  1  0.34596459  0.68308658  0.87381334  1
  O  O210  1  0.70120361  0.01778672  0.37077040  1
  O  O211  1  0.68437484  0.00136119  0.86489515  1
  O  O212  1  0.70189432  0.34252406  0.37664594  1
  O  O213  1  0.68733383  0.33930387  0.88371952  1
  O  O214  1  0.68385142  0.65838616  0.37004703  1
  O  O215  1  0.70050045  0.68163191  0.87451893  1
  O  O216  1  0.06650592  0.09886594  0.02845520  1
  O  O217  1  0.06161680  0.10165681  0.51886237  1
  O  O218  1  0.07080412  0.42031410  0.01934025  1
  O  O219  1  0.07071829  0.42988279  0.50406688  1
  O  O220  1  0.07086029  0.77881054  0.02198897  1
  O  O221  1  0.06700621  0.76113683  0.52845739  1
  O  O222  1  0.41106495  0.08524714  0.03317812  1
  O  O223  1  0.40785122  0.09415272  0.52313002  1
  O  O224  1  0.41418293  0.42234998  0.02154432  1
  O  O225  1  0.41011073  0.41726367  0.51539451  1
  O  O226  1  0.40939947  0.76439455  0.00848114  1
  O  O227  1  0.39447148  0.76266025  0.52220954  1
  O  O228  1  0.73893459  0.10854365  0.02296611  1
  O  O229  1  0.73268330  0.10873339  0.51807092  1
  O  O230  1  0.74157168  0.42175073  0.02613935  1
  O  O231  1  0.73778570  0.43121377  0.51102125  1
  O  O232  1  0.73394485  0.76482936  0.01226296  1
  O  O233  1  0.74705458  0.75118981  0.52086437  1
  O  O234  1  0.09156280  0.26556636  0.02951141  1
  O  O235  1  0.08986228  0.25982079  0.51770465  1
  O  O236  1  0.09409545  0.59314175  0.01116199  1
  O  O237  1  0.09353141  0.59854316  0.51256927  1
  O  O238  1  0.10999661  0.94001188  0.00606891  1
  O  O239  1  0.09209657  0.91518844  0.51909593  1
  O  O240  1  0.43426137  0.26628650  0.03317761  1
  O  O241  1  0.43392553  0.26353619  0.52594042  1
  O  O242  1  0.43150068  0.58638955  0.01738456  1
  O  O243  1  0.42518629  0.59773100  0.51058676  1
  O  O244  1  0.43622871  0.92882261  0.01875188  1
  O  O245  1  0.42226348  0.92816568  0.53076408  1
  O  O246  1  0.76263266  0.26540879  0.03400728  1
  O  O247  1  0.76147279  0.26242384  0.51749385  1
  O  O248  1  0.76442313  0.58634229  0.01295755  1
  O  O249  1  0.77081408  0.58984249  0.52141723  1
  O  O250  1  0.75836321  0.93092907  0.01437216  1
  O  O251  1  0.75619151  0.92954014  0.51183621  1
  O  O252  1  0.24763976  0.08196066  0.28587138  1
  O  O253  1  0.23905512  0.06814348  0.77444260  1
  O  O254  1  0.23397937  0.40181597  0.27924573  1
  O  O255  1  0.24184072  0.40737288  0.77214506  1
  O  O256  1  0.23884206  0.72407623  0.27303038  1
  O  O257  1  0.23946152  0.74989335  0.76525344  1
  O  O258  1  0.57819270  0.07242827  0.28194320  1
  O  O259  1  0.56547291  0.05977447  0.76852857  1
  O  O260  1  0.57449919  0.41352804  0.26869947  1
  O  O261  1  0.57525534  0.40637663  0.77107124  1
  O  O262  1  0.57270852  0.72957777  0.27197539  1
  O  O263  1  0.57056411  0.75257557  0.77619547  1
  O  O264  1  0.90054922  0.07409433  0.27657773  1
  O  O265  1  0.91152885  0.07099177  0.75977870  1
  O  O266  1  0.90541640  0.40299007  0.27705273  1
  O  O267  1  0.92074537  0.41158438  0.77210811  1
  O  O268  1  0.90857485  0.74091332  0.27092840  1
  O  O269  1  0.89411600  0.74089507  0.76904795  1
  O  O270  1  0.26454896  0.24524263  0.28520860  1
  O  O271  1  0.26111574  0.23218679  0.77060357  1
  O  O272  1  0.26313531  0.56434901  0.28235553  1
  O  O273  1  0.25959327  0.56307338  0.77293721  1
  O  O274  1  0.25958267  0.90356394  0.27069479  1
  O  O275  1  0.26520375  0.90591864  0.77590732  1
  O  O276  1  0.60290066  0.23463183  0.27551117  1
  O  O277  1  0.59044337  0.23529583  0.75539203  1
  O  O278  1  0.59215764  0.56793375  0.27830281  1
  O  O279  1  0.60292707  0.56606261  0.78367885  1
  O  O280  1  0.59766792  0.91799813  0.27123691  1
  O  O281  1  0.59452196  0.90401090  0.77864757  1
  O  O282  1  0.93201290  0.23885162  0.27483490  1
  O  O283  1  0.92793729  0.24576499  0.75908849  1
  O  O284  1  0.92918165  0.56277764  0.27387996  1
  O  O285  1  0.92882091  0.57126209  0.78340843  1
  O  O286  1  0.92924807  0.91741947  0.26987597  1
  O  O287  1  0.93078178  0.90505791  0.76147980  1
  O  O288  1  0.26450769  0.24140575  0.47089956  1
  O  O289  1  0.26890400  0.22656969  0.97805210  1
  O  O290  1  0.26560808  0.57182231  0.47052482  1
  O  O291  1  0.26887456  0.56499870  0.97234527  1
  O  O292  1  0.26531201  0.90058678  0.49005751  1
  O  O293  1  0.26398880  0.90042834  0.96683500  1
  O  O294  1  0.60253659  0.23263104  0.47695615  1
  O  O295  1  0.60116858  0.24113496  0.98688333  1
  O  O296  1  0.59425501  0.56807598  0.46797713  1
  O  O297  1  0.59389595  0.56539669  0.97845561  1
  O  O298  1  0.58225105  0.91757386  0.47673232  1
  O  O299  1  0.59059369  0.90293587  0.97128303  1
  O  O300  1  0.92187111  0.24014329  0.46289465  1
  O  O301  1  0.93030687  0.23932197  0.99130182  1
  O  O302  1  0.93528023  0.56441850  0.47307717  1
  O  O303  1  0.92196304  0.56394542  0.97209869  1
  O  O304  1  0.92230295  0.91484734  0.48557010  1
  O  O305  1  0.93306055  0.90579140  0.99230931  1
  O  O306  1  0.24791381  0.07666993  0.48174582  1
  O  O307  1  0.23734734  0.06642353  0.96296462  1
  O  O308  1  0.24535968  0.40225532  0.47189402  1
  O  O309  1  0.24118642  0.40385495  0.99235170  1
  O  O310  1  0.23525248  0.72837378  0.48012690  1
  O  O311  1  0.23647207  0.74741094  0.98771529  1
  O  O312  1  0.56630111  0.07640925  0.46832110  1
  O  O313  1  0.56810021  0.06739226  0.97302837  1
  O  O314  1  0.58716507  0.40686587  0.47415683  1
  O  O315  1  0.57685382  0.40658429  0.98095041  1
  O  O316  1  0.56491032  0.73306198  0.47486147  1
  O  O317  1  0.57149179  0.74712156  0.97562855  1
  O  O318  1  0.89483331  0.07931441  0.46592719  1
  O  O319  1  0.90237395  0.08233460  0.98692823  1
  O  O320  1  0.90244632  0.40644247  0.46507617  1
  O  O321  1  0.90358480  0.40539498  0.98517302  1
  O  O322  1  0.91267932  0.73448505  0.48890335  1
  O  O323  1  0.89635356  0.73178494  0.97078022  1
  O  O324  1  0.09375845  0.26838593  0.21924977  1
  O  O325  1  0.08846001  0.25119300  0.72967791  1
  O  O326  1  0.10231654  0.59331424  0.24168050  1
  O  O327  1  0.09635431  0.58532958  0.73552492  1
  O  O328  1  0.09318622  0.93936920  0.23690312  1
  O  O329  1  0.09725765  0.92989498  0.73435043  1
  O  O330  1  0.42930512  0.27196405  0.22803922  1
  O  O331  1  0.42284670  0.26386262  0.72268163  1
  O  O332  1  0.42947945  0.59275372  0.23721082  1
  O  O333  1  0.42643388  0.59277719  0.73723232  1
  O  O334  1  0.43384868  0.93240943  0.22366822  1
  O  O335  1  0.43131805  0.93362786  0.72390893  1
  O  O336  1  0.77163040  0.26442320  0.22416270  1
  O  O337  1  0.75147946  0.24833340  0.72305290  1
  O  O338  1  0.76202558  0.59009874  0.23297975  1
  O  O339  1  0.77503231  0.60525599  0.72986813  1
  O  O340  1  0.75789003  0.93742043  0.23809397  1
  O  O341  1  0.76006196  0.93089970  0.72506228  1
  O  O342  1  0.05833675  0.10215147  0.23065884  1
  O  O343  1  0.06704037  0.09540857  0.72548130  1
  O  O344  1  0.07363101  0.42709975  0.22618338  1
  O  O345  1  0.07433846  0.42402744  0.73628098  1
  O  O346  1  0.06947413  0.76974708  0.22878584  1
  O  O347  1  0.07290844  0.77174303  0.72325544  1
  O  O348  1  0.41412302  0.08894598  0.23559984  1
  O  O349  1  0.40423583  0.08676531  0.72085914  1
  O  O350  1  0.40595060  0.42529293  0.22912785  1
  O  O351  1  0.40477498  0.41846099  0.73333253  1
  O  O352  1  0.40303844  0.75015294  0.23648007  1
  O  O353  1  0.40088929  0.77625434  0.73399861  1
  O  O354  1  0.73482972  0.10676537  0.22708591  1
  O  O355  1  0.72836700  0.09037191  0.72085845  1
  O  O356  1  0.74749640  0.42437703  0.23384644  1
  O  O357  1  0.74503275  0.42263052  0.73979668  1
  O  O358  1  0.73402972  0.75297040  0.23741376  1
  O  O359  1  0.74412150  0.76815527  0.72887952  1
