# generated using pymatgen
data_BaLaInIrO6
_symmetry_space_group_name_H-M   'P 1'
_cell_length_a   17.51148593
_cell_length_b   17.53713774
_cell_length_c   16.47531216
_cell_angle_alpha   89.97623718
_cell_angle_beta   90.01577713
_cell_angle_gamma   89.96117335
_symmetry_Int_Tables_number   1
_chemical_formula_structural   BaLaInIrO6
_chemical_formula_sum   'Ba36 La36 In36 Ir36 O216'
_cell_volume   5059.58866533
_cell_formula_units_Z   36
loop_
 _symmetry_equiv_pos_site_id
 _symmetry_equiv_pos_as_xyz
  1  'x, y, z'
loop_
 _atom_site_type_symbol
 _atom_site_label
 _atom_site_symmetry_multiplicity
 _atom_site_fract_x
 _atom_site_fract_y
 _atom_site_fract_z
 _atom_site_occupancy
  Ba  Ba0  1  0.66551138  0.49152875  0.87672749  1
  Ba  Ba1  1  0.33257987  0.17780747  0.62639173  1
  Ba  Ba2  1  0.50129018  0.32727216  0.38115969  1
  Ba  Ba3  1  0.33112426  0.50843230  0.62876171  1
  Ba  Ba4  1  0.83266262  0.65075584  0.87683225  1
  Ba  Ba5  1  0.32957071  0.15315933  0.87310674  1
  Ba  Ba6  1  0.83371768  0.34066480  0.12819058  1
  Ba  Ba7  1  0.67005932  0.50858005  0.62836423  1
  Ba  Ba8  1  0.83512855  0.65483543  0.37112718  1
  Ba  Ba9  1  -0.00140813  0.82596342  0.87561792  1
  Ba  Ba10  1  0.33410508  0.49024918  0.87758427  1
  Ba  Ba11  1  0.16549817  0.98951323  0.37507986  1
  Ba  Ba12  1  0.16352379  0.33948968  0.12217149  1
  Ba  Ba13  1  0.16527681  0.34215493  0.62877462  1
  Ba  Ba14  1  0.33049894  0.17723588  0.12381834  1
  Ba  Ba15  1  0.50119551  0.66033026  0.37451136  1
  Ba  Ba16  1  1.00493798  0.17597704  0.12403893  1
  Ba  Ba17  1  0.32503271  0.82526038  0.37097357  1
  Ba  Ba18  1  0.16744825  0.00967097  0.12379684  1
  Ba  Ba19  1  -0.00240331  0.82169142  0.36873522  1
  Ba  Ba20  1  1.00387335  0.17620918  0.63208517  1
  Ba  Ba21  1  0.66745097  0.15770651  0.37278117  1
  Ba  Ba22  1  0.33036889  0.49243639  0.37748776  1
  Ba  Ba23  1  0.16621426  0.67775555  0.62443520  1
  Ba  Ba24  1  0.66438943  0.84151701  0.12565132  1
  Ba  Ba25  1  0.66979815  0.82597062  0.37220963  1
  Ba  Ba26  1  0.17081208  0.98962885  0.87392605  1
  Ba  Ba27  1  0.83646796  0.34770917  0.62740422  1
  Ba  Ba28  1  0.83521573  0.00532704  0.62561959  1
  Ba  Ba29  1  0.33494459  0.84287029  0.12232088  1
  Ba  Ba30  1  0.83601521  0.99106362  0.87502781  1
  Ba  Ba31  1  0.16955157  0.66135121  0.37581940  1
  Ba  Ba32  1  0.17164257  0.32123154  0.87666020  1
  Ba  Ba33  1  0.83190712  0.32785789  0.37847395  1
  Ba  Ba34  1  0.83255011  0.00711335  0.12538435  1
  Ba  Ba35  1  0.83602888  0.67001005  0.62505743  1
  La  La36  1  0.00132320  0.15490028  0.87858952  1
  La  La37  1  0.49256660  0.35229993  0.62650792  1
  La  La38  1  0.67354586  0.51030679  0.12823455  1
  La  La39  1  0.50752972  0.65465781  0.87346909  1
  La  La40  1  0.83463381  0.32488796  0.87456460  1
  La  La41  1  0.66934317  0.49623494  0.38620751  1
  La  La42  1  1.00819914  0.51629379  0.62395153  1
  La  La43  1  0.67141764  0.84332603  0.62028053  1
  La  La44  1  0.49566406  0.68328699  0.62343842  1
  La  La45  1  0.48888636  0.01540899  0.12430695  1
  La  La46  1  1.00783454  0.84650304  0.62182519  1
  La  La47  1  0.16366865  0.01464554  0.62707861  1
  La  La48  1  0.49781568  0.01157358  0.62181980  1
  La  La49  1  -0.00612514  0.48623918  0.87296092  1
  La  La50  1  -0.00907302  0.15237574  0.37647572  1
  La  La51  1  0.32550095  0.82168539  0.87400591  1
  La  La52  1  -0.00267790  0.48888636  0.37693728  1
  La  La53  1  0.17247823  0.65771338  0.87187415  1
  La  La54  1  0.49517425  0.34667085  0.13110545  1
  La  La55  1  0.33306069  0.84489321  0.62114349  1
  La  La56  1  0.49354515  0.67984920  0.12640325  1
  La  La57  1  0.83377617  0.67905463  0.12326469  1
  La  La58  1  0.84076987  0.98358168  0.37546758  1
  La  La59  1  0.66186367  0.81822832  0.86692853  1
  La  La60  1  0.67759083  0.18355170  0.62324699  1
  La  La61  1  0.33264699  0.50748864  0.12916045  1
  La  La62  1  0.32608106  0.15661672  0.37518550  1
  La  La63  1  1.00512284  0.84929469  0.11859184  1
  La  La64  1  0.50410625  0.31525176  0.87701674  1
  La  La65  1  0.66804486  0.18313223  0.12737993  1
  La  La66  1  0.16374253  0.68298996  0.12679543  1
  La  La67  1  0.49935894  0.98430490  0.87030224  1
  La  La68  1  0.16887470  0.32080993  0.37620762  1
  La  La69  1  0.66263261  0.15129060  0.87749257  1
  La  La70  1  0.50095864  0.98496201  0.37291663  1
  La  La71  1  1.00347560  0.51246632  0.12464455  1
  In  In72  1  0.66691014  0.33483500  0.50248400  1
  In  In73  1  0.00154404  -0.00133151  0.75183298  1
  In  In74  1  0.00239248  0.67020392  0.75106484  1
  In  In75  1  0.83189020  0.16806334  0.75159180  1
  In  In76  1  0.66475764  0.33473130  0.75372035  1
  In  In77  1  0.50269190  0.16502689  0.74854751  1
  In  In78  1  -0.00059007  0.00093353  0.24969244  1
  In  In79  1  0.00212711  0.66524008  -0.00053394  1
  In  In80  1  0.16458539  0.50074503  0.75268987  1
  In  In81  1  0.16573040  0.50035804  0.00069018  1
  In  In82  1  0.33338595  0.66678763  0.50197124  1
  In  In83  1  0.16661232  0.49793174  0.25020056  1
  In  In84  1  0.49756358  0.16733821  0.25302661  1
  In  In85  1  0.66319494  -0.00155612  0.74738010  1
  In  In86  1  0.49824232  0.83552616  -0.00389533  1
  In  In87  1  0.66476013  0.00156890  0.24701369  1
  In  In88  1  0.83304889  0.16793300  0.24949581  1
  In  In89  1  0.33179371  0.33448190  0.50069688  1
  In  In90  1  0.66753397  0.00077473  0.49718698  1
  In  In91  1  0.16428192  0.16951541  0.25118727  1
  In  In92  1  0.33244009  0.00016396  0.24895270  1
  In  In93  1  0.66821637  0.66857831  0.50228645  1
  In  In94  1  0.66563795  0.66491320  0.00166818  1
  In  In95  1  0.83399762  0.83128129  0.24668335  1
  In  In96  1  0.33536474  0.33424521  0.75398715  1
  In  In97  1  0.83201473  0.82985607  0.74870682  1
  In  In98  1  0.00062489  0.33231809  0.50177039  1
  In  In99  1  0.83073878  0.83307381  -0.00099960  1
  In  In100  1  0.33300566  0.00095492  0.50200815  1
  In  In101  1  0.83111908  0.16706855  0.00033587  1
  In  In102  1  0.33301493  0.66514952  -0.00132567  1
  In  In103  1  0.50135708  0.16640054  0.50104234  1
  In  In104  1  0.33317455  0.66386379  0.24957703  1
  In  In105  1  0.66558186  0.33772723  0.25058429  1
  In  In106  1  0.50090674  0.49770984  0.00259213  1
  In  In107  1  0.66603413  0.66271759  0.24888917  1
  Ir  Ir108  1  0.33799700  0.33145485  0.00661636  1
  Ir  Ir109  1  0.83553244  0.16464809  0.50247121  1
  Ir  Ir110  1  0.65917335  0.00145666  -0.00315784  1
  Ir  Ir111  1  0.49621270  0.83264694  0.74654571  1
  Ir  Ir112  1  0.16552839  0.83470373  0.50049440  1
  Ir  Ir113  1  0.83975324  0.83193729  0.50191260  1
  Ir  Ir114  1  0.16713083  0.16500868  0.74990346  1
  Ir  Ir115  1  0.83581691  0.49814212  0.75289786  1
  Ir  Ir116  1  0.66404409  0.33244992  0.00059534  1
  Ir  Ir117  1  0.83543543  0.49256599  0.00282751  1
  Ir  Ir118  1  0.50224703  0.16545464  -0.00101669  1
  Ir  Ir119  1  0.16657004  0.83519945  -0.00354342  1
  Ir  Ir120  1  0.16263843  0.16615789  0.49991906  1
  Ir  Ir121  1  0.49868779  0.83220150  0.25087012  1
  Ir  Ir122  1  0.16216599  0.83073206  0.24551058  1
  Ir  Ir123  1  0.50125904  0.83378733  0.50266897  1
  Ir  Ir124  1  0.15999416  0.50170865  0.49864812  1
  Ir  Ir125  1  0.50374708  0.49742724  0.25139879  1
  Ir  Ir126  1  0.33831895  0.67222400  0.75030077  1
  Ir  Ir127  1  0.66072888  0.66621450  0.74800537  1
  Ir  Ir128  1  0.33651490  0.00268374  -0.00480404  1
  Ir  Ir129  1  0.50000376  0.50581103  0.74950541  1
  Ir  Ir130  1  0.33400251  -0.00425092  0.74713379  1
  Ir  Ir131  1  0.00121131  -0.00058275  0.50156919  1
  Ir  Ir132  1  0.50128329  0.50339240  0.50130997  1
  Ir  Ir133  1  0.00396301  0.00170038  -0.00208272  1
  Ir  Ir134  1  0.17199148  0.83454078  0.74719228  1
  Ir  Ir135  1  0.00048811  0.33416392  0.75594947  1
  Ir  Ir136  1  -0.00102740  0.33323853  -0.00170264  1
  Ir  Ir137  1  0.16757094  0.16771129  -0.00394282  1
  Ir  Ir138  1  0.83780209  0.50221621  0.49984224  1
  Ir  Ir139  1  0.33333243  0.33542260  0.25084302  1
  Ir  Ir140  1  0.00196110  0.33816091  0.25026571  1
  Ir  Ir141  1  0.00026248  0.66741773  0.49557888  1
  Ir  Ir142  1  0.83882288  0.49947897  0.24641411  1
  Ir  Ir143  1  -0.00040480  0.66244449  0.24819171  1
  O  O144  1  0.31271650  0.34026296  0.12966569  1
  O  O145  1  0.31712516  0.34089447  0.62643036  1
  O  O146  1  0.30037111  0.65500804  0.12361526  1
  O  O147  1  0.31670581  0.66911974  0.63119956  1
  O  O148  1  0.31787447  0.99865894  0.11554859  1
  O  O149  1  0.30047875  0.98465611  0.62920338  1
  O  O150  1  0.63305807  0.32764853  0.11856177  1
  O  O151  1  0.63138872  0.32563543  0.62819509  1
  O  O152  1  0.62767619  0.64817205  0.12675782  1
  O  O153  1  0.63225964  0.66442616  0.62814353  1
  O  O154  1  0.62474655  0.99518109  0.11338689  1
  O  O155  1  0.63278126  0.98103969  0.62129457  1
  O  O156  1  0.98068148  0.32655227  0.12506047  1
  O  O157  1  0.98473673  0.33008280  0.63424368  1
  O  O158  1  0.96873829  0.65149625  0.13049283  1
  O  O159  1  0.98486812  0.65887310  0.61623388  1
  O  O160  1  0.98703196  0.99784931  0.11798005  1
  O  O161  1  0.98599433  0.99045471  0.62140415  1
  O  O162  1  0.17870613  0.16922230  0.11916049  1
  O  O163  1  0.18653729  0.15445435  0.62390768  1
  O  O164  1  0.19840675  0.49195303  0.12390088  1
  O  O165  1  0.17695333  0.49875303  0.61885106  1
  O  O166  1  0.18769406  0.82408362  0.12126510  1
  O  O167  1  0.19805851  0.83385850  0.62419602  1
  O  O168  1  0.53243563  0.15292045  0.11615876  1
  O  O169  1  0.54337409  0.14684072  0.62743912  1
  O  O170  1  0.53419124  0.48684005  0.13177974  1
  O  O171  1  0.52118788  0.49099107  0.62495005  1
  O  O172  1  0.51540863  0.82438940  0.12854579  1
  O  O173  1  0.53310597  0.82387470  0.62523787  1
  O  O174  1  0.85579938  0.16684481  0.12267259  1
  O  O175  1  0.85467192  0.16364454  0.62052369  1
  O  O176  1  0.86892120  0.49461051  0.12440494  1
  O  O177  1  0.86884757  0.50529493  0.62469287  1
  O  O178  1  0.86935579  0.82588409  0.12193166  1
  O  O179  1  0.86966519  0.82947711  0.61882212  1
  O  O180  1  0.13179076  0.17705645  0.38220251  1
  O  O181  1  0.13938968  0.16563562  0.87232928  1
  O  O182  1  0.13431917  0.50402675  0.37820484  1
  O  O183  1  0.12973304  0.51404802  0.87762779  1
  O  O184  1  0.14379728  0.83325313  0.37312450  1
  O  O185  1  0.14704825  0.83321402  0.87077955  1
  O  O186  1  0.45767540  0.17306128  0.37636920  1
  O  O187  1  0.47722487  0.17744342  0.88141096  1
  O  O188  1  0.47875531  0.50615992  0.37631166  1
  O  O189  1  0.48008692  0.51768633  0.87001943  1
  O  O190  1  0.47341869  0.84317958  0.37887932  1
  O  O191  1  0.46142267  0.84325418  0.86491769  1
  O  O192  1  0.81907035  0.16689384  0.38423265  1
  O  O193  1  0.79792951  0.18056310  0.87816663  1
  O  O194  1  0.80754754  0.50061032  0.37295761  1
  O  O195  1  0.81304150  0.48824672  0.87799760  1
  O  O196  1  0.82046725  0.83700656  0.38137379  1
  O  O197  1  0.79670617  0.83588448  0.87530470  1
  O  O198  1  0.01716968  0.00920771  0.38257946  1
  O  O199  1  0.02208638  0.00458849  0.87938818  1
  O  O200  1  0.02974786  0.35042695  0.37091963  1
  O  O201  1  0.02323580  0.35021642  0.87852356  1
  O  O202  1  0.02212838  0.66590252  0.37092321  1
  O  O203  1  0.03790618  0.66940973  0.87627540  1
  O  O204  1  0.36237777  0.00990913  0.37663597  1
  O  O205  1  0.36365299  -0.00070822  0.87079217  1
  O  O206  1  0.35145027  0.33268286  0.37012833  1
  O  O207  1  0.36734670  0.33050887  0.88626090  1
  O  O208  1  0.34844507  0.66899265  0.37633424  1
  O  O209  1  0.36923344  0.68082268  0.86903557  1
  O  O210  1  0.70607502  0.00044654  0.37536438  1
  O  O211  1  0.68752224  0.01107638  0.87893020  1
  O  O212  1  0.68170847  0.35859226  0.37649424  1
  O  O213  1  0.69734278  0.33701089  0.88341082  1
  O  O214  1  0.68221308  0.66225935  0.37530484  1
  O  O215  1  0.68287466  0.67554596  0.86830630  1
  O  O216  1  0.07082536  0.10073167  0.00556636  1
  O  O217  1  0.07541722  0.08878357  0.52643442  1
  O  O218  1  0.06106445  0.42959137  0.02033828  1
  O  O219  1  0.06541564  0.43735452  0.51746259  1
  O  O220  1  0.07563360  0.76637297  0.02648389  1
  O  O221  1  0.06654170  0.76609972  0.51998977  1
  O  O222  1  0.40989442  0.09477521  0.02194152  1
  O  O223  1  0.41160299  0.08637457  0.53373763  1
  O  O224  1  0.40642719  0.42212544  0.03155065  1
  O  O225  1  0.41262090  0.43123476  0.51646311  1
  O  O226  1  0.40982482  0.75620185  0.01685631  1
  O  O227  1  0.40983325  0.76469719  0.52916248  1
  O  O228  1  0.72183873  0.09774920  0.01855201  1
  O  O229  1  0.74035583  0.09908801  0.52705219  1
  O  O230  1  0.73118815  0.42790639  0.02673292  1
  O  O231  1  0.74788294  0.43066807  0.51675577  1
  O  O232  1  0.74512528  0.74933669  0.02908055  1
  O  O233  1  0.74560990  0.76428154  0.52535298  1
  O  O234  1  0.09353459  0.26250286  0.00982299  1
  O  O235  1  0.09779283  0.25926502  0.51534792  1
  O  O236  1  0.09390253  0.59594376  0.03931834  1
  O  O237  1  0.08983929  0.59473195  0.51865129  1
  O  O238  1  0.09234539  0.92422941  0.02108138  1
  O  O239  1  0.09467195  0.92799645  0.52811372  1
  O  O240  1  0.43908010  0.26383843  0.02678585  1
  O  O241  1  0.43162120  0.26609492  0.53017912  1
  O  O242  1  0.42369780  0.58777791  0.03425344  1
  O  O243  1  0.43546386  0.59697037  0.52480221  1
  O  O244  1  0.43317759  0.93958407  0.01230592  1
  O  O245  1  0.43089975  0.92278505  0.52828208  1
  O  O246  1  0.75028843  0.26190610  0.02524186  1
  O  O247  1  0.76422831  0.25488312  0.52239975  1
  O  O248  1  0.76580060  0.58428739  0.02811645  1
  O  O249  1  0.76246261  0.58698091  0.51321883  1
  O  O250  1  0.74976243  0.93303642  0.01765162  1
  O  O251  1  0.76400290  0.91751147  0.52009368  1
  O  O252  1  0.24675265  0.08336284  0.27473639  1
  O  O253  1  0.23627434  0.06565964  0.75879472  1
  O  O254  1  0.23572982  0.39581885  0.27528676  1
  O  O255  1  0.24378898  0.41302086  0.76977546  1
  O  O256  1  0.23313444  0.74147826  0.25550122  1
  O  O257  1  0.24255643  0.74076581  0.77689042  1
  O  O258  1  0.56404681  0.06378287  0.27490642  1
  O  O259  1  0.56390074  0.06301626  0.77761296  1
  O  O260  1  0.56108251  0.40177281  0.26186901  1
  O  O261  1  0.56319290  0.40874019  0.77281188  1
  O  O262  1  0.56906809  0.74192250  0.25962752  1
  O  O263  1  0.56315603  0.73557420  0.77258842  1
  O  O264  1  0.90200545  0.07213693  0.27919740  1
  O  O265  1  0.91638219  0.08421747  0.77369196  1
  O  O266  1  0.91008237  0.40798820  0.27234181  1
  O  O267  1  0.90442890  0.40208077  0.77911962  1
  O  O268  1  0.90883370  0.72942234  0.25903999  1
  O  O269  1  0.90384305  0.73483082  0.76747427  1
  O  O270  1  0.26562497  0.24207688  0.27498528  1
  O  O271  1  0.25636285  0.23716514  0.76316343  1
  O  O272  1  0.26620780  0.56423632  0.25898215  1
  O  O273  1  0.26236918  0.58717299  0.77376324  1
  O  O274  1  0.24976599  0.90674962  0.25918094  1
  O  O275  1  0.27235086  0.89606754  0.76705970  1
  O  O276  1  0.59436780  0.23752070  0.25534496  1
  O  O277  1  0.59666220  0.23711050  0.78665173  1
  O  O278  1  0.60379744  0.55361568  0.27087176  1
  O  O279  1  0.58946393  0.57718425  0.77193392  1
  O  O280  1  0.58351934  0.90522720  0.27148573  1
  O  O281  1  0.58802153  0.89710719  0.77677516  1
  O  O282  1  0.93889818  0.24248038  0.27647812  1
  O  O283  1  0.93140939  0.24542632  0.78366269  1
  O  O284  1  0.93790969  0.56348390  0.26980937  1
  O  O285  1  0.93034700  0.56360050  0.77000574  1
  O  O286  1  0.92151555  0.91187668  0.26596042  1
  O  O287  1  0.92605850  0.90707595  0.76090296  1
  O  O288  1  0.25356943  0.23716515  0.47181875  1
  O  O289  1  0.26406650  0.23806772  0.98391452  1
  O  O290  1  0.25157336  0.57142043  0.48869985  1
  O  O291  1  0.25091857  0.58301315  0.96627952  1
  O  O292  1  0.25733240  0.90457724  0.48630786  1
  O  O293  1  0.26815485  0.90393042  0.97344440  1
  O  O294  1  0.59911794  0.23684965  0.48401202  1
  O  O295  1  0.59745919  0.23519328  0.97367275  1
  O  O296  1  0.59390105  0.57027835  0.48302885  1
  O  O297  1  0.58861507  0.57606227  0.97989678  1
  O  O298  1  0.58906610  0.90173728  0.47909873  1
  O  O299  1  0.59488715  0.90788888  0.96367478  1
  O  O300  1  0.93071730  0.23231180  0.48007218  1
  O  O301  1  0.93033931  0.24315284  0.96763945  1
  O  O302  1  0.93568167  0.56951023  0.47742242  1
  O  O303  1  0.93159405  0.55617874  0.98173961  1
  O  O304  1  0.92789635  0.90936791  0.47702834  1
  O  O305  1  0.93167521  0.91208146  0.98846637  1
  O  O306  1  0.23797722  0.08056222  0.48165296  1
  O  O307  1  0.23792413  0.07293727  0.98279767  1
  O  O308  1  0.22615254  0.40693871  0.47709705  1
  O  O309  1  0.24987774  0.40329421  0.98518045  1
  O  O310  1  0.23848281  0.74731069  0.48762379  1
  O  O311  1  0.23574131  0.74458447  0.97308290  1
  O  O312  1  0.56559675  0.06262248  0.47004237  1
  O  O313  1  0.56465434  0.06909934  0.96710712  1
  O  O314  1  0.57338197  0.41689697  0.48785884  1
  O  O315  1  0.56833435  0.39554157  0.97633546  1
  O  O316  1  0.56927962  0.74319759  0.48884449  1
  O  O317  1  0.57416563  0.74422232  0.96825593  1
  O  O318  1  0.90592631  0.06889713  0.47576216  1
  O  O319  1  0.91713270  0.07721664  0.97630388  1
  O  O320  1  0.91025725  0.41482889  0.48082196  1
  O  O321  1  0.90177955  0.39665315  0.97636565  1
  O  O322  1  0.90927082  0.73731358  0.47966323  1
  O  O323  1  0.90681885  0.73507588  0.98556793  1
  O  O324  1  0.09670039  0.27385959  0.24550875  1
  O  O325  1  0.09526934  0.26176320  0.73888982  1
  O  O326  1  0.09415008  0.59949946  0.22439771  1
  O  O327  1  0.09089843  0.59277596  0.72803275  1
  O  O328  1  0.08697662  0.91546125  0.22770505  1
  O  O329  1  0.10409136  0.92667856  0.72218936  1
  O  O330  1  0.42663809  0.27074020  0.22537889  1
  O  O331  1  0.43785851  0.26775645  0.73267693  1
  O  O332  1  0.43957722  0.59134108  0.22402747  1
  O  O333  1  0.43728222  0.60779189  0.72964320  1
  O  O334  1  0.43078836  0.92481864  0.23245572  1
  O  O335  1  0.43072739  0.92898766  0.71942704  1
  O  O336  1  0.75684770  0.26080889  0.23703760  1
  O  O337  1  0.75835403  0.26123664  0.72770556  1
  O  O338  1  0.76994833  0.58872157  0.21729090  1
  O  O339  1  0.75710770  0.59566282  0.73311937  1
  O  O340  1  0.75452770  0.92246317  0.23283299  1
  O  O341  1  0.74953495  0.91669032  0.72253388  1
  O  O342  1  0.07051867  0.09612860  0.24557803  1
  O  O343  1  0.08165302  0.09001058  0.73498081  1
  O  O344  1  0.06239874  0.43472404  0.22755547  1
  O  O345  1  0.06014765  0.43115522  0.73429529  1
  O  O346  1  0.06664111  0.75761585  0.21765214  1
  O  O347  1  0.07464374  0.77313895  0.72450870  1
  O  O348  1  0.41079789  0.08940694  0.22106879  1
  O  O349  1  0.40472470  0.08505322  0.72792622  1
  O  O350  1  0.40234336  0.43370553  0.22634093  1
  O  O351  1  0.41434601  0.43316706  0.73472407  1
  O  O352  1  0.41339523  0.75560722  0.22868262  1
  O  O353  1  0.40368996  0.76672048  0.71893077  1
  O  O354  1  0.73086128  0.10047407  0.21891370  1
  O  O355  1  0.72976365  0.09929953  0.72992906  1
  O  O356  1  0.74097031  0.43718017  0.22620648  1
  O  O357  1  0.74562107  0.42874595  0.73753790  1
  O  O358  1  0.74821285  0.74815717  0.22404433  1
  O  O359  1  0.72320791  0.76134703  0.72672773  1
