# generated using pymatgen
data_BaLaInIrO6
_symmetry_space_group_name_H-M   'P 1'
_cell_length_a   17.50812216
_cell_length_b   17.54365881
_cell_length_c   16.47357969
_cell_angle_alpha   89.95387991
_cell_angle_beta   90.01441474
_cell_angle_gamma   90.01489923
_symmetry_Int_Tables_number   1
_chemical_formula_structural   BaLaInIrO6
_chemical_formula_sum   'Ba36 La36 In36 Ir36 O216'
_cell_volume   5059.96546188
_cell_formula_units_Z   36
loop_
 _symmetry_equiv_pos_site_id
 _symmetry_equiv_pos_as_xyz
  1  'x, y, z'
loop_
 _atom_site_type_symbol
 _atom_site_label
 _atom_site_symmetry_multiplicity
 _atom_site_fract_x
 _atom_site_fract_y
 _atom_site_fract_z
 _atom_site_occupancy
  Ba  Ba0  1  0.83640482  0.65760498  0.38031433  1
  Ba  Ba1  1  0.49909291  0.65774320  0.37705283  1
  Ba  Ba2  1  0.66665901  0.15986348  0.37603744  1
  Ba  Ba3  1  0.16882906  0.31682556  0.37682350  1
  Ba  Ba4  1  0.50151787  0.33974383  0.12637236  1
  Ba  Ba5  1  0.50261526  0.32162990  0.87403671  1
  Ba  Ba6  1  -0.00007555  0.15973092  0.37741974  1
  Ba  Ba7  1  0.66382347  0.49639700  0.37529537  1
  Ba  Ba8  1  0.49553479  0.32835666  0.37587787  1
  Ba  Ba9  1  0.33441929  0.83846720  0.12258369  1
  Ba  Ba10  1  0.16500433  0.00912885  0.62263969  1
  Ba  Ba11  1  0.82778575  0.34059212  0.12269709  1
  Ba  Ba12  1  0.83352577  0.31959557  0.87369839  1
  Ba  Ba13  1  0.17205211  0.65642967  0.87496469  1
  Ba  Ba14  1  0.83295024  0.67514743  0.12535548  1
  Ba  Ba15  1  0.50175405  0.99191941  0.37421995  1
  Ba  Ba16  1  0.16952239  0.65903672  0.37711780  1
  Ba  Ba17  1  0.33709502  0.84069020  0.62204051  1
  Ba  Ba18  1  0.83519015  0.33895198  0.62485853  1
  Ba  Ba19  1  -0.00310318  0.49252108  0.37482509  1
  Ba  Ba20  1  0.83923508  0.65517738  0.87202833  1
  Ba  Ba21  1  0.66533973  0.15700387  0.87883262  1
  Ba  Ba22  1  0.50460826  0.98983638  0.87703880  1
  Ba  Ba23  1  0.32713231  0.48840836  0.37506931  1
  Ba  Ba24  1  -0.00149659  0.82579689  0.37865903  1
  Ba  Ba25  1  0.16648404  0.99025676  0.37738025  1
  Ba  Ba26  1  0.99990357  0.17535211  0.12329858  1
  Ba  Ba27  1  0.83237033  0.00729151  0.62249004  1
  Ba  Ba28  1  0.16170590  0.33938610  0.62343350  1
  Ba  Ba29  1  0.50555403  0.67253893  0.12797355  1
  Ba  Ba30  1  0.66929762  0.84429381  0.62469285  1
  Ba  Ba31  1  -0.00372982  0.49022589  0.87687371  1
  Ba  Ba32  1  0.33077588  0.48968851  0.87782919  1
  Ba  Ba33  1  0.33729266  0.82464434  0.87516305  1
  Ba  Ba34  1  0.66524089  0.17455913  0.12911251  1
  Ba  Ba35  1  -0.00384586  0.16032414  0.87153346  1
  La  La36  1  0.66501704  0.82102471  0.87612521  1
  La  La37  1  0.50013968  0.01113158  0.62192524  1
  La  La38  1  1.00451148  0.84965904  0.62166510  1
  La  La39  1  0.49839067  0.01737033  0.12256586  1
  La  La40  1  0.17194062  0.99028120  0.87349064  1
  La  La41  1  0.16784621  0.68580526  0.62407351  1
  La  La42  1  0.33678976  0.51463247  0.62389186  1
  La  La43  1  0.32197998  0.15005946  0.37746955  1
  La  La44  1  0.16801334  0.31610742  0.87252009  1
  La  La45  1  1.00254277  0.51372872  0.62607089  1
  La  La46  1  0.66945527  0.50597540  0.12392042  1
  La  La47  1  0.33600667  0.18318915  0.62205114  1
  La  La48  1  0.67246831  0.85173937  0.12175772  1
  La  La49  1  1.00386942  0.18042041  0.62338429  1
  La  La50  1  0.49993702  0.68289647  0.62110341  1
  La  La51  1  0.49454119  0.35172739  0.62165618  1
  La  La52  1  0.33704122  0.17700335  0.12881153  1
  La  La53  1  0.16189604  0.68012215  0.12663785  1
  La  La54  1  0.50757210  0.66333102  0.87706000  1
  La  La55  1  0.32759906  0.15301209  0.87328272  1
  La  La56  1  0.15916278  0.34735568  0.12594094  1
  La  La57  1  0.83253306  0.01375895  0.12737304  1
  La  La58  1  0.83888261  0.98699516  0.37816406  1
  La  La59  1  0.33048384  0.82296405  0.37742661  1
  La  La60  1  0.66294653  0.48489709  0.87609362  1
  La  La61  1  0.66489262  0.17736522  0.62611121  1
  La  La62  1  0.66246869  0.81774781  0.37837652  1
  La  La63  1  0.99647552  0.51506802  0.12265461  1
  La  La64  1  0.33571386  0.51414969  0.12859199  1
  La  La65  1  0.83896337  0.31734949  0.37281979  1
  La  La66  1  0.83498174  0.99320802  0.87368388  1
  La  La67  1  0.83185932  0.68753149  0.62556138  1
  La  La68  1  1.01009354  0.84837255  0.13378293  1
  La  La69  1  0.67245526  0.51844920  0.62493295  1
  La  La70  1  -0.00918269  0.82364611  0.86709114  1
  La  La71  1  0.15991703  0.01155010  0.12874509  1
  In  In72  1  0.33448800  0.00125650  0.74754727  1
  In  In73  1  0.00184208  0.66990315  -0.00013273  1
  In  In74  1  0.50451774  0.83624592  0.74858040  1
  In  In75  1  0.66775598  0.66810513  0.24826516  1
  In  In76  1  0.33530398  0.66626180  0.75046850  1
  In  In77  1  0.32912831  0.33284964  0.24811373  1
  In  In78  1  -0.00059751  0.66730844  0.25157072  1
  In  In79  1  0.49584227  0.16700098  0.25353328  1
  In  In80  1  -0.00007788  -0.00001027  -0.00291914  1
  In  In81  1  0.16599332  0.16757146  0.00302211  1
  In  In82  1  0.49867375  0.16728540  0.49848928  1
  In  In83  1  -0.00089072  0.33475127  0.24723256  1
  In  In84  1  0.83338882  0.83484984  0.24762749  1
  In  In85  1  0.49539760  0.49966318  0.00058389  1
  In  In86  1  0.33407088  -0.00560659  0.24617910  1
  In  In87  1  0.83580649  0.83596363  -0.00122373  1
  In  In88  1  0.33182175  0.33586774  0.74956225  1
  In  In89  1  -0.00060690  0.33714018  0.49875434  1
  In  In90  1  0.66684063  -0.00126158  0.25330267  1
  In  In91  1  -0.00031128  0.33644493  0.75162286  1
  In  In92  1  0.50082141  0.50617345  0.74908933  1
  In  In93  1  0.50288056  0.83456876  0.00521449  1
  In  In94  1  0.66481536  0.33374684  0.74713525  1
  In  In95  1  0.16694533  0.49973131  0.24863769  1
  In  In96  1  0.66700810  0.33524717  0.49986628  1
  In  In97  1  0.66446809  0.33164019  -0.00019426  1
  In  In98  1  0.66771881  0.33510181  0.25425098  1
  In  In99  1  0.16481994  0.83541382  0.75195162  1
  In  In100  1  0.16768297  0.49779373  -0.00220118  1
  In  In101  1  0.00116675  0.66685455  0.50259520  1
  In  In102  1  0.33486995  0.66887753  0.24808153  1
  In  In103  1  0.00198263  0.66697119  0.74717057  1
  In  In104  1  0.33454338  0.66645828  0.50066297  1
  In  In105  1  0.83267934  0.16289754  0.74601938  1
  In  In106  1  0.49832986  0.16622029  0.74922840  1
  In  In107  1  0.16567202  0.83630922  0.00117815  1
  Ir  Ir108  1  0.83168437  0.83902198  0.74942739  1
  Ir  Ir109  1  0.67294280  0.66751789  0.75218907  1
  Ir  Ir110  1  0.83002028  0.83638762  0.50217939  1
  Ir  Ir111  1  0.16528039  0.16451585  0.74962805  1
  Ir  Ir112  1  0.33503140  -0.00045666  0.50087103  1
  Ir  Ir113  1  0.83148902  0.16216156  0.00242498  1
  Ir  Ir114  1  0.67214336  0.66439558  -0.00412716  1
  Ir  Ir115  1  0.50006324  0.50147197  0.25038275  1
  Ir  Ir116  1  0.50421413  0.83419808  0.25205399  1
  Ir  Ir117  1  0.16819387  0.49860613  0.74585733  1
  Ir  Ir118  1  0.16959119  0.16190682  0.50318038  1
  Ir  Ir119  1  -0.00181264  0.00164104  0.25469009  1
  Ir  Ir120  1  0.83203199  0.49865136  0.25084252  1
  Ir  Ir121  1  0.16735343  0.83729768  0.49840412  1
  Ir  Ir122  1  0.66847745  -0.00203653  0.74972956  1
  Ir  Ir123  1  0.16865105  0.16049123  0.25127198  1
  Ir  Ir124  1  0.49247500  0.16389870  0.00069633  1
  Ir  Ir125  1  -0.00345171  0.00145200  0.50013586  1
  Ir  Ir126  1  0.33096393  0.33416790  0.50312836  1
  Ir  Ir127  1  0.66911464  -0.00249531  0.50153106  1
  Ir  Ir128  1  0.66850300  0.00094636  -0.00043051  1
  Ir  Ir129  1  0.00075188  0.00139240  0.74717352  1
  Ir  Ir130  1  0.50372234  0.83620078  0.49642469  1
  Ir  Ir131  1  0.16796895  0.83555973  0.25360868  1
  Ir  Ir132  1  0.83246619  0.16250898  0.49993013  1
  Ir  Ir133  1  0.83203540  0.50007668  -0.00167940  1
  Ir  Ir134  1  0.33467818  0.66660069  0.00169372  1
  Ir  Ir135  1  0.16946411  0.49936703  0.50706747  1
  Ir  Ir136  1  0.66783301  0.66808261  0.50600959  1
  Ir  Ir137  1  -0.00268513  0.33499938  0.00192629  1
  Ir  Ir138  1  0.32811890  0.32686550  -0.00119909  1
  Ir  Ir139  1  0.33063485  0.00182265  -0.00022835  1
  Ir  Ir140  1  0.83222414  0.50245377  0.74645404  1
  Ir  Ir141  1  0.83456680  0.16386719  0.25261301  1
  Ir  Ir142  1  0.50216993  0.50235563  0.50175985  1
  Ir  Ir143  1  0.83198708  0.50039809  0.50345515  1
  O  O144  1  0.29451940  0.31533990  0.11571748  1
  O  O145  1  0.30869721  0.32462258  0.62145510  1
  O  O146  1  0.30257052  0.66470175  0.12055390  1
  O  O147  1  0.30205837  0.66128978  0.62314519  1
  O  O148  1  0.29712056  0.99423549  0.11761300  1
  O  O149  1  0.31455587  0.99376216  0.61838579  1
  O  O150  1  0.65570828  0.33956079  0.12594734  1
  O  O151  1  0.63092008  0.32190390  0.62273078  1
  O  O152  1  0.65433431  0.64678265  0.11607352  1
  O  O153  1  0.63773917  0.65859480  0.63036187  1
  O  O154  1  0.63596620  0.99035088  0.11902455  1
  O  O155  1  0.63650766  0.99419738  0.62628372  1
  O  O156  1  0.97641113  0.32977437  0.11964305  1
  O  O157  1  0.98844560  0.32227617  0.62323975  1
  O  O158  1  0.97954989  0.65486860  0.12530998  1
  O  O159  1  0.96747438  0.65432019  0.62471363  1
  O  O160  1  0.97054110  0.99119281  0.13392793  1
  O  O161  1  0.97755826  0.98760754  0.62327101  1
  O  O162  1  0.19697523  0.15413883  0.13101557  1
  O  O163  1  0.19820994  0.16430013  0.62646414  1
  O  O164  1  0.20346718  0.48005578  0.11911422  1
  O  O165  1  0.20072523  0.49111026  0.62705659  1
  O  O166  1  0.18562359  0.83693093  0.13521310  1
  O  O167  1  0.18547992  0.83582549  0.61841960  1
  O  O168  1  0.51350457  0.15742878  0.11922211  1
  O  O169  1  0.52809606  0.14836944  0.62302218  1
  O  O170  1  0.52950876  0.49993436  0.12948071  1
  O  O171  1  0.53428478  0.49358262  0.61989755  1
  O  O172  1  0.53755460  0.82999810  0.13141658  1
  O  O173  1  0.52344558  0.82533928  0.61747449  1
  O  O174  1  0.85413566  0.15102309  0.12941502  1
  O  O175  1  0.86719164  0.15714528  0.61656032  1
  O  O176  1  0.86052787  0.49609340  0.12443840  1
  O  O177  1  0.86485536  0.49642097  0.62486530  1
  O  O178  1  0.87301125  0.83930554  0.12211933  1
  O  O179  1  0.86369012  0.83186074  0.62608984  1
  O  O180  1  0.14860365  0.15967835  0.37609326  1
  O  O181  1  0.14610691  0.17355173  0.87066597  1
  O  O182  1  0.14937704  0.50398701  0.38591671  1
  O  O183  1  0.14739873  0.50317908  0.86654793  1
  O  O184  1  0.14816153  0.83083592  0.37473196  1
  O  O185  1  0.12733413  0.84619243  0.87711623  1
  O  O186  1  0.45836555  0.16253328  0.37770314  1
  O  O187  1  0.46476769  0.16438717  0.88023891  1
  O  O188  1  0.47482885  0.50423114  0.37530916  1
  O  O189  1  0.47814021  0.52715588  0.87529934  1
  O  O190  1  0.46937315  0.83913196  0.37330027  1
  O  O191  1  0.49055926  0.82854925  0.87796557  1
  O  O192  1  0.81324518  0.17685889  0.37626196  1
  O  O193  1  0.81784534  0.15571103  0.88036474  1
  O  O194  1  0.81045762  0.50596207  0.37700073  1
  O  O195  1  0.80050585  0.50286496  0.87127790  1
  O  O196  1  0.79949668  0.84342886  0.38038338  1
  O  O197  1  0.79983660  0.84784220  0.86955132  1
  O  O198  1  0.01972035  0.00582556  0.37877774  1
  O  O199  1  0.03424895  0.00728198  0.86579448  1
  O  O200  1  0.01597659  0.33343044  0.37411271  1
  O  O201  1  0.02894831  0.33565456  0.88079495  1
  O  O202  1  0.01818102  0.66216727  0.37873857  1
  O  O203  1  0.02323740  0.67962019  0.87152563  1
  O  O204  1  0.35194012  0.00866639  0.37941542  1
  O  O205  1  0.35549639  0.01367265  0.88065022  1
  O  O206  1  0.34552440  0.33312292  0.38196707  1
  O  O207  1  0.35301702  0.33102154  0.88018106  1
  O  O208  1  0.34519748  0.68209274  0.37552187  1
  O  O209  1  0.36703157  0.66635613  0.88034702  1
  O  O210  1  0.70019594  0.00079483  0.38198335  1
  O  O211  1  0.69905769  0.00411279  0.87333568  1
  O  O212  1  0.70531384  0.34089584  0.37784599  1
  O  O213  1  0.68584584  0.34572451  0.87447167  1
  O  O214  1  0.68756363  0.67718796  0.38320656  1
  O  O215  1  0.69485472  0.68493144  0.87432392  1
  O  O216  1  0.07911148  0.08792049  0.02252855  1
  O  O217  1  0.06802214  0.09451980  0.52595360  1
  O  O218  1  0.06434914  0.42669210  0.02616951  1
  O  O219  1  0.07130426  0.43813660  0.52519420  1
  O  O220  1  0.07697768  0.76156520  0.03930438  1
  O  O221  1  0.07730556  0.76418329  0.52690075  1
  O  O222  1  0.39815645  0.09380779  0.02789529  1
  O  O223  1  0.40101021  0.09239824  0.52930287  1
  O  O224  1  0.39326446  0.42184952  0.02591619  1
  O  O225  1  0.40443599  0.43119375  0.52851544  1
  O  O226  1  0.41014105  0.75191715  0.01751898  1
  O  O227  1  0.41732150  0.76009819  0.51514971  1
  O  O228  1  0.74033451  0.09073031  0.02700038  1
  O  O229  1  0.73477845  0.09392265  0.52585887  1
  O  O230  1  0.73534310  0.43965273  0.01436686  1
  O  O231  1  0.73712869  0.43790279  0.52853068  1
  O  O232  1  0.73263912  0.76492504  0.02021549  1
  O  O233  1  0.74506773  0.75503986  0.52875717  1
  O  O234  1  0.09615207  0.27048128  0.01880809  1
  O  O235  1  0.09108897  0.24558569  0.51761163  1
  O  O236  1  0.09798767  0.59379181  0.02657041  1
  O  O237  1  0.10344579  0.59345604  0.53424844  1
  O  O238  1  0.09046876  0.92787815  0.03601002  1
  O  O239  1  0.08398286  0.92240238  0.52150920  1
  O  O240  1  0.41834823  0.25320417  0.02667347  1
  O  O241  1  0.42447040  0.26759460  0.52947266  1
  O  O242  1  0.41798995  0.59012949  0.02999847  1
  O  O243  1  0.43366092  0.59396624  0.52828972  1
  O  O244  1  0.42654398  0.93450025  0.02405594  1
  O  O245  1  0.43354421  0.93195760  0.52160058  1
  O  O246  1  0.75934585  0.25065083  0.01127503  1
  O  O247  1  0.75824546  0.24692880  0.52353807  1
  O  O248  1  0.76504540  0.59438697  0.01446241  1
  O  O249  1  0.76290671  0.59753937  0.53410558  1
  O  O250  1  0.76255988  0.93585750  0.02385234  1
  O  O251  1  0.75989605  0.92766869  0.51622520  1
  O  O252  1  0.23741442  0.06999730  0.26625384  1
  O  O253  1  0.23158701  0.07397746  0.77557132  1
  O  O254  1  0.22850056  0.39449353  0.25771193  1
  O  O255  1  0.22658501  0.39945429  0.77143321  1
  O  O256  1  0.23493813  0.74353849  0.26133513  1
  O  O257  1  0.23783152  0.73886900  0.75982322  1
  O  O258  1  0.57186573  0.07067616  0.25568759  1
  O  O259  1  0.57276236  0.05975600  0.75933609  1
  O  O260  1  0.57001960  0.41472277  0.26786006  1
  O  O261  1  0.57438424  0.41410984  0.76860433  1
  O  O262  1  0.57233708  0.74485660  0.27482163  1
  O  O263  1  0.57960852  0.73365782  0.77289430  1
  O  O264  1  0.89998869  0.06647727  0.27329557  1
  O  O265  1  0.90570381  0.06352851  0.77098275  1
  O  O266  1  0.89367362  0.40198719  0.27070965  1
  O  O267  1  0.89972570  0.41166553  0.76522580  1
  O  O268  1  0.90670426  0.74335209  0.26946228  1
  O  O269  1  0.90460937  0.75048342  0.76298221  1
  O  O270  1  0.26279150  0.22326524  0.27096803  1
  O  O271  1  0.25978740  0.23139863  0.77159118  1
  O  O272  1  0.26577618  0.56950013  0.25459795  1
  O  O273  1  0.26442323  0.56123169  0.75856621  1
  O  O274  1  0.26611676  0.89678725  0.27587584  1
  O  O275  1  0.25349194  0.91536604  0.77582428  1
  O  O276  1  0.58736729  0.24512522  0.26785599  1
  O  O277  1  0.59390218  0.23405653  0.76562297  1
  O  O278  1  0.58914688  0.57493470  0.26229279  1
  O  O279  1  0.60716911  0.57656647  0.77642422  1
  O  O280  1  0.60016106  0.89549659  0.27477960  1
  O  O281  1  0.60892202  0.90039613  0.77318142  1
  O  O282  1  0.92140194  0.23764803  0.26590141  1
  O  O283  1  0.92743336  0.23861317  0.75526931  1
  O  O284  1  0.92647041  0.56245371  0.25757717  1
  O  O285  1  0.92597902  0.56818104  0.76153277  1
  O  O286  1  0.92396401  0.91668536  0.27825144  1
  O  O287  1  0.93020505  0.90633492  0.77158276  1
  O  O288  1  0.26916219  0.23023286  0.48422910  1
  O  O289  1  0.26419773  0.23370784  0.97159840  1
  O  O290  1  0.26291338  0.56494856  0.49327278  1
  O  O291  1  0.26473418  0.57769074  0.98683351  1
  O  O292  1  0.26665790  0.90365455  0.47427900  1
  O  O293  1  0.25756191  0.91562661  0.97231617  1
  O  O294  1  0.59094212  0.24088198  0.48086300  1
  O  O295  1  0.58147898  0.23639904  0.98642048  1
  O  O296  1  0.59629235  0.57513624  0.48750194  1
  O  O297  1  0.60321855  0.57514307  0.97287707  1
  O  O298  1  0.60124513  0.90255804  0.47374602  1
  O  O299  1  0.60829761  0.90206239  0.98064729  1
  O  O300  1  0.91697007  0.23929701  0.48416474  1
  O  O301  1  0.92537362  0.23671630  0.98309539  1
  O  O302  1  0.92503155  0.56558267  0.49136976  1
  O  O303  1  0.92543375  0.56747622  0.98884337  1
  O  O304  1  0.91902533  0.91221589  0.47605924  1
  O  O305  1  0.92605624  0.91230015  0.95596721  1
  O  O306  1  0.24556978  0.07378435  0.47984511  1
  O  O307  1  0.24011236  0.07032383  0.97237572  1
  O  O308  1  0.23522357  0.40361831  0.48469541  1
  O  O309  1  0.23232739  0.38950887  0.97508347  1
  O  O310  1  0.24135186  0.75021995  0.48636571  1
  O  O311  1  0.24676021  0.74199838  0.98472103  1
  O  O312  1  0.57783211  0.06390948  0.48786562  1
  O  O313  1  0.56623641  0.06981882  0.98789676  1
  O  O314  1  0.56756778  0.41097251  0.48461111  1
  O  O315  1  0.57447452  0.41377395  0.97792101  1
  O  O316  1  0.57824215  0.74442758  0.47728832  1
  O  O317  1  0.57948716  0.73210915  0.97873314  1
  O  O318  1  0.90186384  0.07031888  0.47360349  1
  O  O319  1  0.89696887  0.06719398  0.98951372  1
  O  O320  1  0.89324173  0.40448179  0.47879656  1
  O  O321  1  0.90097035  0.40428329  0.98132473  1
  O  O322  1  0.90317615  0.74802624  0.49371595  1
  O  O323  1  0.91384755  0.74962576  0.96926989  1
  O  O324  1  0.10239431  0.25563758  0.22773018  1
  O  O325  1  0.09648808  0.25481127  0.73661719  1
  O  O326  1  0.10013042  0.59901893  0.22231223  1
  O  O327  1  0.10460830  0.59475019  0.71831403  1
  O  O328  1  0.09424761  0.93115882  0.22963530  1
  O  O329  1  0.08579335  0.92911496  0.72816078  1
  O  O330  1  0.41554833  0.25472337  0.22389624  1
  O  O331  1  0.42856704  0.26600138  0.71789418  1
  O  O332  1  0.42727941  0.58758574  0.23028826  1
  O  O333  1  0.43174494  0.59800350  0.71073766  1
  O  O334  1  0.44010209  0.92780584  0.22397745  1
  O  O335  1  0.43619612  0.93533001  0.72760613  1
  O  O336  1  0.76612219  0.25507404  0.24092227  1
  O  O337  1  0.75422293  0.25255693  0.72534510  1
  O  O338  1  0.76310897  0.58993377  0.23588091  1
  O  O339  1  0.76653984  0.59928043  0.72047161  1
  O  O340  1  0.76012251  0.92921283  0.21640543  1
  O  O341  1  0.76591070  0.93529783  0.73936547  1
  O  O342  1  0.07729209  0.08724743  0.22541998  1
  O  O343  1  0.06604590  0.09855129  0.72175750  1
  O  O344  1  0.06728319  0.43188083  0.21831658  1
  O  O345  1  0.07033097  0.43763940  0.72646066  1
  O  O346  1  0.07516634  0.76864692  0.22952289  1
  O  O347  1  0.06950782  0.76483499  0.71635885  1
  O  O348  1  0.40340079  0.08886343  0.21892657  1
  O  O349  1  0.39328531  0.10565866  0.72908899  1
  O  O350  1  0.40541142  0.43229408  0.22696076  1
  O  O351  1  0.40346044  0.43198513  0.72130514  1
  O  O352  1  0.41230748  0.76648090  0.23638862  1
  O  O353  1  0.41728740  0.75506903  0.72778978  1
  O  O354  1  0.74844784  0.09095328  0.23483301  1
  O  O355  1  0.72964516  0.09343531  0.72449223  1
  O  O356  1  0.73742367  0.43741813  0.22822277  1
  O  O357  1  0.73689195  0.44045634  0.72649596  1
  O  O358  1  0.73102598  0.76889156  0.22445303  1
  O  O359  1  0.74460905  0.76073126  0.72706250  1
