# generated using pymatgen
data_BaLaInIrO6
_symmetry_space_group_name_H-M   'P 1'
_cell_length_a   17.51492085
_cell_length_b   17.53671418
_cell_length_c   16.47852116
_cell_angle_alpha   89.97592742
_cell_angle_beta   90.00495613
_cell_angle_gamma   90.04950226
_symmetry_Int_Tables_number   1
_chemical_formula_structural   BaLaInIrO6
_chemical_formula_sum   'Ba36 La36 In36 Ir36 O216'
_cell_volume   5061.44398640
_cell_formula_units_Z   36
loop_
 _symmetry_equiv_pos_site_id
 _symmetry_equiv_pos_as_xyz
  1  'x, y, z'
loop_
 _atom_site_type_symbol
 _atom_site_label
 _atom_site_symmetry_multiplicity
 _atom_site_fract_x
 _atom_site_fract_y
 _atom_site_fract_z
 _atom_site_occupancy
  Ba  Ba0  1  -0.00020761  0.16359466  0.37904822  1
  Ba  Ba1  1  0.16559315  0.34220098  0.12544660  1
  Ba  Ba2  1  -0.00023678  0.82280803  0.87684238  1
  Ba  Ba3  1  0.33448910  0.82399093  0.37308058  1
  Ba  Ba4  1  1.00141022  0.17672652  0.62247079  1
  Ba  Ba5  1  0.00758266  0.49846943  0.37673189  1
  Ba  Ba6  1  0.83282123  0.67120584  0.62574396  1
  Ba  Ba7  1  0.49779399  0.99111274  0.87507124  1
  Ba  Ba8  1  0.16312313  0.67196615  0.62702150  1
  Ba  Ba9  1  0.33150157  0.83919065  0.62264978  1
  Ba  Ba10  1  0.33790854  0.83852915  0.12466213  1
  Ba  Ba11  1  0.50040595  0.32217124  0.87450207  1
  Ba  Ba12  1  0.66487613  0.84274505  0.12481965  1
  Ba  Ba13  1  0.66397888  0.17507861  0.12699304  1
  Ba  Ba14  1  0.49803770  0.65612325  0.87432135  1
  Ba  Ba15  1  0.49912461  0.65562158  0.37581215  1
  Ba  Ba16  1  0.49743589  0.34039451  0.12459732  1
  Ba  Ba17  1  0.49613661  0.00712355  0.61789138  1
  Ba  Ba18  1  0.00249350  0.49415722  0.87933035  1
  Ba  Ba19  1  0.49790378  0.67718199  0.12129394  1
  Ba  Ba20  1  0.66639316  0.82289307  0.37787884  1
  Ba  Ba21  1  0.66616731  0.17808617  0.62423945  1
  Ba  Ba22  1  0.83735314  0.99496041  0.37518219  1
  Ba  Ba23  1  0.17070260  0.98878735  0.87481059  1
  Ba  Ba24  1  0.83170185  0.01231826  0.62599497  1
  Ba  Ba25  1  0.49634897  0.34048526  0.62584826  1
  Ba  Ba26  1  0.49674888  0.01013925  0.12538823  1
  Ba  Ba27  1  0.16915794  0.65368386  0.87855684  1
  Ba  Ba28  1  0.99784220  0.51004414  0.12545084  1
  Ba  Ba29  1  0.16528832  0.99069233  0.37027870  1
  Ba  Ba30  1  0.16433332  0.67554776  0.12076329  1
  Ba  Ba31  1  0.33706924  0.17391448  0.12902973  1
  Ba  Ba32  1  0.83470487  0.32993052  0.87468699  1
  Ba  Ba33  1  0.83438172  0.32752668  0.37888193  1
  Ba  Ba34  1  0.16896228  0.34225776  0.62606972  1
  Ba  Ba35  1  0.49745510  0.67550161  0.62777171  1
  La  La36  1  0.34106339  0.51409890  0.62767022  1
  La  La37  1  -0.00815712  0.81909944  0.37669750  1
  La  La38  1  0.16287642  0.66014772  0.37217372  1
  La  La39  1  0.50066334  0.32050342  0.37605282  1
  La  La40  1  0.16651149  0.01175513  0.12646046  1
  La  La41  1  0.83342059  0.34493647  0.12971288  1
  La  La42  1  0.66508873  0.50705863  0.62311431  1
  La  La43  1  0.66338454  0.15382475  0.37708191  1
  La  La44  1  0.83044116  0.34629544  0.62084277  1
  La  La45  1  0.32549715  0.81784230  0.87548545  1
  La  La46  1  0.17172731  0.32303864  0.87585626  1
  La  La47  1  0.84081855  0.65197742  0.87952076  1
  La  La48  1  0.33126682  0.48364131  0.88085932  1
  La  La49  1  -0.00477545  0.16316228  0.87298070  1
  La  La50  1  0.33636298  0.51599667  0.12244996  1
  La  La51  1  0.65787213  0.48227669  0.87152869  1
  La  La52  1  0.15865619  0.01364643  0.61885791  1
  La  La53  1  0.65986821  0.48223916  0.37723552  1
  La  La54  1  0.83568324  0.65899517  0.37207083  1
  La  La55  1  0.50504822  0.98228604  0.37005665  1
  La  La56  1  0.83763358  0.99086337  0.87750036  1
  La  La57  1  0.32864803  0.15176494  0.87946061  1
  La  La58  1  0.66186151  0.15550554  0.87524663  1
  La  La59  1  0.32779571  0.49444414  0.37294048  1
  La  La60  1  1.00466727  0.18019229  0.13217094  1
  La  La61  1  0.34330567  0.17294235  0.62347677  1
  La  La62  1  1.00518203  0.84794146  0.12319697  1
  La  La63  1  0.82936448  0.02124085  0.12442259  1
  La  La64  1  0.17387344  0.31359327  0.37484230  1
  La  La65  1  0.99651897  0.49937573  0.63706768  1
  La  La66  1  0.33252867  0.14890263  0.37098838  1
  La  La67  1  0.66084027  0.82010750  0.87206035  1
  La  La68  1  0.82868211  0.68074855  0.12500587  1
  La  La69  1  0.66991800  0.84701282  0.62650634  1
  La  La70  1  1.01108709  0.85466818  0.62043132  1
  La  La71  1  0.67501054  0.51120696  0.12554565  1
  In  In72  1  0.66666560  0.00040088  -0.00071350  1
  In  In73  1  0.33202328  -0.00306384  0.74706224  1
  In  In74  1  0.83167874  0.50107530  0.25589020  1
  In  In75  1  0.66610117  0.00104410  0.50014142  1
  In  In76  1  0.66847922  0.00170965  0.24727178  1
  In  In77  1  0.00046810  0.00458008  0.00164300  1
  In  In78  1  0.83526999  0.83154269  0.50266542  1
  In  In79  1  0.66676466  0.66498243  0.74808432  1
  In  In80  1  0.16977373  0.50052066  0.50363157  1
  In  In81  1  0.00044273  0.00491801  0.75155728  1
  In  In82  1  0.33346821  0.33232162  0.74924139  1
  In  In83  1  0.66653027  0.00055905  0.75139904  1
  In  In84  1  -0.00186228  0.66554839  0.50223990  1
  In  In85  1  0.66862200  0.66636556  -0.00169035  1
  In  In86  1  0.50060982  0.16581120  0.74955105  1
  In  In87  1  0.50240721  0.49792085  -0.00040632  1
  In  In88  1  -0.00306745  0.66716453  0.75092526  1
  In  In89  1  0.16875839  0.49921412  0.24571627  1
  In  In90  1  0.16460154  0.16660205  0.00312407  1
  In  In91  1  0.00255609  0.33774890  0.50232099  1
  In  In92  1  0.50223727  0.49809616  0.24943717  1
  In  In93  1  0.33352597  -0.00501639  0.24896889  1
  In  In94  1  0.16489387  0.83301718  0.49405185  1
  In  In95  1  0.50070632  0.82978420  0.50258607  1
  In  In96  1  0.00051651  0.33417015  0.75245414  1
  In  In97  1  0.16659943  0.83169654  0.74867985  1
  In  In98  1  0.83621231  0.83691157  0.24764835  1
  In  In99  1  0.83346766  0.83654987  0.00131574  1
  In  In100  1  0.16833199  0.16787949  0.75012648  1
  In  In101  1  0.00208821  0.33611791  0.25349418  1
  In  In102  1  0.66629137  0.32959814  0.00146704  1
  In  In103  1  0.33211214  0.66238095  0.49980769  1
  In  In104  1  0.83303858  0.83304540  0.74937913  1
  In  In105  1  0.83399167  0.17233085  0.25297296  1
  In  In106  1  0.33356941  0.66528364  0.24771225  1
  In  In107  1  0.83231259  0.49836807  0.00000874  1
  Ir  Ir108  1  0.49640278  0.83252270  -0.00542355  1
  Ir  Ir109  1  0.33140326  0.00288123  0.49643387  1
  Ir  Ir110  1  0.66666522  0.65924891  0.49925606  1
  Ir  Ir111  1  0.49915255  0.49750438  0.74860762  1
  Ir  Ir112  1  0.66383489  0.33382853  0.25481934  1
  Ir  Ir113  1  0.66851688  0.66493895  0.25247409  1
  Ir  Ir114  1  0.82678901  0.50167756  0.50019609  1
  Ir  Ir115  1  0.49860038  0.49359598  0.50148938  1
  Ir  Ir116  1  0.17130871  0.49914119  0.75508752  1
  Ir  Ir117  1  -0.00091647  0.66601117  0.00173839  1
  Ir  Ir118  1  0.00200685  0.00548217  0.49552279  1
  Ir  Ir119  1  0.66920546  0.33518260  0.74516054  1
  Ir  Ir120  1  0.00109835  0.33171213  0.00119254  1
  Ir  Ir121  1  0.82836574  0.49820374  0.74757976  1
  Ir  Ir122  1  0.17628000  0.16588043  0.49643730  1
  Ir  Ir123  1  0.33230735  0.33204158  0.00397564  1
  Ir  Ir124  1  0.16915949  0.16460500  0.25221063  1
  Ir  Ir125  1  0.33556074  0.33129598  0.49318158  1
  Ir  Ir126  1  0.49408427  0.16572384  -0.00077664  1
  Ir  Ir127  1  0.49639609  0.16985059  0.49219946  1
  Ir  Ir128  1  0.82944714  0.17355746  0.75308843  1
  Ir  Ir129  1  0.83106660  0.17156819  0.50474681  1
  Ir  Ir130  1  0.16824880  0.49540521  -0.00285318  1
  Ir  Ir131  1  0.33276013  -0.00329977  -0.00015126  1
  Ir  Ir132  1  0.49870585  0.83005943  0.75412614  1
  Ir  Ir133  1  -0.00090689  0.67070430  0.24713978  1
  Ir  Ir134  1  0.50324849  0.83078780  0.24796117  1
  Ir  Ir135  1  0.33457032  0.33285868  0.25198836  1
  Ir  Ir136  1  0.83575414  0.17302958  -0.00304094  1
  Ir  Ir137  1  0.33499114  0.66135238  0.75505507  1
  Ir  Ir138  1  0.33248025  0.66510895  -0.00415780  1
  Ir  Ir139  1  0.16850420  0.83377743  0.00473282  1
  Ir  Ir140  1  0.66509107  0.33256110  0.50001753  1
  Ir  Ir141  1  0.00118997  -0.00033751  0.24970347  1
  Ir  Ir142  1  0.49805448  0.17039023  0.25325428  1
  Ir  Ir143  1  0.15992710  0.83299751  0.24534131  1
  O  O144  1  0.31180400  0.32346434  0.12954565  1
  O  O145  1  0.31604435  0.31180297  0.61420416  1
  O  O146  1  0.31532692  0.65925145  0.11644839  1
  O  O147  1  0.31708118  0.65384170  0.63434119  1
  O  O148  1  0.30622246  0.99535048  0.12118989  1
  O  O149  1  0.29949002  1.00250652  0.61579513  1
  O  O150  1  0.64685694  0.33258081  0.13529745  1
  O  O151  1  0.64423417  0.33478142  0.62193821  1
  O  O152  1  0.64560415  0.65070145  0.13282428  1
  O  O153  1  0.64242033  0.64512766  0.61862795  1
  O  O154  1  0.64451314  1.00678725  0.12305506  1
  O  O155  1  0.64325927  0.99693099  0.62519275  1
  O  O156  1  0.96965688  0.32312563  0.12038326  1
  O  O157  1  0.96951382  0.34058478  0.62624362  1
  O  O158  1  0.96764941  0.66566465  0.12538719  1
  O  O159  1  0.98329753  0.63659238  0.62631187  1
  O  O160  1  0.96785687  0.98801330  0.13109373  1
  O  O161  1  0.98246978  0.99666978  0.61602431  1
  O  O162  1  0.18908701  0.15631266  0.13224640  1
  O  O163  1  0.20697501  0.15817493  0.61611217  1
  O  O164  1  0.19842672  0.49794670  0.11507067  1
  O  O165  1  0.20082292  0.50085830  0.63680018  1
  O  O166  1  0.18768817  0.83546651  0.12551918  1
  O  O167  1  0.18103247  0.83200624  0.62030736  1
  O  O168  1  0.51615301  0.16740523  0.12980644  1
  O  O169  1  0.51325808  0.16716986  0.61317611  1
  O  O170  1  0.53941276  0.49483605  0.12505373  1
  O  O171  1  0.52957616  0.49440102  0.62483729  1
  O  O172  1  0.51715109  0.83415459  0.11890784  1
  O  O173  1  0.53073039  0.83209691  0.63369924  1
  O  O174  1  0.86656351  0.16280489  0.11638170  1
  O  O175  1  0.85475827  0.17300349  0.62994131  1
  O  O176  1  0.84372200  0.48316326  0.12854798  1
  O  O177  1  0.85960071  0.49043762  0.62389733  1
  O  O178  1  0.87163946  0.81737705  0.12571464  1
  O  O179  1  0.87792165  0.82682630  0.62483950  1
  O  O180  1  0.14848446  0.17411364  0.37427179  1
  O  O181  1  0.13191021  0.17825192  0.87985734  1
  O  O182  1  0.16496187  0.51929492  0.37350109  1
  O  O183  1  0.14914928  0.48901041  0.87614829  1
  O  O184  1  0.12950358  0.83119546  0.36420037  1
  O  O185  1  0.15101825  0.83168883  0.88448029  1
  O  O186  1  0.46800506  0.18108173  0.37205118  1
  O  O187  1  0.46494614  0.16628102  0.88067720  1
  O  O188  1  0.46903243  0.49466199  0.38155692  1
  O  O189  1  0.46898839  0.49655492  0.86857634  1
  O  O190  1  0.48724737  0.83526285  0.36805101  1
  O  O191  1  0.46463005  0.83120799  0.87473870  1
  O  O192  1  0.80312859  0.17283192  0.38373253  1
  O  O193  1  0.79878108  0.17860242  0.87489184  1
  O  O194  1  0.79447630  0.51208073  0.38151747  1
  O  O195  1  0.79741615  0.50612204  0.86879432  1
  O  O196  1  0.81906050  0.83530340  0.37381020  1
  O  O197  1  0.79467736  0.85042219  0.87693569  1
  O  O198  1  0.02073639  0.01265834  0.37127779  1
  O  O199  1  0.02447573  0.02805483  0.87740146  1
  O  O200  1  0.03559476  0.33865520  0.37961088  1
  O  O201  1  0.03202315  0.33203040  0.88149315  1
  O  O202  1  0.02824066  0.67988822  0.36648489  1
  O  O203  1  0.01948171  0.66470664  0.88186749  1
  O  O204  1  0.36464216  0.00767704  0.37681482  1
  O  O205  1  0.35008234  0.00777903  0.88086418  1
  O  O206  1  0.36407984  0.35150874  0.37218123  1
  O  O207  1  0.35150151  0.34620240  0.88440347  1
  O  O208  1  0.34315728  0.64630281  0.37330832  1
  O  O209  1  0.35099148  0.67633615  0.87504505  1
  O  O210  1  0.68489737  0.01435396  0.37402956  1
  O  O211  1  0.70060732  0.01413724  0.87643249  1
  O  O212  1  0.68736074  0.34112353  0.37808652  1
  O  O213  1  0.68758994  0.34289240  0.86533466  1
  O  O214  1  0.69901553  0.66934533  0.37650439  1
  O  O215  1  0.70411630  0.68131483  0.87218743  1
  O  O216  1  0.07359859  0.09192461  0.04172195  1
  O  O217  1  0.08491021  0.09351958  0.52250949  1
  O  O218  1  0.07234031  0.42555984  0.02069489  1
  O  O219  1  0.06923004  0.43836557  0.53180890  1
  O  O220  1  0.06969705  0.76643815  0.02516958  1
  O  O221  1  0.05583190  0.77486175  0.51291435  1
  O  O222  1  0.39876635  0.09455915  0.01481397  1
  O  O223  1  0.39714902  0.10456000  0.51321576  1
  O  O224  1  0.39699766  0.42800436  0.02404550  1
  O  O225  1  0.39992546  0.42815349  0.52453032  1
  O  O226  1  0.40009535  0.76239433  0.00946921  1
  O  O227  1  0.40867170  0.75486440  0.51130096  1
  O  O228  1  0.74622188  0.10577234  0.01521958  1
  O  O229  1  0.74130360  0.10108335  0.51404592  1
  O  O230  1  0.73367989  0.42913276  0.01952247  1
  O  O231  1  0.73533941  0.42673829  0.52690962  1
  O  O232  1  0.74475533  0.75714125  0.02801491  1
  O  O233  1  0.73146066  0.75226355  0.52518982  1
  O  O234  1  0.08365276  0.25751457  0.02790457  1
  O  O235  1  0.10487683  0.25591214  0.51300753  1
  O  O236  1  0.09475905  0.58877714  0.01805068  1
  O  O237  1  0.10145627  0.60313493  0.49829240  1
  O  O238  1  0.10057101  0.92711108  0.02791999  1
  O  O239  1  0.09372499  0.93767837  0.51761269  1
  O  O240  1  0.42350728  0.25987327  0.01824353  1
  O  O241  1  0.43172140  0.26674439  0.50697385  1
  O  O242  1  0.41978889  0.58960972  0.01560094  1
  O  O243  1  0.43247331  0.58193457  0.52405129  1
  O  O244  1  0.42514072  0.92642027  0.01529220  1
  O  O245  1  0.41763041  0.92991899  0.50911072  1
  O  O246  1  0.77287852  0.26720515  0.02416914  1
  O  O247  1  0.76316990  0.26743958  0.52584165  1
  O  O248  1  0.76580550  0.59651436  0.02909952  1
  O  O249  1  0.75180238  0.58512324  0.52447247  1
  O  O250  1  0.77074748  0.94036769  0.02676730  1
  O  O251  1  0.75148990  0.91589546  0.52417391  1
  O  O252  1  0.24359932  0.07731146  0.26799769  1
  O  O253  1  0.24855037  0.08140103  0.77709123  1
  O  O254  1  0.24087903  0.39458789  0.27548947  1
  O  O255  1  0.23777221  0.40623302  0.77552493  1
  O  O256  1  0.22772683  0.73834580  0.26750520  1
  O  O257  1  0.24636553  0.73425119  0.76856254  1
  O  O258  1  0.56653464  0.07970528  0.27804787  1
  O  O259  1  0.58058826  0.08201327  0.77780190  1
  O  O260  1  0.56971553  0.39869684  0.28127270  1
  O  O261  1  0.57659356  0.40953086  0.77013008  1
  O  O262  1  0.57598771  0.73599977  0.26658073  1
  O  O263  1  0.57152283  0.74329718  0.77358874  1
  O  O264  1  0.91152676  0.06992360  0.25858132  1
  O  O265  1  0.89863141  0.08342484  0.77898113  1
  O  O266  1  0.90294955  0.40593883  0.26459269  1
  O  O267  1  0.90572150  0.41523650  0.76311072  1
  O  O268  1  0.90750026  0.73519510  0.27311278  1
  O  O269  1  0.89562405  0.73183054  0.78101760  1
  O  O270  1  0.26409549  0.23615858  0.28066258  1
  O  O271  1  0.25878458  0.24384348  0.78752649  1
  O  O272  1  0.27244417  0.55857656  0.25174206  1
  O  O273  1  0.27118613  0.56279660  0.77773914  1
  O  O274  1  0.25193213  0.90202392  0.26469118  1
  O  O275  1  0.26598840  0.89900163  0.77341388  1
  O  O276  1  0.59768180  0.23696969  0.27891478  1
  O  O277  1  0.60198058  0.24270543  0.77112508  1
  O  O278  1  0.60487010  0.56895355  0.27787889  1
  O  O279  1  0.59320263  0.56463609  0.77118734  1
  O  O280  1  0.58803303  0.90821601  0.26780517  1
  O  O281  1  0.59189905  0.89701159  0.77601342  1
  O  O282  1  0.93177566  0.23769030  0.25958925  1
  O  O283  1  0.92412600  0.23813015  0.77405044  1
  O  O284  1  0.92679285  0.58270247  0.27323166  1
  O  O285  1  0.91364527  0.57193556  0.77246367  1
  O  O286  1  0.94350431  0.90289348  0.27117579  1
  O  O287  1  0.91859917  0.91967703  0.77828555  1
  O  O288  1  0.27051341  0.23572686  0.46522119  1
  O  O289  1  0.26161374  0.24123038  0.97563397  1
  O  O290  1  0.27849046  0.55261147  0.49675736  1
  O  O291  1  0.26744819  0.56274045  0.97835198  1
  O  O292  1  0.26112976  0.91321403  0.47685698  1
  O  O293  1  0.26648338  0.89987953  0.97898130  1
  O  O294  1  0.59533412  0.23697767  0.46907759  1
  O  O295  1  0.59176856  0.23209110  0.97752895  1
  O  O296  1  0.59795488  0.55832146  0.47832828  1
  O  O297  1  0.60118490  0.56850881  0.97123069  1
  O  O298  1  0.58090756  0.91472045  0.47806446  1
  O  O299  1  0.59238318  0.89935148  0.97305266  1
  O  O300  1  0.91933069  0.24395991  0.48945207  1
  O  O301  1  0.93546287  0.23560841  0.97696726  1
  O  O302  1  0.91104463  0.57609815  0.47230785  1
  O  O303  1  0.92507932  0.57834070  0.98169987  1
  O  O304  1  0.93781823  0.91000853  0.47707608  1
  O  O305  1  0.92781749  0.91208768  0.97900769  1
  O  O306  1  0.24613779  0.07653891  0.47011202  1
  O  O307  1  0.24297311  0.06990722  0.98615529  1
  O  O308  1  0.23910645  0.39283914  0.47329587  1
  O  O309  1  0.23738676  0.39992095  0.97575999  1
  O  O310  1  0.23165042  0.73143291  0.47594976  1
  O  O311  1  0.24222619  0.74223146  0.97917588  1
  O  O312  1  0.56351065  0.07888699  0.46785600  1
  O  O313  1  0.57091469  0.08199483  0.97842110  1
  O  O314  1  0.56974892  0.40077328  0.47356455  1
  O  O315  1  0.57630391  0.40612949  0.97457204  1
  O  O316  1  0.58038039  0.73149897  0.48468238  1
  O  O317  1  0.57297273  0.74705926  0.97659577  1
  O  O318  1  0.90424861  0.07990654  0.48397370  1
  O  O319  1  0.89945123  0.07968541  0.97286870  1
  O  O320  1  0.90091073  0.41661041  0.48501061  1
  O  O321  1  0.91266840  0.40414822  0.98656377  1
  O  O322  1  0.90242231  0.73401556  0.46932409  1
  O  O323  1  0.90585866  0.73200740  0.97884111  1
  O  O324  1  0.09490215  0.25126871  0.23343593  1
  O  O325  1  0.09383837  0.26164074  0.73265510  1
  O  O326  1  0.09117041  0.60226416  0.23706262  1
  O  O327  1  0.09577643  0.58421030  0.73998208  1
  O  O328  1  0.09503785  0.93117672  0.21948797  1
  O  O329  1  0.09445326  0.92940277  0.72430512  1
  O  O330  1  0.43183947  0.26860029  0.24301940  1
  O  O331  1  0.42140882  0.25367848  0.73281074  1
  O  O332  1  0.42695288  0.58687711  0.22382469  1
  O  O333  1  0.42621215  0.58593233  0.72839696  1
  O  O334  1  0.43258629  0.92296097  0.24207608  1
  O  O335  1  0.42990511  0.91861329  0.73300372  1
  O  O336  1  0.76217253  0.27386983  0.23008308  1
  O  O337  1  0.76571742  0.27138384  0.72393179  1
  O  O338  1  0.76180179  0.59977212  0.22870267  1
  O  O339  1  0.75386505  0.58038633  0.72505347  1
  O  O340  1  0.77040523  0.93495445  0.22190762  1
  O  O341  1  0.75206012  0.92099424  0.72163532  1
  O  O342  1  0.07457572  0.09286076  0.22338867  1
  O  O343  1  0.08230965  0.08912299  0.71849589  1
  O  O344  1  0.07583592  0.42769523  0.23105054  1
  O  O345  1  0.07694539  0.43285679  0.73247270  1
  O  O346  1  0.06215360  0.76842626  0.22293531  1
  O  O347  1  0.06423296  0.76504193  0.72607387  1
  O  O348  1  0.40799673  0.09781150  0.24321910  1
  O  O349  1  0.40562061  0.09175029  0.72488137  1
  O  O350  1  0.39576544  0.42717659  0.22659759  1
  O  O351  1  0.40371336  0.43109544  0.72842175  1
  O  O352  1  0.41370419  0.75848800  0.23775657  1
  O  O353  1  0.40319779  0.75877046  0.73596720  1
  O  O354  1  0.74577183  0.09697217  0.23153161  1
  O  O355  1  0.74133819  0.10525742  0.73883773  1
  O  O356  1  0.72337967  0.43285386  0.23875472  1
  O  O357  1  0.73915696  0.42628823  0.71692565  1
  O  O358  1  0.74086729  0.75219469  0.22905135  1
  O  O359  1  0.73079883  0.76425229  0.71907999  1
