# generated using pymatgen
data_BaLaInIrO6
_symmetry_space_group_name_H-M   'P 1'
_cell_length_a   17.50682266
_cell_length_b   17.52509117
_cell_length_c   16.47694497
_cell_angle_alpha   90.01759569
_cell_angle_beta   89.99797366
_cell_angle_gamma   89.99736137
_symmetry_Int_Tables_number   1
_chemical_formula_structural   BaLaInIrO6
_chemical_formula_sum   'Ba36 La36 In36 Ir36 O216'
_cell_volume   5055.26921152
_cell_formula_units_Z   36
loop_
 _symmetry_equiv_pos_site_id
 _symmetry_equiv_pos_as_xyz
  1  'x, y, z'
loop_
 _atom_site_type_symbol
 _atom_site_label
 _atom_site_symmetry_multiplicity
 _atom_site_fract_x
 _atom_site_fract_y
 _atom_site_fract_z
 _atom_site_occupancy
  Ba  Ba0  1  0.33143637  0.49474214  0.37626014  1
  Ba  Ba1  1  0.16843886  0.34361278  0.62476409  1
  Ba  Ba2  1  0.33317694  0.50714504  0.62382767  1
  Ba  Ba3  1  0.83211859  0.00981511  0.12898596  1
  Ba  Ba4  1  0.50178198  0.65684335  0.37620435  1
  Ba  Ba5  1  -0.00402105  0.49243460  0.37368414  1
  Ba  Ba6  1  0.16696723  0.65392053  0.37586512  1
  Ba  Ba7  1  0.50411754  0.65646886  0.87368171  1
  Ba  Ba8  1  0.33326545  0.48990770  0.86758308  1
  Ba  Ba9  1  0.16868608  0.65071572  0.87382303  1
  Ba  Ba10  1  0.49595623  0.01108688  0.12674261  1
  Ba  Ba11  1  0.49714058  0.00817878  0.62969082  1
  Ba  Ba12  1  0.66616611  0.15868362  0.87626777  1
  Ba  Ba13  1  0.82925893  0.00839730  0.62412133  1
  Ba  Ba14  1  -0.00040108  0.82506100  0.37513117  1
  Ba  Ba15  1  0.33178486  0.15787012  0.37829136  1
  Ba  Ba16  1  0.99950113  0.50626128  0.12445304  1
  Ba  Ba17  1  0.16846094  0.00503556  0.62001883  1
  Ba  Ba18  1  0.33520996  0.17645956  0.62440437  1
  Ba  Ba19  1  0.67110976  0.17589560  0.12497251  1
  Ba  Ba20  1  0.83285511  0.32007433  0.87172623  1
  Ba  Ba21  1  0.16746367  0.99009777  0.37353323  1
  Ba  Ba22  1  0.83505234  0.98985632  0.37369974  1
  Ba  Ba23  1  0.82589885  0.67525964  0.62367219  1
  Ba  Ba24  1  0.17083888  0.67138651  0.62432978  1
  Ba  Ba25  1  0.50715612  0.32655380  0.87085854  1
  Ba  Ba26  1  0.49639121  0.67358827  0.62641350  1
  Ba  Ba27  1  0.83170245  0.34344280  0.12455228  1
  Ba  Ba28  1  0.66719101  0.84350813  0.62816945  1
  Ba  Ba29  1  0.66347619  0.49266350  0.38017278  1
  Ba  Ba30  1  1.00455460  0.18070346  0.13110817  1
  Ba  Ba31  1  0.66211073  0.49255093  0.87246304  1
  Ba  Ba32  1  0.16427086  0.01262438  0.12761501  1
  Ba  Ba33  1  0.32984647  0.82553850  0.37143508  1
  Ba  Ba34  1  0.16104526  0.35101015  0.12587443  1
  Ba  Ba35  1  0.66539257  0.51442712  0.62931392  1
  La  La36  1  0.66728115  0.17428061  0.62831931  1
  La  La37  1  0.49913746  0.67632384  0.12593072  1
  La  La38  1  0.33930691  0.18642328  0.12926793  1
  La  La39  1  0.33185743  0.81867877  0.87435393  1
  La  La40  1  -0.00305595  0.48351618  0.87297586  1
  La  La41  1  0.16367290  0.67278661  0.12754687  1
  La  La42  1  1.00882964  0.17808887  0.62232210  1
  La  La43  1  0.17073418  0.98574362  0.87696393  1
  La  La44  1  0.17090547  0.32285197  0.87775032  1
  La  La45  1  0.66940751  0.84712533  0.12268384  1
  La  La46  1  0.83172244  0.34389111  0.62373427  1
  La  La47  1  0.83592085  0.65351922  0.37626448  1
  La  La48  1  0.49380398  0.34849681  0.62476788  1
  La  La49  1  0.33230483  0.15638225  0.87626416  1
  La  La50  1  1.00001380  0.84516898  0.62074959  1
  La  La51  1  0.83240139  0.99047839  0.87603897  1
  La  La52  1  0.50780738  0.98673245  0.87315061  1
  La  La53  1  0.50306198  0.34552184  0.12087659  1
  La  La54  1  0.50087940  0.32426252  0.37829401  1
  La  La55  1  0.83095829  0.67892221  0.12557872  1
  La  La56  1  1.00395032  0.84411175  0.12497549  1
  La  La57  1  0.50608728  0.98366975  0.38340704  1
  La  La58  1  0.33430432  0.84861530  0.12398151  1
  La  La59  1  0.66468581  0.81901180  0.87229102  1
  La  La60  1  -0.00336924  0.82029227  0.87383277  1
  La  La61  1  0.83603193  0.65168114  0.87057910  1
  La  La62  1  0.33298439  0.51551807  0.12330121  1
  La  La63  1  -0.00232683  0.15206989  0.87610388  1
  La  La64  1  0.34324429  0.83986067  0.62093296  1
  La  La65  1  -0.00109834  0.15433435  0.37615741  1
  La  La66  1  0.66431142  0.15075671  0.37676468  1
  La  La67  1  0.84002720  0.31857983  0.37026792  1
  La  La68  1  1.00771451  0.51749795  0.62557061  1
  La  La69  1  0.67141560  0.51570974  0.12374438  1
  La  La70  1  0.66038199  0.81762420  0.37781846  1
  La  La71  1  0.16773433  0.32660421  0.37241780  1
  In  In72  1  0.50007220  0.83223032  -0.00084242  1
  In  In73  1  0.16458239  0.16500454  0.74991488  1
  In  In74  1  0.16845971  0.83067880  0.50129152  1
  In  In75  1  0.83317479  0.16705670  0.50231856  1
  In  In76  1  0.83105383  0.49669362  0.49976664  1
  In  In77  1  0.50006624  0.83122404  0.24972207  1
  In  In78  1  0.66589006  0.33358957  0.00031850  1
  In  In79  1  0.83505667  0.16405943  -0.00008737  1
  In  In80  1  -0.00223277  0.66602816  0.24937114  1
  In  In81  1  0.16774119  0.16804326  0.00121697  1
  In  In82  1  0.33373659  0.66559439  0.49630537  1
  In  In83  1  0.33273251  0.33513231  0.49815707  1
  In  In84  1  -0.00108182  0.33385109  0.49944258  1
  In  In85  1  -0.00095012  -0.00060353  0.50152101  1
  In  In86  1  0.33203474  0.66504044  0.75205136  1
  In  In87  1  0.50165866  0.16773713  0.50309117  1
  In  In88  1  0.50010359  0.50293799  0.00192544  1
  In  In89  1  0.83488751  0.83454329  0.75200729  1
  In  In90  1  0.16636970  0.83200803  0.75041727  1
  In  In91  1  0.49990105  0.49884856  0.25091057  1
  In  In92  1  0.66596820  -0.00205729  0.25189695  1
  In  In93  1  0.16663508  0.83092074  0.00001880  1
  In  In94  1  0.00010303  -0.00045933  0.24956375  1
  In  In95  1  0.00076360  -0.00164373  -0.00102327  1
  In  In96  1  0.50077647  0.16750418  0.25356598  1
  In  In97  1  0.33272244  0.00345916  0.24973921  1
  In  In98  1  0.83621870  0.49932682  0.74664054  1
  In  In99  1  0.49931882  0.16575581  0.00085633  1
  In  In100  1  0.66815267  0.33136662  0.74430714  1
  In  In101  1  0.33382168  -0.00044650  0.75448077  1
  In  In102  1  0.66663748  0.33360559  0.25641209  1
  In  In103  1  0.00231203  0.33193531  -0.00238197  1
  In  In104  1  0.33295046  0.33704217  0.00109772  1
  In  In105  1  0.83098749  0.83135682  0.49732098  1
  In  In106  1  -0.00155712  0.66547446  -0.00113027  1
  In  In107  1  0.83272506  0.50053655  -0.00210197  1
  Ir  Ir108  1  0.16102914  0.49931760  0.49946224  1
  Ir  Ir109  1  -0.00395021  0.66450883  0.50158389  1
  Ir  Ir110  1  0.33496224  0.00052629  -0.00291573  1
  Ir  Ir111  1  0.00016561  -0.00009237  0.75149321  1
  Ir  Ir112  1  0.66908910  0.67093384  0.00241851  1
  Ir  Ir113  1  0.33174824  0.33749908  0.24869960  1
  Ir  Ir114  1  0.33611121  0.33187613  0.75129471  1
  Ir  Ir115  1  0.66803228  -0.00578621  -0.00445902  1
  Ir  Ir116  1  0.66475741  0.00131852  0.50349771  1
  Ir  Ir117  1  0.66734143  0.00393597  0.75176764  1
  Ir  Ir118  1  0.16896441  0.49974222  0.24906802  1
  Ir  Ir119  1  0.66908689  0.66711058  0.24795469  1
  Ir  Ir120  1  0.00236784  0.33626044  0.25410510  1
  Ir  Ir121  1  0.66501096  0.66892950  0.49979882  1
  Ir  Ir122  1  0.66811925  0.33079470  0.50278068  1
  Ir  Ir123  1  0.50067349  0.83603610  0.75057346  1
  Ir  Ir124  1  0.49934764  0.16650426  0.75076097  1
  Ir  Ir125  1  0.33579587  -0.00080220  0.50084828  1
  Ir  Ir126  1  0.82852069  0.82761114  0.24539240  1
  Ir  Ir127  1  0.83356676  0.17029949  0.25441286  1
  Ir  Ir128  1  0.16908489  0.82787324  0.24484884  1
  Ir  Ir129  1  0.33044385  0.66568763  0.24168242  1
  Ir  Ir130  1  0.33202317  0.66727868  0.00366174  1
  Ir  Ir131  1  0.16774042  0.50332475  -0.00254351  1
  Ir  Ir132  1  0.82998548  0.50274969  0.24910819  1
  Ir  Ir133  1  0.83980741  0.16299901  0.74724330  1
  Ir  Ir134  1  -0.00019097  0.66770485  0.74933688  1
  Ir  Ir135  1  0.66593735  0.67087328  0.75117405  1
  Ir  Ir136  1  0.50141251  0.83593572  0.50267763  1
  Ir  Ir137  1  0.50223683  0.49929564  0.50089471  1
  Ir  Ir138  1  0.16671161  0.16751613  0.49931373  1
  Ir  Ir139  1  0.00064334  0.33038006  0.74739143  1
  Ir  Ir140  1  0.16888544  0.17319124  0.25460821  1
  Ir  Ir141  1  0.50032234  0.49993229  0.74686425  1
  Ir  Ir142  1  0.82983195  0.83154347  -0.00107147  1
  Ir  Ir143  1  0.16018169  0.49610347  0.74875421  1
  O  O144  1  0.30595263  0.32521909  0.13180495  1
  O  O145  1  0.31865886  0.33528269  0.63046633  1
  O  O146  1  0.29916578  0.65806932  0.12244530  1
  O  O147  1  0.32392117  0.67383671  0.62523278  1
  O  O148  1  0.31145452  0.98692918  0.11547635  1
  O  O149  1  0.31741747  0.98842975  0.62411923  1
  O  O150  1  0.63759993  0.32909212  0.13066281  1
  O  O151  1  0.63208171  0.31510533  0.61892247  1
  O  O152  1  0.63692496  0.65969794  0.12529210  1
  O  O153  1  0.64298427  0.67178342  0.62575409  1
  O  O154  1  0.64529590  0.98577814  0.11826697  1
  O  O155  1  0.64497803  1.00619207  0.62886962  1
  O  O156  1  0.98447239  0.33703727  0.13244425  1
  O  O157  1  0.96714930  0.31741965  0.62818442  1
  O  O158  1  0.96508475  0.66311912  0.12436763  1
  O  O159  1  0.97344269  0.65398338  0.62677031  1
  O  O160  1  0.98031307  0.98460852  0.12655420  1
  O  O161  1  0.97622295  0.98565004  0.63335568  1
  O  O162  1  0.19966286  0.17019076  0.13353261  1
  O  O163  1  0.18577361  0.16263787  0.62049968  1
  O  O164  1  0.19723339  0.50584008  0.12260297  1
  O  O165  1  0.18260925  0.50088634  0.62351774  1
  O  O166  1  0.19942879  0.81799454  0.12589535  1
  O  O167  1  0.20527393  0.83274124  0.62834284  1
  O  O168  1  0.52137093  0.16216558  0.12816973  1
  O  O169  1  0.53021970  0.16083762  0.63010026  1
  O  O170  1  0.53476489  0.49444289  0.12856905  1
  O  O171  1  0.51914517  0.49042616  0.62138793  1
  O  O172  1  0.53254050  0.81940234  0.12357934  1
  O  O173  1  0.52108193  0.83260883  0.62735171  1
  O  O174  1  0.85383414  0.16555676  0.13357516  1
  O  O175  1  0.87162115  0.16312330  0.62961416  1
  O  O176  1  0.84889018  0.50642897  0.12957689  1
  O  O177  1  0.87023762  0.49031248  0.62334251  1
  O  O178  1  0.86441735  0.81828412  0.12212024  1
  O  O179  1  0.86206837  0.82939724  0.62724568  1
  O  O180  1  0.13619290  0.17941128  0.37716656  1
  O  O181  1  0.13284136  0.18214161  0.87186597  1
  O  O182  1  0.14359276  0.49282620  0.37484121  1
  O  O183  1  0.13360797  0.49809125  0.87167783  1
  O  O184  1  0.14986511  0.83139603  0.36506025  1
  O  O185  1  0.13062697  0.84386890  0.87535787  1
  O  O186  1  0.47827276  0.18679006  0.37866171  1
  O  O187  1  0.46796757  0.17105850  0.87053991  1
  O  O188  1  0.48551345  0.49995844  0.38083730  1
  O  O189  1  0.48747255  0.49965885  0.86907461  1
  O  O190  1  0.48191164  0.84197150  0.38159524  1
  O  O191  1  0.47200315  0.84154570  0.87145128  1
  O  O192  1  0.80154366  0.17839653  0.37475354  1
  O  O193  1  0.81729235  0.16058443  0.86460065  1
  O  O194  1  0.81256543  0.51196280  0.36986755  1
  O  O195  1  0.81137859  0.51298343  0.87095955  1
  O  O196  1  0.79741938  0.83086961  0.36514686  1
  O  O197  1  0.80003244  0.84685528  0.88048953  1
  O  O198  1  0.01818000  0.00842936  0.37294219  1
  O  O199  1  0.03379526  0.01165540  0.86880859  1
  O  O200  1  0.03056448  0.33743544  0.37293861  1
  O  O201  1  0.03475740  0.34349132  0.86433789  1
  O  O202  1  0.01572999  0.66765642  0.37977407  1
  O  O203  1  0.02283046  0.68386069  0.86876767  1
  O  O204  1  0.36629058  -0.00118119  0.37950827  1
  O  O205  1  0.37060630  0.01344881  0.88137599  1
  O  O206  1  0.36281825  0.34058082  0.36847038  1
  O  O207  1  0.35592058  0.33391435  0.87018319  1
  O  O208  1  0.35199931  0.66592394  0.36242574  1
  O  O209  1  0.35653350  0.67535171  0.88374921  1
  O  O210  1  0.68588887  0.00617895  0.38386349  1
  O  O211  1  0.69712840  0.00111402  0.87323965  1
  O  O212  1  0.70387407  0.34028754  0.38544693  1
  O  O213  1  0.68212415  0.33808941  0.86941693  1
  O  O214  1  0.69816076  0.67584024  0.37189373  1
  O  O215  1  0.69864121  0.67861595  0.87865126  1
  O  O216  1  0.07155800  0.09705876  0.01424862  1
  O  O217  1  0.07372422  0.09933958  0.51716113  1
  O  O218  1  0.07327022  0.44066154  0.00505226  1
  O  O219  1  0.06731539  0.43330541  0.52295936  1
  O  O220  1  0.06653924  0.76226514  0.02678185  1
  O  O221  1  0.06257524  0.75695670  0.52517100  1
  O  O222  1  0.39112741  0.10045660  0.02037793  1
  O  O223  1  0.40760271  0.08667442  0.51664507  1
  O  O224  1  0.39974894  0.43539282  0.02812858  1
  O  O225  1  0.41484367  0.42655797  0.51573710  1
  O  O226  1  0.39890089  0.76183786  0.02578685  1
  O  O227  1  0.40972579  0.76654307  0.51808810  1
  O  O228  1  0.73822266  0.08216854  0.01391792  1
  O  O229  1  0.72831137  0.09916293  0.52024484  1
  O  O230  1  0.73236447  0.43767793  0.02384075  1
  O  O231  1  0.73537350  0.41952068  0.52918250  1
  O  O232  1  0.73282771  0.76844001  0.02501236  1
  O  O233  1  0.73280199  0.75992114  0.51050402  1
  O  O234  1  0.10488985  0.27243933  0.00798353  1
  O  O235  1  0.09252971  0.25359351  0.51900146  1
  O  O236  1  0.10421592  0.59909865  0.02094764  1
  O  O237  1  0.08754831  0.59143001  0.52264617  1
  O  O238  1  0.09355351  0.92382901  0.02068152  1
  O  O239  1  0.08643071  0.91661539  0.52079465  1
  O  O240  1  0.42561468  0.26308301  0.03352896  1
  O  O241  1  0.43231941  0.26681831  0.52193929  1
  O  O242  1  0.42719049  0.60209772  0.03104210  1
  O  O243  1  0.42925868  0.58808334  0.51220725  1
  O  O244  1  0.42504370  0.92855015  0.01732016  1
  O  O245  1  0.42491296  0.92423638  0.52485599  1
  O  O246  1  0.76297608  0.25826077  0.01177652  1
  O  O247  1  0.76002234  0.26394608  0.53208837  1
  O  O248  1  0.76450161  0.60789725  0.02149795  1
  O  O249  1  0.75460524  0.59481277  0.51060247  1
  O  O250  1  0.76146451  0.92393548  0.02237614  1
  O  O251  1  0.75240657  0.92875805  0.51597528  1
  O  O252  1  0.23598358  0.08059286  0.27006283  1
  O  O253  1  0.23789763  0.07227111  0.78289686  1
  O  O254  1  0.23621243  0.40375828  0.27497577  1
  O  O255  1  0.23294214  0.39987218  0.77285156  1
  O  O256  1  0.23547125  0.73215672  0.26034604  1
  O  O257  1  0.24687755  0.74589489  0.78113333  1
  O  O258  1  0.56655028  0.06404806  0.28221225  1
  O  O259  1  0.56590831  0.06965199  0.77582622  1
  O  O260  1  0.56084838  0.39507906  0.27358244  1
  O  O261  1  0.57405066  0.41278680  0.74983903  1
  O  O262  1  0.57962590  0.73731174  0.26944749  1
  O  O263  1  0.57827107  0.75071710  0.77621903  1
  O  O264  1  0.90815120  0.08452408  0.27233438  1
  O  O265  1  0.90682394  0.06719900  0.77874269  1
  O  O266  1  0.89883928  0.40420407  0.27304696  1
  O  O267  1  0.91640459  0.40378164  0.77122354  1
  O  O268  1  0.89289507  0.73446099  0.26905156  1
  O  O269  1  0.90730934  0.73626139  0.77886845  1
  O  O270  1  0.25907236  0.24774565  0.27812437  1
  O  O271  1  0.26459015  0.24192127  0.77577978  1
  O  O272  1  0.26449113  0.56702779  0.25809215  1
  O  O273  1  0.25031060  0.56843882  0.76201654  1
  O  O274  1  0.25685720  0.90292715  0.25580299  1
  O  O275  1  0.25890391  0.90937070  0.79120756  1
  O  O276  1  0.60200617  0.23365880  0.28490798  1
  O  O277  1  0.59282681  0.23105497  0.75956646  1
  O  O278  1  0.60022315  0.57684293  0.26433139  1
  O  O279  1  0.59048512  0.57790876  0.76389246  1
  O  O280  1  0.59686992  0.90079961  0.27694785  1
  O  O281  1  0.59585549  0.90958664  0.77981660  1
  O  O282  1  0.93169871  0.24079387  0.28045193  1
  O  O283  1  0.93704317  0.22978366  0.77195488  1
  O  O284  1  0.91819719  0.57442872  0.26911920  1
  O  O285  1  0.93477184  0.57436167  0.77413116  1
  O  O286  1  0.91821885  0.89765413  0.26162885  1
  O  O287  1  0.93167682  0.90868824  0.78415460  1
  O  O288  1  0.25094618  0.24434643  0.47951281  1
  O  O289  1  0.26704957  0.23502663  0.97371846  1
  O  O290  1  0.25126638  0.56982533  0.48760502  1
  O  O291  1  0.26902316  0.56831558  0.98682666  1
  O  O292  1  0.26385956  0.91263361  0.48547346  1
  O  O293  1  0.27013076  0.90370099  0.97384808  1
  O  O294  1  0.60683366  0.23709759  0.47656658  1
  O  O295  1  0.59159549  0.23763438  0.98280285  1
  O  O296  1  0.59276383  0.57632263  0.48782302  1
  O  O297  1  0.60191981  0.57829146  0.99028987  1
  O  O298  1  0.59551299  0.90742252  0.47601538  1
  O  O299  1  0.60017752  0.90234322  0.97179895  1
  O  O300  1  0.92948223  0.23738951  0.46893203  1
  O  O301  1  0.93699730  0.23044772  0.97556140  1
  O  O302  1  0.92402051  0.57726090  0.48379833  1
  O  O303  1  0.92963855  0.57315667  0.96502362  1
  O  O304  1  0.92421665  0.90372256  0.48666772  1
  O  O305  1  0.92610934  0.89491274  0.97505680  1
  O  O306  1  0.24265572  0.07287217  0.48048505  1
  O  O307  1  0.24073644  0.06533901  0.96990728  1
  O  O308  1  0.23117569  0.40683789  0.47955687  1
  O  O309  1  0.23165057  0.40757660  0.97543681  1
  O  O310  1  0.24157267  0.73998564  0.48011151  1
  O  O311  1  0.24352589  0.73765732  0.97967533  1
  O  O312  1  0.57316706  0.06881564  0.47638342  1
  O  O313  1  0.57129366  0.05840650  0.97486776  1
  O  O314  1  0.56982736  0.39637479  0.48164729  1
  O  O315  1  0.56339139  0.40183470  0.99441446  1
  O  O316  1  0.57679414  0.74846623  0.47459331  1
  O  O317  1  0.57862960  0.73913732  0.98064370  1
  O  O318  1  0.90965334  0.07789248  0.48002492  1
  O  O319  1  0.90271958  0.06493883  0.97301966  1
  O  O320  1  0.89453347  0.39493656  0.47856211  1
  O  O321  1  0.91239430  0.40937776  0.97695491  1
  O  O322  1  0.90219824  0.73012117  0.47664030  1
  O  O323  1  0.89302691  0.73805914  0.97216003  1
  O  O324  1  0.09994977  0.27007711  0.24088265  1
  O  O325  1  0.08548790  0.25827540  0.72193023  1
  O  O326  1  0.09994720  0.59373776  0.22658525  1
  O  O327  1  0.08858229  0.59002438  0.72527268  1
  O  O328  1  0.09275072  0.91297688  0.22637523  1
  O  O329  1  0.08809252  0.92931794  0.73104963  1
  O  O330  1  0.42588040  0.27228332  0.22633032  1
  O  O331  1  0.43412625  0.26395188  0.72483198  1
  O  O332  1  0.42475916  0.59811761  0.21854538  1
  O  O333  1  0.42475596  0.58562825  0.74020681  1
  O  O334  1  0.42006767  0.91924906  0.22809817  1
  O  O335  1  0.42604547  0.92085297  0.73524229  1
  O  O336  1  0.76901715  0.26355540  0.24082715  1
  O  O337  1  0.76941794  0.25246463  0.71790470  1
  O  O338  1  0.76401474  0.59967373  0.22373180  1
  O  O339  1  0.75684401  0.59890916  0.73881162  1
  O  O340  1  0.75666009  0.91549769  0.22427145  1
  O  O341  1  0.76020178  0.93466518  0.74009976  1
  O  O342  1  0.07888979  0.10166664  0.24095658  1
  O  O343  1  0.06189087  0.09463363  0.72428920  1
  O  O344  1  0.07238840  0.43239563  0.23614788  1
  O  O345  1  0.06303700  0.42878854  0.72430236  1
  O  O346  1  0.07578032  0.75889096  0.21908292  1
  O  O347  1  0.06067842  0.76490050  0.72514207  1
  O  O348  1  0.39717513  0.10292638  0.22643374  1
  O  O349  1  0.40672467  0.10001724  0.73830264  1
  O  O350  1  0.39687818  0.42981368  0.22060529  1
  O  O351  1  0.41330475  0.42219313  0.72508604  1
  O  O352  1  0.40192283  0.75537528  0.21621513  1
  O  O353  1  0.40729112  0.76902312  0.73453599  1
  O  O354  1  0.74207194  0.09725063  0.24405732  1
  O  O355  1  0.73836743  0.09980486  0.72505703  1
  O  O356  1  0.73499072  0.43845659  0.22977917  1
  O  O357  1  0.75238122  0.41560157  0.71851130  1
  O  O358  1  0.73602224  0.75973004  0.21644896  1
  O  O359  1  0.73637569  0.76098481  0.74294012  1
