# generated using pymatgen
data_BaLaInIrO6
_symmetry_space_group_name_H-M   'P 1'
_cell_length_a   17.54199562
_cell_length_b   17.58742993
_cell_length_c   16.52376687
_cell_angle_alpha   89.93856470
_cell_angle_beta   90.00794954
_cell_angle_gamma   89.93244576
_symmetry_Int_Tables_number   1
_chemical_formula_structural   BaLaInIrO6
_chemical_formula_sum   'Ba36 La36 In36 Ir36 O216'
_cell_volume   5097.88320738
_cell_formula_units_Z   36
loop_
 _symmetry_equiv_pos_site_id
 _symmetry_equiv_pos_as_xyz
  1  'x, y, z'
loop_
 _atom_site_type_symbol
 _atom_site_label
 _atom_site_symmetry_multiplicity
 _atom_site_fract_x
 _atom_site_fract_y
 _atom_site_fract_z
 _atom_site_occupancy
  Ba  Ba0  1  0.82950062  0.01384842  0.62098237  1
  Ba  Ba1  1  0.16130445  0.34153620  0.12260966  1
  Ba  Ba2  1  0.16786295  0.65956553  0.37951864  1
  Ba  Ba3  1  0.49950522  0.34611333  0.62598350  1
  Ba  Ba4  1  0.99817629  0.50992463  0.62427061  1
  Ba  Ba5  1  0.66753134  0.82465036  0.37870158  1
  Ba  Ba6  1  0.83841810  0.66301851  0.37555937  1
  Ba  Ba7  1  1.00188219  0.17110713  0.12854904  1
  Ba  Ba8  1  0.66873294  0.15859912  0.37594948  1
  Ba  Ba9  1  0.16751203  0.99419792  0.37117129  1
  Ba  Ba10  1  0.33787639  0.84095578  0.62332749  1
  Ba  Ba11  1  0.34270864  0.51502114  0.62763923  1
  Ba  Ba12  1  0.33878588  0.84003714  0.12652736  1
  Ba  Ba13  1  0.82969939  0.99067586  0.87298475  1
  Ba  Ba14  1  1.00232652  0.83825046  0.12731831  1
  Ba  Ba15  1  0.66733783  0.48911215  0.37553511  1
  Ba  Ba16  1  0.66667277  0.84556511  0.61990726  1
  Ba  Ba17  1  0.16865278  0.00507299  0.12746575  1
  Ba  Ba18  1  0.16594823  0.32863552  0.37477890  1
  Ba  Ba19  1  0.50077091  0.00656968  0.62365509  1
  Ba  Ba20  1  0.83048025  0.33944174  0.12656925  1
  Ba  Ba21  1  0.49623404  0.67967013  0.62477255  1
  Ba  Ba22  1  0.83524175  0.32564564  0.37937090  1
  Ba  Ba23  1  0.83530738  0.99654052  0.37446874  1
  Ba  Ba24  1  0.66930634  0.84218086  0.12744689  1
  Ba  Ba25  1  0.66071097  0.48936636  0.87370069  1
  Ba  Ba26  1  0.33204789  0.48649071  0.87633673  1
  Ba  Ba27  1  0.83908047  0.67120864  0.12736286  1
  Ba  Ba28  1  0.16788962  0.67599921  0.12525363  1
  Ba  Ba29  1  0.32971825  0.50406602  0.12625156  1
  Ba  Ba30  1  0.49453866  0.34172953  0.13008953  1
  Ba  Ba31  1  -0.00364973  0.49502130  0.37506358  1
  Ba  Ba32  1  0.50223188  0.98938950  0.87354430  1
  Ba  Ba33  1  1.00092516  0.83996482  0.62350538  1
  Ba  Ba34  1  0.00114197  0.82879891  0.37477239  1
  Ba  Ba35  1  0.33151657  0.17934208  0.12598849  1
  La  La36  1  0.33030162  0.81589332  0.37847147  1
  La  La37  1  0.16519453  0.35245208  0.62540984  1
  La  La38  1  0.82869367  0.34547303  0.62389943  1
  La  La39  1  0.49189743  0.67335993  0.12491105  1
  La  La40  1  0.49821243  0.64716934  0.87047832  1
  La  La41  1  0.83207429  0.01404709  0.12901726  1
  La  La42  1  0.50668227  0.31957517  0.37947310  1
  La  La43  1  0.33273862  0.15524279  0.37398423  1
  La  La44  1  -0.00349104  0.15787414  0.37420642  1
  La  La45  1  0.17000517  0.68096462  0.62715402  1
  La  La46  1  0.33988799  0.18168624  0.61959365  1
  La  La47  1  0.33036611  0.15488532  0.87465779  1
  La  La48  1  0.67063719  0.17817427  0.12453781  1
  La  La49  1  0.83447687  0.31396326  0.86879739  1
  La  La50  1  0.17096212  0.64860485  0.87130329  1
  La  La51  1  0.82691525  0.68456970  0.61903892  1
  La  La52  1  0.66986018  0.51504652  0.62312013  1
  La  La53  1  0.32957182  0.48522061  0.37942261  1
  La  La54  1  -0.00318041  0.48654145  0.87628568  1
  La  La55  1  0.50739720  0.65119517  0.37743771  1
  La  La56  1  -0.00410063  0.81797626  0.87663325  1
  La  La57  1  0.16979981  0.98169223  0.87798451  1
  La  La58  1  1.00684494  0.51170938  0.13341317  1
  La  La59  1  0.49112574  0.01661132  0.12416138  1
  La  La60  1  0.16960714  0.31806761  0.87652419  1
  La  La61  1  0.83432125  0.65633084  0.87983267  1
  La  La62  1  0.32969805  0.81248943  0.87058350  1
  La  La63  1  0.67147291  0.17639356  0.62435525  1
  La  La64  1  0.65891381  0.81569503  0.87441592  1
  La  La65  1  0.50801547  0.98298058  0.37791483  1
  La  La66  1  0.49891181  0.31979959  0.87589075  1
  La  La67  1  0.15864119  0.01621638  0.62966936  1
  La  La68  1  -0.00451195  0.14995137  0.87865123  1
  La  La69  1  0.66869649  0.51446191  0.12545643  1
  La  La70  1  0.65898728  0.15313343  0.87483882  1
  La  La71  1  1.00032748  0.17835753  0.62371262  1
  In  In72  1  0.16946004  0.17064114  0.50132558  1
  In  In73  1  0.83181183  0.49647572  -0.00071470  1
  In  In74  1  0.00111333  0.66805018  0.50478862  1
  In  In75  1  0.16776502  0.16838190  0.25238877  1
  In  In76  1  0.82986806  0.16812233  0.25285541  1
  In  In77  1  -0.00108109  -0.00164788  0.24864337  1
  In  In78  1  0.83236890  0.50007949  0.50099996  1
  In  In79  1  0.66383290  0.66704190  0.00112066  1
  In  In80  1  -0.00105839  0.33316357  0.24954593  1
  In  In81  1  -0.00013868  0.66493374  0.75082116  1
  In  In82  1  0.17000098  0.83754450  0.50186977  1
  In  In83  1  0.66405339  -0.00156143  0.00377566  1
  In  In84  1  0.00462394  0.66991126  0.25159523  1
  In  In85  1  -0.00191933  0.33311891  -0.00456012  1
  In  In86  1  0.83075785  0.83548784  -0.00021684  1
  In  In87  1  0.66343768  0.33359347  -0.00094368  1
  In  In88  1  0.50102384  0.16512242  0.25238979  1
  In  In89  1  -0.00093047  -0.00254974  0.75032363  1
  In  In90  1  0.33324431  -0.00019128  0.49847628  1
  In  In91  1  0.50106175  0.83181754  0.24955862  1
  In  In92  1  -0.00091673  -0.00438476  -0.00234991  1
  In  In93  1  0.83168886  0.49967991  0.75195390  1
  In  In94  1  0.00247603  0.33174942  0.75044324  1
  In  In95  1  0.66641064  -0.00165695  0.74914939  1
  In  In96  1  0.33512462  -0.00433061  -0.00282139  1
  In  In97  1  0.49908160  0.49638987  0.00310768  1
  In  In98  1  0.17054609  0.50132856  0.25243823  1
  In  In99  1  0.66472634  0.66696340  0.25110845  1
  In  In100  1  0.33135853  0.66486027  0.00083120  1
  In  In101  1  0.49845674  0.16686661  0.74574058  1
  In  In102  1  0.33072112  0.33340213  0.74923709  1
  In  In103  1  0.16435898  0.16418927  -0.00181463  1
  In  In104  1  0.83329198  0.49855603  0.24749266  1
  In  In105  1  0.83369202  0.84061420  0.49942936  1
  In  In106  1  0.66703389  0.66703834  0.74809851  1
  In  In107  1  0.32941455  -0.00042564  0.74730408  1
  Ir  Ir108  1  0.00115936  0.00746162  0.50557554  1
  Ir  Ir109  1  0.33973554  0.66481342  0.25417368  1
  Ir  Ir110  1  0.33335810  0.33112409  -0.00097224  1
  Ir  Ir111  1  0.66212486  -0.00064549  0.25051636  1
  Ir  Ir112  1  0.33382398  0.66531655  0.74990961  1
  Ir  Ir113  1  0.49797675  0.49787969  0.25506690  1
  Ir  Ir114  1  0.16795434  0.83181108  0.75422519  1
  Ir  Ir115  1  0.34087500  -0.00016794  0.25008764  1
  Ir  Ir116  1  0.17506866  0.83291244  0.24884493  1
  Ir  Ir117  1  0.82737308  0.16629274  -0.00494699  1
  Ir  Ir118  1  0.49611534  0.83075825  0.75300596  1
  Ir  Ir119  1  0.66173613  0.33093680  0.50360123  1
  Ir  Ir120  1  0.00746637  0.66605119  -0.00754112  1
  Ir  Ir121  1  0.49963552  0.16866114  0.50031183  1
  Ir  Ir122  1  0.33785467  0.33384516  0.49810618  1
  Ir  Ir123  1  0.17430227  0.49895148  0.50629022  1
  Ir  Ir124  1  0.49913239  0.49883398  0.49881697  1
  Ir  Ir125  1  0.49827889  0.82996835  -0.00617251  1
  Ir  Ir126  1  0.33874014  0.33532928  0.25452873  1
  Ir  Ir127  1  0.83031860  0.83226158  0.75332825  1
  Ir  Ir128  1  0.50166995  0.49774295  0.74764332  1
  Ir  Ir129  1  0.16584851  0.16693244  0.74779661  1
  Ir  Ir130  1  0.83304854  0.17034731  0.75133892  1
  Ir  Ir131  1  0.66204326  0.66534396  0.50101956  1
  Ir  Ir132  1  0.16207988  0.50195784  -0.00650168  1
  Ir  Ir133  1  0.16841939  0.50174199  0.74778188  1
  Ir  Ir134  1  0.33904167  0.66360307  0.49834061  1
  Ir  Ir135  1  0.66297437  0.00577352  0.49649144  1
  Ir  Ir136  1  0.66633666  0.33212003  0.74882535  1
  Ir  Ir137  1  0.83276563  0.83672689  0.24910408  1
  Ir  Ir138  1  0.16640699  0.83037212  -0.00561771  1
  Ir  Ir139  1  0.49775983  0.83339369  0.49962126  1
  Ir  Ir140  1  0.65927943  0.33259546  0.25271827  1
  Ir  Ir141  1  0.00173917  0.33030872  0.50744095  1
  Ir  Ir142  1  0.83637985  0.17018000  0.50666388  1
  Ir  Ir143  1  0.49823670  0.16856504  -0.00098387  1
  O  O144  1  0.31176984  0.33290951  0.13016264  1
  O  O145  1  0.30317540  0.32135432  0.61882488  1
  O  O146  1  0.32030990  0.66495898  0.13271305  1
  O  O147  1  0.30637025  0.66546604  0.62415412  1
  O  O148  1  0.31917520  0.99615822  0.12882631  1
  O  O149  1  0.29339080  0.99397185  0.62410375  1
  O  O150  1  0.64195440  0.31426059  0.13159366  1
  O  O151  1  0.64348014  0.31277965  0.62624914  1
  O  O152  1  0.62626650  0.65928413  0.12638546  1
  O  O153  1  0.64287619  0.66309994  0.61994820  1
  O  O154  1  0.62824977  0.99854520  0.13148295  1
  O  O155  1  0.64961762  1.00902739  0.61771948  1
  O  O156  1  0.98087932  0.32783489  0.11936585  1
  O  O157  1  0.96972884  0.31875504  0.62649952  1
  O  O158  1  0.99175098  0.65475881  0.11224249  1
  O  O159  1  0.96450211  0.66847240  0.63071235  1
  O  O160  1  0.96859231  0.99368249  0.12115995  1
  O  O161  1  0.98193973  1.00212053  0.62476357  1
  O  O162  1  0.18425235  0.16234263  0.12447251  1
  O  O163  1  0.20342511  0.15464899  0.63022959  1
  O  O164  1  0.17917727  0.50032838  0.11379014  1
  O  O165  1  0.19731364  0.48785029  0.62834251  1
  O  O166  1  0.19270249  0.83117795  0.11699724  1
  O  O167  1  0.19092167  0.82362463  0.63518897  1
  O  O168  1  0.53093389  0.15999573  0.12108164  1
  O  O169  1  0.53367540  0.16572009  0.61763908  1
  O  O170  1  0.52997686  0.49541261  0.13525318  1
  O  O171  1  0.53225430  0.49633771  0.62104361  1
  O  O172  1  0.51785857  0.81232685  0.11476761  1
  O  O173  1  0.51999038  0.83060935  0.62794128  1
  O  O174  1  0.84673566  0.16075423  0.11612352  1
  O  O175  1  0.86440520  0.17241605  0.62938106  1
  O  O176  1  0.87278541  0.49263543  0.11937544  1
  O  O177  1  0.84862811  0.48084671  0.62682269  1
  O  O178  1  0.84943308  0.83434022  0.13042470  1
  O  O179  1  0.85039727  0.82484247  0.63359789  1
  O  O180  1  0.13252637  0.17191940  0.38013825  1
  O  O181  1  0.13117798  0.17921567  0.86241572  1
  O  O182  1  0.15356542  0.49958070  0.38753580  1
  O  O183  1  0.13519421  0.51108119  0.86852426  1
  O  O184  1  0.15689156  0.83134095  0.36808331  1
  O  O185  1  0.13410816  0.84025445  0.87368703  1
  O  O186  1  0.46876479  0.17583270  0.38137882  1
  O  O187  1  0.46744917  0.17735754  0.87885464  1
  O  O188  1  0.46597641  0.50910735  0.37650176  1
  O  O189  1  0.48251153  0.50741102  0.86795654  1
  O  O190  1  0.46983785  0.84333699  0.37924832  1
  O  O191  1  0.46538680  0.83798159  0.87346368  1
  O  O192  1  0.81802926  0.16699615  0.38687783  1
  O  O193  1  0.79584583  0.17313434  0.87199943  1
  O  O194  1  0.81570492  0.50095759  0.37635095  1
  O  O195  1  0.80680708  0.52203885  0.87484921  1
  O  O196  1  0.81729159  0.83721853  0.36855041  1
  O  O197  1  0.79683635  0.83547920  0.86963250  1
  O  O198  1  0.01589842  0.01559570  0.38496306  1
  O  O199  1  0.03223989  0.01123598  0.87051351  1
  O  O200  1  0.01810726  0.33441963  0.38942777  1
  O  O201  1  0.03658195  0.34965377  0.87051902  1
  O  O202  1  0.01741060  0.67242805  0.37845286  1
  O  O203  1  0.03499400  0.68060165  0.87413209  1
  O  O204  1  0.37192747  0.01176991  0.36908068  1
  O  O205  1  0.35507990  0.01830356  0.87201802  1
  O  O206  1  0.37033964  0.34591357  0.37654568  1
  O  O207  1  0.36126290  0.33037985  0.87902677  1
  O  O208  1  0.37057908  0.67228412  0.37676629  1
  O  O209  1  0.36060440  0.66958453  0.87041440  1
  O  O210  1  0.68478279  0.00200151  0.37295998  1
  O  O211  1  0.68102282  0.01460588  0.87665491  1
  O  O212  1  0.68322126  0.33642925  0.37905643  1
  O  O213  1  0.69776275  0.33710921  0.86724593  1
  O  O214  1  0.68286784  0.66177106  0.38285255  1
  O  O215  1  0.69649352  0.67490463  0.87215158  1
  O  O216  1  0.06296263  0.09828788  0.00377531  1
  O  O217  1  0.07242701  0.09644220  0.53241800  1
  O  O218  1  0.06215658  0.44686147  0.01105550  1
  O  O219  1  0.07983617  0.42097112  0.53206170  1
  O  O220  1  0.07019594  0.76489980  0.01038166  1
  O  O221  1  0.08817998  0.75349980  0.52581732  1
  O  O222  1  0.41181630  0.09548519  0.02001227  1
  O  O223  1  0.40691458  0.10226754  0.52437794  1
  O  O224  1  0.40024189  0.42328531  0.01585607  1
  O  O225  1  0.40523401  0.43065528  0.51512240  1
  O  O226  1  0.40345132  0.76615808  0.00527483  1
  O  O227  1  0.40443014  0.76295733  0.51182255  1
  O  O228  1  0.73283715  0.10229804  0.02218412  1
  O  O229  1  0.73491783  0.10377355  0.52216128  1
  O  O230  1  0.72874237  0.43068972  0.02768988  1
  O  O231  1  0.72949016  0.42169065  0.52977870  1
  O  O232  1  0.73280083  0.76643774  0.00804901  1
  O  O233  1  0.73828204  0.75085203  0.51866013  1
  O  O234  1  0.10067193  0.26772872  -0.00225636  1
  O  O235  1  0.09493761  0.26395413  0.53598894  1
  O  O236  1  0.10590906  0.60350625  0.00190871  1
  O  O237  1  0.10900745  0.59155021  0.53170178  1
  O  O238  1  0.10343301  0.92515491  0.00807519  1
  O  O239  1  0.09649571  0.93901807  0.52429918  1
  O  O240  1  0.42993139  0.26336083  0.01659727  1
  O  O241  1  0.42767783  0.25986438  0.52415749  1
  O  O242  1  0.43096538  0.59828502  0.01755287  1
  O  O243  1  0.43360236  0.59523450  0.51286892  1
  O  O244  1  0.43865028  0.92780040  0.02204468  1
  O  O245  1  0.43216655  0.92696433  0.51361693  1
  O  O246  1  0.75742667  0.25479708  0.01300828  1
  O  O247  1  0.76039824  0.26127243  0.53144233  1
  O  O248  1  0.75740271  0.59208897  0.02492190  1
  O  O249  1  0.75129681  0.59423722  0.52935260  1
  O  O250  1  0.76735634  0.93926610  0.02577599  1
  O  O251  1  0.75268491  0.93169092  0.51219788  1
  O  O252  1  0.25639162  0.07611700  0.27322361  1
  O  O253  1  0.22377892  0.07061576  0.77611099  1
  O  O254  1  0.25250489  0.41031123  0.27110103  1
  O  O255  1  0.23017190  0.40220404  0.76915363  1
  O  O256  1  0.25383812  0.74241900  0.27772984  1
  O  O257  1  0.23589789  0.73367766  0.77542538  1
  O  O258  1  0.56812651  0.06376804  0.27332531  1
  O  O259  1  0.57642608  0.07897468  0.76830355  1
  O  O260  1  0.56275274  0.40186177  0.27956060  1
  O  O261  1  0.56661984  0.39629733  0.77153412  1
  O  O262  1  0.56767757  0.73496231  0.27683451  1
  O  O263  1  0.56524469  0.73825169  0.77883176  1
  O  O264  1  0.90057457  0.07203597  0.25442658  1
  O  O265  1  0.90602992  0.08131722  0.77227347  1
  O  O266  1  0.90393443  0.40359051  0.26713490  1
  O  O267  1  0.89873882  0.39667737  0.77188924  1
  O  O268  1  0.90806575  0.75107672  0.26055316  1
  O  O269  1  0.89866024  0.73977717  0.78259355  1
  O  O270  1  0.27221284  0.24245350  0.27971160  1
  O  O271  1  0.25852618  0.23157527  0.77712143  1
  O  O272  1  0.27236552  0.57336356  0.27681217  1
  O  O273  1  0.26092309  0.57501203  0.77195299  1
  O  O274  1  0.27338897  0.90446480  0.27407157  1
  O  O275  1  0.25791719  0.89978838  0.78395660  1
  O  O276  1  0.58830231  0.24522581  0.27582526  1
  O  O277  1  0.59900352  0.24079342  0.77715005  1
  O  O278  1  0.58289170  0.56914005  0.27396352  1
  O  O279  1  0.59215946  0.56836340  0.75814092  1
  O  O280  1  0.59428071  0.90968278  0.27215426  1
  O  O281  1  0.59243949  0.89552811  0.77044618  1
  O  O282  1  0.92913067  0.23282641  0.27536601  1
  O  O283  1  0.92921518  0.23322517  0.77828973  1
  O  O284  1  0.92644924  0.57870139  0.25227337  1
  O  O285  1  0.93415125  0.56745383  0.77964244  1
  O  O286  1  0.92113229  0.90675666  0.26640205  1
  O  O287  1  0.92783235  0.89653800  0.77416631  1
  O  O288  1  0.27427578  0.23973356  0.47707421  1
  O  O289  1  0.26657574  0.23840764  0.97108034  1
  O  O290  1  0.27152892  0.56680286  0.47943065  1
  O  O291  1  0.25438333  0.57091230  0.97718137  1
  O  O292  1  0.26780579  0.90057909  0.47217123  1
  O  O293  1  0.26097683  0.89668215  0.96931537  1
  O  O294  1  0.58943354  0.24084197  0.47649246  1
  O  O295  1  0.59024769  0.23488991  0.97110155  1
  O  O296  1  0.58975645  0.57152498  0.48031297  1
  O  O297  1  0.58813835  0.57442115  0.97952635  1
  O  O298  1  0.58870805  0.91210332  0.47630908  1
  O  O299  1  0.59528334  0.89342242  0.97581827  1
  O  O300  1  0.93921759  0.23173540  0.48729141  1
  O  O301  1  0.91918518  0.23478519  0.96363887  1
  O  O302  1  0.92591596  0.57420448  0.49065245  1
  O  O303  1  0.93903684  0.57658980  0.96878465  1
  O  O304  1  0.92977026  0.91926603  0.48844811  1
  O  O305  1  0.93203549  0.89742038  0.96929348  1
  O  O306  1  0.24864298  0.08202850  0.47164621  1
  O  O307  1  0.23768943  0.06934397  0.96990306  1
  O  O308  1  0.24711186  0.40591147  0.48015326  1
  O  O309  1  0.23064772  0.39966326  0.97506313  1
  O  O310  1  0.25189790  0.73637295  0.48508397  1
  O  O311  1  0.23497533  0.73796775  0.96730226  1
  O  O312  1  0.56489777  0.07351373  0.47319242  1
  O  O313  1  0.56901732  0.08016569  0.98210769  1
  O  O314  1  0.56573717  0.40077100  0.47818796  1
  O  O315  1  0.56156882  0.39542487  0.97455371  1
  O  O316  1  0.56740008  0.73585262  0.47591119  1
  O  O317  1  0.56067289  0.73746228  0.96461136  1
  O  O318  1  0.91184239  0.08194039  0.48214388  1
  O  O319  1  0.89879788  0.07865075  0.97845544  1
  O  O320  1  0.90802119  0.39552385  0.49710406  1
  O  O321  1  0.90154094  0.40229438  0.95709929  1
  O  O322  1  0.90534002  0.74673694  0.49511591  1
  O  O323  1  0.91084912  0.73228290  0.97408613  1
  O  O324  1  0.09527256  0.26259821  0.23891484  1
  O  O325  1  0.10457952  0.26239960  0.71996136  1
  O  O326  1  0.09532761  0.59135605  0.23359956  1
  O  O327  1  0.10815030  0.59982157  0.72826407  1
  O  O328  1  0.09872542  0.91753113  0.23603187  1
  O  O329  1  0.10725271  0.93028656  0.73314400  1
  O  O330  1  0.42455468  0.26166587  0.24252603  1
  O  O331  1  0.42214965  0.25828513  0.72931662  1
  O  O332  1  0.43458875  0.59622821  0.22977607  1
  O  O333  1  0.43457013  0.59807155  0.73729984  1
  O  O334  1  0.43449441  0.93338604  0.22733950  1
  O  O335  1  0.42749950  0.92155907  0.73461891  1
  O  O336  1  0.74654199  0.25607696  0.23427992  1
  O  O337  1  0.76667325  0.26866099  0.72806441  1
  O  O338  1  0.74698594  0.58316673  0.22187482  1
  O  O339  1  0.76280304  0.59713038  0.71594036  1
  O  O340  1  0.76184966  0.93508009  0.22677538  1
  O  O341  1  0.76379800  0.92557246  0.73134704  1
  O  O342  1  0.07761059  0.08634659  0.24227330  1
  O  O343  1  0.07300207  0.10241031  0.72116583  1
  O  O344  1  0.07272507  0.43214915  0.23244448  1
  O  O345  1  0.07925549  0.43113559  0.72786033  1
  O  O346  1  0.08746038  0.76157885  0.23337741  1
  O  O347  1  0.07934470  0.76203929  0.73337335  1
  O  O348  1  0.40995737  0.08878175  0.22552544  1
  O  O349  1  0.39637572  0.10050923  0.72336985  1
  O  O350  1  0.40625260  0.43113894  0.23805660  1
  O  O351  1  0.41060377  0.42824150  0.73723913  1
  O  O352  1  0.40881815  0.75297257  0.23512221  1
  O  O353  1  0.39817676  0.76321835  0.74052484  1
  O  O354  1  0.72976322  0.09127853  0.22323147  1
  O  O355  1  0.73789422  0.10714234  0.72957778  1
  O  O356  1  0.72418388  0.42367860  0.22421556  1
  O  O357  1  0.72704677  0.42572757  0.72143813  1
  O  O358  1  0.74511345  0.76201830  0.23745271  1
  O  O359  1  0.74130541  0.76393018  0.72961731  1
