# generated using pymatgen
data_BaLaInIrO6
_symmetry_space_group_name_H-M   'P 1'
_cell_length_a   17.51085516
_cell_length_b   17.54259437
_cell_length_c   16.48987907
_cell_angle_alpha   90.02494304
_cell_angle_beta   90.02505188
_cell_angle_gamma   90.00359195
_symmetry_Int_Tables_number   1
_chemical_formula_structural   BaLaInIrO6
_chemical_formula_sum   'Ba36 La36 In36 Ir36 O216'
_cell_volume   5065.45620128
_cell_formula_units_Z   36
loop_
 _symmetry_equiv_pos_site_id
 _symmetry_equiv_pos_as_xyz
  1  'x, y, z'
loop_
 _atom_site_type_symbol
 _atom_site_label
 _atom_site_symmetry_multiplicity
 _atom_site_fract_x
 _atom_site_fract_y
 _atom_site_fract_z
 _atom_site_occupancy
  Ba  Ba0  1  0.66770434  0.49092296  0.37579099  1
  Ba  Ba1  1  0.16720188  0.32816398  0.87850360  1
  Ba  Ba2  1  0.33440827  0.84080758  0.62208501  1
  Ba  Ba3  1  0.16654895  0.00691185  0.62479769  1
  Ba  Ba4  1  0.32917634  0.50462376  0.62347670  1
  Ba  Ba5  1  0.99864080  0.50599538  0.12576319  1
  Ba  Ba6  1  0.33076487  0.16173831  0.37193649  1
  Ba  Ba7  1  0.99849062  0.17487125  0.62616194  1
  Ba  Ba8  1  1.00513036  0.50963595  0.62268983  1
  Ba  Ba9  1  0.50006791  0.34166669  0.12594556  1
  Ba  Ba10  1  0.83323114  0.65784521  0.87078483  1
  Ba  Ba11  1  0.50168759  0.32349486  0.87255655  1
  Ba  Ba12  1  0.33306442  0.84148867  0.12369036  1
  Ba  Ba13  1  0.16650435  0.66129512  0.37301119  1
  Ba  Ba14  1  -0.00088397  0.82157541  0.37905134  1
  Ba  Ba15  1  0.33594846  0.49089607  0.87172593  1
  Ba  Ba16  1  0.16739921  0.99438642  0.37403331  1
  Ba  Ba17  1  0.00370555  0.15994288  0.87865626  1
  Ba  Ba18  1  0.49848234  0.65948099  0.87390408  1
  Ba  Ba19  1  0.66932268  0.17504202  0.62523451  1
  Ba  Ba20  1  0.16545709  0.33010247  0.37413473  1
  Ba  Ba21  1  0.16814227  0.34115565  0.13053790  1
  Ba  Ba22  1  0.83189014  0.67805578  0.62733719  1
  Ba  Ba23  1  0.50223943  0.67344961  0.62544636  1
  Ba  Ba24  1  0.33163725  0.82610827  0.37364569  1
  Ba  Ba25  1  0.66214333  0.81627151  0.87997559  1
  Ba  Ba26  1  0.99748086  0.84601929  0.62534290  1
  Ba  Ba27  1  0.33206383  0.15787556  0.87738943  1
  Ba  Ba28  1  0.99438477  0.17576040  0.12606087  1
  Ba  Ba29  1  0.82998647  0.98801799  0.87960419  1
  Ba  Ba30  1  0.33424491  0.82451887  0.87482120  1
  Ba  Ba31  1  0.16824314  0.67017705  0.12633096  1
  Ba  Ba32  1  0.83110620  0.00688804  0.63122347  1
  Ba  Ba33  1  0.49800229  0.67524217  0.12447259  1
  Ba  Ba34  1  0.66840012  0.17966431  0.12098262  1
  Ba  Ba35  1  0.50364646  0.98064696  0.87789546  1
  La  La36  1  0.49376476  0.01116977  0.62626277  1
  La  La37  1  0.67292364  0.51556020  0.62733063  1
  La  La38  1  0.65910978  0.81574409  0.37302524  1
  La  La39  1  0.15892013  0.68746478  0.62139104  1
  La  La40  1  0.82960148  0.68198872  0.12645105  1
  La  La41  1  0.65831526  0.49340032  0.87629413  1
  La  La42  1  0.00302565  0.48593375  0.87393266  1
  La  La43  1  0.83037174  0.35300549  0.62541511  1
  La  La44  1  0.49331108  0.01459743  0.11696550  1
  La  La45  1  0.84100439  0.32222251  0.87439927  1
  La  La46  1  0.50398923  0.64909632  0.37427085  1
  La  La47  1  0.17052409  0.99119600  0.87198333  1
  La  La48  1  0.49710404  0.35027301  0.62687663  1
  La  La49  1  0.34249952  0.18006042  0.62679270  1
  La  La50  1  -0.00336669  0.48098738  0.37065905  1
  La  La51  1  -0.00199444  0.82289881  0.87103854  1
  La  La52  1  1.00654843  0.84408055  0.12303693  1
  La  La53  1  0.83770539  0.98802240  0.37732868  1
  La  La54  1  0.33643581  0.51257218  0.12115017  1
  La  La55  1  0.84368372  0.64605784  0.37862575  1
  La  La56  1  0.00147117  0.15927322  0.37924838  1
  La  La57  1  0.66823275  0.84863953  0.12601268  1
  La  La58  1  0.33058537  0.49624830  0.37105233  1
  La  La59  1  0.82886767  0.01735109  0.12561144  1
  La  La60  1  0.16456425  0.01082024  0.12725494  1
  La  La61  1  0.66187227  0.14801048  0.37396833  1
  La  La62  1  0.17362360  0.64951995  0.87342959  1
  La  La63  1  0.18227640  0.32888847  0.62692820  1
  La  La64  1  0.67252051  0.51768192  0.12678810  1
  La  La65  1  0.83553247  0.31766807  0.37420494  1
  La  La66  1  0.82470652  0.35344878  0.12398161  1
  La  La67  1  0.33945545  0.18031543  0.12411008  1
  La  La68  1  0.67862018  0.84680811  0.63577053  1
  La  La69  1  0.51019536  0.31853025  0.37556856  1
  La  La70  1  0.65507526  0.14554013  0.87077184  1
  La  La71  1  0.50227240  0.98191127  0.37229792  1
  In  In72  1  0.17014839  0.16757814  0.75119888  1
  In  In73  1  0.33704330  -0.00050279  0.75205471  1
  In  In74  1  0.50346870  0.16512170  0.24903262  1
  In  In75  1  -0.00193512  0.00339868  0.49880562  1
  In  In76  1  -0.00249388  0.33201733  0.00427667  1
  In  In77  1  0.33145372  0.66557603  0.74718106  1
  In  In78  1  0.66752647  0.33394020  0.50163018  1
  In  In79  1  0.33523759  0.00233177  0.24858611  1
  In  In80  1  -0.00425666  0.00060699  0.24876598  1
  In  In81  1  0.66896741  0.33288773  0.75003859  1
  In  In82  1  0.16629457  0.49993265  0.00390874  1
  In  In83  1  0.83064723  0.83275121  0.25118362  1
  In  In84  1  0.16584999  0.49897104  0.49640836  1
  In  In85  1  0.66509889  -0.00362337  0.00351782  1
  In  In86  1  0.82941867  0.16860735  -0.00273301  1
  In  In87  1  -0.00072568  0.33440727  0.74480595  1
  In  In88  1  0.16555914  0.83426492  0.75245438  1
  In  In89  1  0.83045673  0.50402577  -0.00556472  1
  In  In90  1  0.50138299  0.49890615  0.00170956  1
  In  In91  1  0.66894598  0.66604558  0.49826331  1
  In  In92  1  -0.00111601  -0.00152527  0.00165115  1
  In  In93  1  -0.00110036  0.00432223  0.75218744  1
  In  In94  1  0.16679610  0.83309250  0.24875629  1
  In  In95  1  0.82880497  0.16858697  0.50167131  1
  In  In96  1  0.16963306  0.16957702  0.49942577  1
  In  In97  1  0.82843462  0.83184621  0.49950723  1
  In  In98  1  0.33441956  0.66559220  0.49950047  1
  In  In99  1  0.16471895  0.49721090  0.74593667  1
  In  In100  1  0.16400846  0.83273919  -0.00026958  1
  In  In101  1  0.33772811  0.66825163  0.24997998  1
  In  In102  1  0.50342674  0.83176103  0.50043145  1
  In  In103  1  0.66391724  -0.00177470  0.49950919  1
  In  In104  1  0.66822628  0.33566680  -0.00248618  1
  In  In105  1  0.34190249  0.33476327  0.49421313  1
  In  In106  1  0.33703906  0.33830683  0.24963269  1
  In  In107  1  -0.00164463  0.66542090  -0.00068148  1
  Ir  Ir108  1  0.66694585  -0.00020603  0.24976409  1
  Ir  Ir109  1  0.33412775  0.66484992  -0.00201432  1
  Ir  Ir110  1  0.50364352  0.16447067  0.74779648  1
  Ir  Ir111  1  0.83022034  0.50263477  0.74764265  1
  Ir  Ir112  1  -0.00702781  0.32910132  0.25450938  1
  Ir  Ir113  1  0.34018332  0.33064151  0.75134904  1
  Ir  Ir114  1  0.66226384  -0.00277562  0.75127765  1
  Ir  Ir115  1  0.66739471  0.66356103  0.75266978  1
  Ir  Ir116  1  0.50133865  0.16391744  0.50012852  1
  Ir  Ir117  1  0.82695401  0.16935489  0.75221949  1
  Ir  Ir118  1  0.49910236  0.16546046  -0.00511569  1
  Ir  Ir119  1  -0.00666380  0.66109450  0.25311440  1
  Ir  Ir120  1  0.17136980  0.16598892  0.00591408  1
  Ir  Ir121  1  0.33794497  0.00357678  0.49989173  1
  Ir  Ir122  1  0.66859720  0.66650440  0.24841618  1
  Ir  Ir123  1  0.50267053  0.49744694  0.49901193  1
  Ir  Ir124  1  0.67039086  0.33620719  0.25297774  1
  Ir  Ir125  1  0.16384704  0.50050982  0.25183408  1
  Ir  Ir126  1  0.83462176  0.82827589  0.00373463  1
  Ir  Ir127  1  0.82445006  0.16932938  0.25300281  1
  Ir  Ir128  1  -0.00434637  0.33497074  0.49717711  1
  Ir  Ir129  1  0.50149964  0.82838031  0.00285997  1
  Ir  Ir130  1  0.16664933  0.83470677  0.49863695  1
  Ir  Ir131  1  0.50775805  0.83444910  0.24656893  1
  Ir  Ir132  1  0.33189792  0.00134968  0.00053792  1
  Ir  Ir133  1  0.83606726  0.49931861  0.50046493  1
  Ir  Ir134  1  0.83231948  0.83093129  0.75856599  1
  Ir  Ir135  1  0.00079207  0.66436350  0.49908645  1
  Ir  Ir136  1  0.33415860  0.33044012  -0.00024538  1
  Ir  Ir137  1  0.50427703  0.49889541  0.74681855  1
  Ir  Ir138  1  0.16443214  0.17028571  0.24579649  1
  Ir  Ir139  1  0.50326375  0.49958042  0.25168510  1
  Ir  Ir140  1  0.50866485  0.83110057  0.74843698  1
  Ir  Ir141  1  0.00172909  0.66816326  0.74592245  1
  Ir  Ir142  1  0.83189825  0.49906086  0.25363202  1
  Ir  Ir143  1  0.66773919  0.66826110  0.00487852  1
  O  O144  1  0.32028869  0.32336013  0.11988210  1
  O  O145  1  0.32184088  0.32602302  0.62908751  1
  O  O146  1  0.32139692  0.65544879  0.12003394  1
  O  O147  1  0.29830458  0.66349019  0.62300147  1
  O  O148  1  0.30468734  1.00036286  0.11820025  1
  O  O149  1  0.32247322  1.00169344  0.61909322  1
  O  O150  1  0.65029471  0.33412175  0.13443079  1
  O  O151  1  0.63250999  0.32905948  0.62527566  1
  O  O152  1  0.64438013  0.65584327  0.12676150  1
  O  O153  1  0.65208928  0.65535055  0.63045900  1
  O  O154  1  0.63094750  0.99381289  0.13162887  1
  O  O155  1  0.63317587  0.99201607  0.63040145  1
  O  O156  1  0.96201314  0.33317830  0.13562206  1
  O  O157  1  0.96576631  0.33711912  0.61624030  1
  O  O158  1  0.96494469  0.65844581  0.13367942  1
  O  O159  1  0.97846970  0.66652613  0.62072405  1
  O  O160  1  0.95904147  0.98405207  0.12673658  1
  O  O161  1  0.97905546  1.00408737  0.62478965  1
  O  O162  1  0.20152196  0.15816937  0.12628060  1
  O  O163  1  0.20414990  0.17194418  0.62446564  1
  O  O164  1  0.19698236  0.49955072  0.13228363  1
  O  O165  1  0.17533350  0.46745249  0.62066045  1
  O  O166  1  0.18287009  0.82175227  0.12289983  1
  O  O167  1  0.18374767  0.82716421  0.61934076  1
  O  O168  1  0.51950458  0.16000301  0.11613759  1
  O  O169  1  0.52409130  0.14780478  0.62366671  1
  O  O170  1  0.53539390  0.49782424  0.13313112  1
  O  O171  1  0.53633333  0.48971658  0.62070871  1
  O  O172  1  0.53399246  0.82891802  0.12556925  1
  O  O173  1  0.53940360  0.83163311  0.62875655  1
  O  O174  1  0.84214561  0.15657018  0.13380419  1
  O  O175  1  0.84618535  0.16036163  0.63273136  1
  O  O176  1  0.84891598  0.49247073  0.13359230  1
  O  O177  1  0.85865649  0.49229394  0.62397475  1
  O  O178  1  0.86565459  0.82216388  0.12369953  1
  O  O179  1  0.84603764  0.83325159  0.63775898  1
  O  O180  1  0.13774955  0.17440174  0.36610800  1
  O  O181  1  0.15504257  0.17232658  0.88585325  1
  O  O182  1  0.13254399  0.50252418  0.36869386  1
  O  O183  1  0.14074208  0.50937806  0.87477392  1
  O  O184  1  0.14867913  0.83560313  0.37896419  1
  O  O185  1  0.13295364  0.85138902  0.87815799  1
  O  O186  1  0.48070896  0.17836771  0.38030868  1
  O  O187  1  0.48019410  0.16705114  0.87021340  1
  O  O188  1  0.47083355  0.50731921  0.37634250  1
  O  O189  1  0.48883784  0.50325952  0.86828599  1
  O  O190  1  0.48450048  0.84463917  0.36468411  1
  O  O191  1  0.48291795  0.82777819  0.87636329  1
  O  O192  1  0.79556744  0.18360644  0.37001274  1
  O  O193  1  0.79264435  0.18455089  0.86952985  1
  O  O194  1  0.81392999  0.50964118  0.37716955  1
  O  O195  1  0.79434778  0.50520016  0.86493713  1
  O  O196  1  0.79154056  0.84396414  0.37278065  1
  O  O197  1  0.81014664  0.82865884  0.88183495  1
  O  O198  1  0.01700603  0.02261129  0.37047106  1
  O  O199  1  0.03217513  0.00154423  0.87901477  1
  O  O200  1  0.01705436  0.32900241  0.37547894  1
  O  O201  1  0.00872821  0.34256334  0.87380500  1
  O  O202  1  0.01750251  0.66242488  0.37669119  1
  O  O203  1  0.03080423  0.67785554  0.86411016  1
  O  O204  1  0.36757291  0.00660534  0.37901962  1
  O  O205  1  0.35733567  0.00236207  0.88314635  1
  O  O206  1  0.37688354  0.35105549  0.37168155  1
  O  O207  1  0.35392952  0.33265962  0.87674683  1
  O  O208  1  0.36915047  0.66011743  0.37341235  1
  O  O209  1  0.34813740  0.66370829  0.87884601  1
  O  O210  1  0.69930892  0.00638539  0.36684434  1
  O  O211  1  0.67826201  0.00252810  0.87334027  1
  O  O212  1  0.69785055  0.33853148  0.37229411  1
  O  O213  1  0.70353378  0.35457208  0.87205263  1
  O  O214  1  0.70343866  0.67516457  0.36695883  1
  O  O215  1  0.68442340  0.65813087  0.88035335  1
  O  O216  1  0.08508247  0.09401855  0.02739132  1
  O  O217  1  0.07098137  0.10317588  0.50645333  1
  O  O218  1  0.07008171  0.42704290  0.01057921  1
  O  O219  1  0.05792464  0.43048867  0.49623143  1
  O  O220  1  0.05379553  0.77231463  0.01190164  1
  O  O221  1  0.07425977  0.75974472  0.52194450  1
  O  O222  1  0.40411892  0.09459855  0.02725371  1
  O  O223  1  0.40457553  0.09897706  0.52570262  1
  O  O224  1  0.40058699  0.42546324  0.02159541  1
  O  O225  1  0.42018098  0.42400171  0.52729106  1
  O  O226  1  0.40559587  0.75965303  0.01397244  1
  O  O227  1  0.41087713  0.75915403  0.51480911  1
  O  O228  1  0.73932827  0.08868993  0.01471466  1
  O  O229  1  0.72655050  0.10150389  0.50138661  1
  O  O230  1  0.73194831  0.43993568  0.02799435  1
  O  O231  1  0.74050726  0.43504758  0.52797221  1
  O  O232  1  0.73513288  0.76492216  0.03223923  1
  O  O233  1  0.72829719  0.76699285  0.52468242  1
  O  O234  1  0.09936863  0.25449843  0.02164622  1
  O  O235  1  0.09269522  0.27564437  0.52400027  1
  O  O236  1  0.09908435  0.60146194  0.00770056  1
  O  O237  1  0.09825988  0.60212559  0.52276712  1
  O  O238  1  0.09342166  0.93123610  0.03864719  1
  O  O239  1  0.09428710  0.92225966  0.51045267  1
  O  O240  1  0.42573261  0.25450999  0.01869338  1
  O  O241  1  0.43967960  0.25889835  0.52648106  1
  O  O242  1  0.42161669  0.58866884  0.01810016  1
  O  O243  1  0.43364575  0.58570612  0.51671875  1
  O  O244  1  0.43081588  0.93101926  0.02440238  1
  O  O245  1  0.43573290  0.93860691  0.51630658  1
  O  O246  1  0.76659945  0.27184477  0.02441583  1
  O  O247  1  0.77258441  0.27514157  0.51932895  1
  O  O248  1  0.76242268  0.60430455  0.02865818  1
  O  O249  1  0.76670055  0.59135612  0.51424330  1
  O  O250  1  0.76725157  0.92262760  0.02996228  1
  O  O251  1  0.75328035  0.92509299  0.52784549  1
  O  O252  1  0.23919998  0.08547133  0.26348232  1
  O  O253  1  0.23853100  0.06863098  0.77464135  1
  O  O254  1  0.24298839  0.41758264  0.27258073  1
  O  O255  1  0.24618887  0.39735037  0.75921918  1
  O  O256  1  0.24439694  0.74046365  0.26469904  1
  O  O257  1  0.23102336  0.73429654  0.77298963  1
  O  O258  1  0.57344836  0.06682623  0.28025662  1
  O  O259  1  0.57035361  0.06953433  0.77128995  1
  O  O260  1  0.57033763  0.39995417  0.27638138  1
  O  O261  1  0.57685526  0.41280311  0.76689360  1
  O  O262  1  0.57438478  0.73639442  0.27630884  1
  O  O263  1  0.57635481  0.73474305  0.76713155  1
  O  O264  1  0.88460500  0.07160742  0.26868172  1
  O  O265  1  0.89505062  0.08026994  0.77604721  1
  O  O266  1  0.89924860  0.40246931  0.28055963  1
  O  O267  1  0.89203144  0.40809428  0.76918081  1
  O  O268  1  0.89645317  0.72475358  0.27236410  1
  O  O269  1  0.91261299  0.74514503  0.77687533  1
  O  O270  1  0.25155285  0.24630609  0.26034924  1
  O  O271  1  0.27374248  0.23955563  0.75797292  1
  O  O272  1  0.25911252  0.56678079  0.26773385  1
  O  O273  1  0.25439873  0.57292746  0.76900402  1
  O  O274  1  0.25894707  0.91428128  0.26258894  1
  O  O275  1  0.26040498  0.90919714  0.76640317  1
  O  O276  1  0.60212979  0.24187240  0.27681542  1
  O  O277  1  0.59843569  0.23100787  0.77426583  1
  O  O278  1  0.59298194  0.57691158  0.27672821  1
  O  O279  1  0.60378798  0.56315443  0.76497224  1
  O  O280  1  0.60770117  0.89824259  0.26783778  1
  O  O281  1  0.60190872  0.89823377  0.76510865  1
  O  O282  1  0.92323242  0.23269426  0.27967969  1
  O  O283  1  0.91678940  0.24041412  0.76974731  1
  O  O284  1  0.92670720  0.56583224  0.27993971  1
  O  O285  1  0.92920529  0.56952158  0.77233774  1
  O  O286  1  0.91633547  0.91101824  0.28148475  1
  O  O287  1  0.92202025  0.90236480  0.77820201  1
  O  O288  1  0.26307158  0.24535905  0.48602144  1
  O  O289  1  0.26835458  0.23275143  0.99489366  1
  O  O290  1  0.26366064  0.57003946  0.47001545  1
  O  O291  1  0.26515560  0.57414278  0.98642936  1
  O  O292  1  0.26469901  0.90949381  0.48173093  1
  O  O293  1  0.25845792  0.91558464  0.97739238  1
  O  O294  1  0.59585019  0.23123383  0.47291801  1
  O  O295  1  0.59511156  0.23196727  0.97252976  1
  O  O296  1  0.59022439  0.57164062  0.48121244  1
  O  O297  1  0.60546908  0.57014111  0.98875060  1
  O  O298  1  0.59383200  0.90550406  0.46230594  1
  O  O299  1  0.59420928  0.89720313  0.99530986  1
  O  O300  1  0.93165726  0.24054245  0.47628600  1
  O  O301  1  0.92233315  0.24158367  0.97995614  1
  O  O302  1  0.93282881  0.56767688  0.47222612  1
  O  O303  1  0.93217205  0.56586258  0.97165641  1
  O  O304  1  0.91643157  0.91226825  0.47716804  1
  O  O305  1  0.93045572  0.88905191  0.97910095  1
  O  O306  1  0.24848769  0.07221742  0.48191790  1
  O  O307  1  0.23550303  0.06637563  0.98094193  1
  O  O308  1  0.25265289  0.41420312  0.47445798  1
  O  O309  1  0.24647728  0.40310525  0.98862641  1
  O  O310  1  0.23722544  0.74587007  0.48615593  1
  O  O311  1  0.23882063  0.73146968  0.97570215  1
  O  O312  1  0.56179125  0.06801438  0.47320578  1
  O  O313  1  0.56871538  0.07422832  0.98444100  1
  O  O314  1  0.56728519  0.40200833  0.47491782  1
  O  O315  1  0.57523638  0.40814880  0.97855520  1
  O  O316  1  0.57288076  0.73438994  0.46363850  1
  O  O317  1  0.57004176  0.73360903  0.98672296  1
  O  O318  1  0.90002686  0.07890352  0.46654449  1
  O  O319  1  0.90294703  0.07110901  0.99392343  1
  O  O320  1  0.89843903  0.40066394  0.47312224  1
  O  O321  1  0.89285156  0.40131746  0.98315461  1
  O  O322  1  0.90190839  0.73011981  0.47794897  1
  O  O323  1  0.89243697  0.73165790  0.99220388  1
  O  O324  1  0.08513393  0.25818289  0.22856948  1
  O  O325  1  0.10275660  0.27079850  0.72575656  1
  O  O326  1  0.08734707  0.59072959  0.23190739  1
  O  O327  1  0.09488151  0.60485733  0.72349608  1
  O  O328  1  0.08906639  0.92552561  0.22173967  1
  O  O329  1  0.09055559  0.92613852  0.73468323  1
  O  O330  1  0.42539082  0.25558465  0.23492350  1
  O  O331  1  0.43737098  0.25971413  0.72166416  1
  O  O332  1  0.43041489  0.58579415  0.23158586  1
  O  O333  1  0.42898636  0.58407904  0.73063210  1
  O  O334  1  0.44682616  0.93307062  0.22809146  1
  O  O335  1  0.44151173  0.92610793  0.72849977  1
  O  O336  1  0.77060676  0.27504906  0.23245925  1
  O  O337  1  0.76888120  0.26703385  0.72431465  1
  O  O338  1  0.76432209  0.59567206  0.22444362  1
  O  O339  1  0.75782421  0.59147303  0.72644945  1
  O  O340  1  0.75699964  0.93304613  0.21569437  1
  O  O341  1  0.75416685  0.92199449  0.73394002  1
  O  O342  1  0.08096657  0.09286443  0.22317173  1
  O  O343  1  0.07275870  0.10015026  0.73790185  1
  O  O344  1  0.06386442  0.42629905  0.23927472  1
  O  O345  1  0.05939947  0.43853619  0.74942847  1
  O  O346  1  0.05628994  0.75634049  0.23118813  1
  O  O347  1  0.06890499  0.75684361  0.72646454  1
  O  O348  1  0.40973676  0.09187290  0.21728861  1
  O  O349  1  0.40961892  0.09747742  0.72279884  1
  O  O350  1  0.40781992  0.43794862  0.22269144  1
  O  O351  1  0.41570463  0.42268567  0.72636681  1
  O  O352  1  0.41682261  0.76649066  0.23234801  1
  O  O353  1  0.41678893  0.76172988  0.73481871  1
  O  O354  1  0.72678812  0.10197985  0.23646822  1
  O  O355  1  0.72830134  0.09770540  0.74397664  1
  O  O356  1  0.73626422  0.43197143  0.22644976  1
  O  O357  1  0.74065038  0.43408090  0.71654766  1
  O  O358  1  0.73371225  0.75944054  0.21883451  1
  O  O359  1  0.73535012  0.76030974  0.73434719  1
