# generated using pymatgen
data_BaLaInIrO6
_symmetry_space_group_name_H-M   'P 1'
_cell_length_a   17.50784728
_cell_length_b   17.53687855
_cell_length_c   16.48467792
_cell_angle_alpha   90.01798934
_cell_angle_beta   90.01663191
_cell_angle_gamma   89.96452218
_symmetry_Int_Tables_number   1
_chemical_formula_structural   BaLaInIrO6
_chemical_formula_sum   'Ba36 La36 In36 Ir36 O216'
_cell_volume   5061.33854266
_cell_formula_units_Z   36
loop_
 _symmetry_equiv_pos_site_id
 _symmetry_equiv_pos_as_xyz
  1  'x, y, z'
loop_
 _atom_site_type_symbol
 _atom_site_label
 _atom_site_symmetry_multiplicity
 _atom_site_fract_x
 _atom_site_fract_y
 _atom_site_fract_z
 _atom_site_occupancy
  Ba  Ba0  1  0.66834209  0.16366233  0.37303529  1
  Ba  Ba1  1  0.82913998  0.66930011  0.62630793  1
  Ba  Ba2  1  0.33148871  0.82250746  0.37810235  1
  Ba  Ba3  1  0.33656969  0.50945997  0.12734985  1
  Ba  Ba4  1  0.00138240  0.15857124  0.87409910  1
  Ba  Ba5  1  0.66795302  0.84176709  0.12579388  1
  Ba  Ba6  1  0.66774170  0.49782289  0.37362733  1
  Ba  Ba7  1  0.83407867  0.32920301  0.87499080  1
  Ba  Ba8  1  0.66918211  0.17386227  0.12815865  1
  Ba  Ba9  1  1.00656705  0.17612499  0.12450664  1
  Ba  Ba10  1  0.17135588  0.32079493  0.37827863  1
  Ba  Ba11  1  0.00120676  0.49577931  0.87948148  1
  Ba  Ba12  1  0.66401526  0.51116918  0.12735294  1
  Ba  Ba13  1  0.66063792  0.82716925  0.37048673  1
  Ba  Ba14  1  0.83559898  0.66161541  0.87874693  1
  Ba  Ba15  1  0.32914745  0.82583119  0.87294992  1
  Ba  Ba16  1  0.33395674  0.51034468  0.62234673  1
  Ba  Ba17  1  0.49841455  0.99111459  0.37583811  1
  Ba  Ba18  1  0.16666545  0.98418652  0.87849463  1
  Ba  Ba19  1  0.83516544  0.34145141  0.12551712  1
  Ba  Ba20  1  0.66267272  0.17788912  0.62079606  1
  Ba  Ba21  1  0.49906154  0.33054912  0.37204618  1
  Ba  Ba22  1  0.83372021  0.67287550  0.12572074  1
  Ba  Ba23  1  0.49969307  0.32853932  0.87665507  1
  Ba  Ba24  1  0.50067346  0.67671437  0.61991920  1
  Ba  Ba25  1  1.00037468  0.51551737  0.12417036  1
  Ba  Ba26  1  0.49896018  0.66308960  0.37494999  1
  Ba  Ba27  1  0.83365051  0.00861422  0.12542712  1
  Ba  Ba28  1  0.16283076  0.67790505  0.12262261  1
  Ba  Ba29  1  1.00256083  0.51110784  0.62798770  1
  Ba  Ba30  1  0.83685871  0.34128164  0.62819060  1
  Ba  Ba31  1  -0.00156454  0.82734510  0.87246927  1
  Ba  Ba32  1  0.49574111  0.67973796  0.12919243  1
  Ba  Ba33  1  0.33740570  0.17288808  0.12532313  1
  Ba  Ba34  1  0.16504734  0.00387372  0.62718630  1
  Ba  Ba35  1  0.16494867  0.35025076  0.62193377  1
  La  La36  1  0.50374132  0.64773324  0.87678954  1
  La  La37  1  0.83240767  0.64675058  0.36751399  1
  La  La38  1  0.33543428  0.84349200  0.12692272  1
  La  La39  1  0.16795554  0.65460175  0.87543374  1
  La  La40  1  0.65967622  0.81695637  0.87991867  1
  La  La41  1  -0.00599133  0.81363999  0.37255794  1
  La  La42  1  0.66937692  0.84996172  0.61941187  1
  La  La43  1  0.32587906  0.14472754  0.37425727  1
  La  La44  1  0.16555317  0.67238689  0.62789346  1
  La  La45  1  0.67405745  0.49347852  0.87608348  1
  La  La46  1  -0.00227267  0.15185387  0.38169271  1
  La  La47  1  0.17990323  0.31538274  0.87423836  1
  La  La48  1  0.32902225  0.48502588  0.87650645  1
  La  La49  1  0.17061206  0.64714525  0.37486350  1
  La  La50  1  0.33400762  0.84474891  0.62361608  1
  La  La51  1  0.34305219  0.18204015  0.62154957  1
  La  La52  1  0.83042668  0.01616137  0.62547340  1
  La  La53  1  1.00327465  0.83871664  0.62522828  1
  La  La54  1  1.00801745  0.18386601  0.62847132  1
  La  La55  1  0.33024143  0.48525596  0.37355830  1
  La  La56  1  0.49566682  0.35227896  0.61919480  1
  La  La57  1  0.17213418  0.98200288  0.37353280  1
  La  La58  1  0.16238521  0.00860518  0.12507709  1
  La  La59  1  0.66800878  0.50218291  0.63368082  1
  La  La60  1  0.32498768  0.14076128  0.87321778  1
  La  La61  1  0.49906728  0.98793326  0.87788678  1
  La  La62  1  0.49443673  0.00963848  0.62333345  1
  La  La63  1  0.49860631  0.00854376  0.13502602  1
  La  La64  1  0.67359201  0.15619192  0.88018515  1
  La  La65  1  0.50712056  0.34345888  0.13267340  1
  La  La66  1  1.00067486  0.84322106  0.11841129  1
  La  La67  1  0.15738196  0.35164721  0.12754448  1
  La  La68  1  -0.00658217  0.48390919  0.37034816  1
  La  La69  1  0.83310391  0.32329650  0.37623120  1
  La  La70  1  0.83923375  0.98877396  0.87943950  1
  La  La71  1  0.83332447  0.98180462  0.37293828  1
  In  In72  1  0.33617125  0.66814106  0.74807486  1
  In  In73  1  -0.00106695  0.66380558  0.49789237  1
  In  In74  1  0.33617266  0.66967791  -0.00275839  1
  In  In75  1  0.66235479  0.66692763  0.74807019  1
  In  In76  1  0.49816516  0.16541427  0.75388978  1
  In  In77  1  0.83738731  0.16879537  0.00035148  1
  In  In78  1  0.66442858  0.32933893  0.75132056  1
  In  In79  1  0.66680267  0.00291349  0.49884278  1
  In  In80  1  0.82911247  0.83485564  0.74468484  1
  In  In81  1  0.16824902  0.16319823  0.50321529  1
  In  In82  1  0.00324399  -0.00311054  0.25446986  1
  In  In83  1  0.49914706  0.16808755  -0.00244174  1
  In  In84  1  0.66638478  0.00148807  -0.00243485  1
  In  In85  1  0.49936902  0.50373722  0.25385722  1
  In  In86  1  0.49798318  0.16895104  0.49632738  1
  In  In87  1  0.83628819  0.50171971  0.75244516  1
  In  In88  1  0.49851623  0.49928787  0.00042156  1
  In  In89  1  0.33594924  0.33231172  0.74566360  1
  In  In90  1  0.16320226  0.82780432  0.49931493  1
  In  In91  1  0.00533772  0.33491439  -0.00067746  1
  In  In92  1  0.49912190  0.83277886  0.75001979  1
  In  In93  1  -0.00200012  -0.00040245  0.74920324  1
  In  In94  1  0.49633792  0.16906780  0.25170839  1
  In  In95  1  0.00616782  0.33534282  0.75446812  1
  In  In96  1  0.16852711  0.50011657  0.00061708  1
  In  In97  1  0.66670995  0.00173942  0.25011381  1
  In  In98  1  0.33475102  0.33060976  0.00397694  1
  In  In99  1  0.66840720  0.66832262  0.49817967  1
  In  In100  1  0.66497500  -0.00112084  0.74996425  1
  In  In101  1  -0.00122044  -0.00261044  0.50214074  1
  In  In102  1  0.83379201  0.49754259  0.49918665  1
  In  In103  1  0.83087209  0.83283523  0.00194287  1
  In  In104  1  0.00257540  0.33350861  0.49985414  1
  In  In105  1  0.32756372  0.66868238  0.25039698  1
  In  In106  1  0.17181605  0.16472739  0.00284485  1
  In  In107  1  0.83889878  0.16618624  0.25311382  1
  Ir  Ir108  1  0.33342262  -0.00707816  0.00304024  1
  Ir  Ir109  1  0.49961921  0.49921284  0.74770434  1
  Ir  Ir110  1  0.00433138  0.66832188  0.24921880  1
  Ir  Ir111  1  0.16765127  0.83183370  0.00084181  1
  Ir  Ir112  1  0.17304675  0.16209006  0.74766153  1
  Ir  Ir113  1  0.00385075  0.67040761  0.75193033  1
  Ir  Ir114  1  0.82959993  0.50332537  0.00406069  1
  Ir  Ir115  1  0.83630163  0.49742474  0.24799741  1
  Ir  Ir116  1  0.49810829  0.83714357  0.00235695  1
  Ir  Ir117  1  0.32727750  0.33176480  0.25145767  1
  Ir  Ir118  1  0.16390744  0.49879841  0.25593810  1
  Ir  Ir119  1  0.16722015  0.16467223  0.25251071  1
  Ir  Ir120  1  0.67065799  0.33752556  0.25228840  1
  Ir  Ir121  1  0.33437896  0.33320576  0.49721698  1
  Ir  Ir122  1  0.49909628  0.83410369  0.49971874  1
  Ir  Ir123  1  0.16224756  0.83251189  0.24735478  1
  Ir  Ir124  1  0.66383733  0.66642487  -0.00000948  1
  Ir  Ir125  1  0.16920635  0.50501764  0.74962553  1
  Ir  Ir126  1  0.33021159  -0.00180377  0.74583869  1
  Ir  Ir127  1  0.83694659  0.82836798  0.25504290  1
  Ir  Ir128  1  0.32943725  -0.00400125  0.49968868  1
  Ir  Ir129  1  0.66986221  0.67141718  0.24737539  1
  Ir  Ir130  1  0.49766269  0.50059020  0.50106085  1
  Ir  Ir131  1  0.00266364  -0.00321851  0.00105874  1
  Ir  Ir132  1  0.33015607  0.66420525  0.49892864  1
  Ir  Ir133  1  0.83378848  0.16609602  0.74559250  1
  Ir  Ir134  1  0.00179353  0.67115407  0.00010368  1
  Ir  Ir135  1  0.00609164  0.33214923  0.25305278  1
  Ir  Ir136  1  0.32563185  -0.00550680  0.24988591  1
  Ir  Ir137  1  0.16717592  0.82763285  0.75042266  1
  Ir  Ir138  1  0.66782405  0.33646587  0.00168827  1
  Ir  Ir139  1  0.16832334  0.50458125  0.49948643  1
  Ir  Ir140  1  0.83553562  0.83151141  0.49594937  1
  Ir  Ir141  1  0.66437072  0.33821340  0.49964846  1
  Ir  Ir142  1  0.83586308  0.16775881  0.50100992  1
  Ir  Ir143  1  0.49712089  0.83577981  0.24816086  1
  O  O144  1  0.29433906  0.32926233  0.13439446  1
  O  O145  1  0.31092796  0.32412633  0.61699741  1
  O  O146  1  0.31370404  0.67274796  0.12379056  1
  O  O147  1  0.30252967  0.66425565  0.61894872  1
  O  O148  1  0.29890583  0.98360210  0.12631996  1
  O  O149  1  0.31004312  0.98177778  0.62305932  1
  O  O150  1  0.64257345  0.32954087  0.12754231  1
  O  O151  1  0.63467982  0.33498013  0.61989990  1
  O  O152  1  0.64508026  0.66817211  0.12203038  1
  O  O153  1  0.65176149  0.63993552  0.62191302  1
  O  O154  1  0.63416227  1.00050539  0.12305260  1
  O  O155  1  0.63130641  0.98978959  0.62272985  1
  O  O156  1  0.98917241  0.33009346  0.13472404  1
  O  O157  1  0.98981243  0.32441676  0.62752407  1
  O  O158  1  0.98220991  0.67351845  0.12440314  1
  O  O159  1  0.98469845  0.66780105  0.63082300  1
  O  O160  1  0.98502802  0.98857416  0.12379668  1
  O  O161  1  0.96381265  0.97940280  0.62496906  1
  O  O162  1  0.18954400  0.14905886  0.13365190  1
  O  O163  1  0.20661825  0.15854994  0.62916780  1
  O  O164  1  0.18716654  0.49436480  0.13492004  1
  O  O165  1  0.18642192  0.51572876  0.62397401  1
  O  O166  1  0.19676319  0.83010421  0.12496016  1
  O  O167  1  0.19467010  0.81484418  0.62951274  1
  O  O168  1  0.51346129  0.14723444  0.12436584  1
  O  O169  1  0.50969604  0.14706192  0.62434841  1
  O  O170  1  0.50815188  0.48244628  0.12796174  1
  O  O171  1  0.53078174  0.49567189  0.62411882  1
  O  O172  1  0.52007154  0.83973335  0.12522844  1
  O  O173  1  0.52788275  0.83774088  0.61926097  1
  O  O174  1  0.85648040  0.16918683  0.12772865  1
  O  O175  1  0.86906451  0.15697440  0.62298186  1
  O  O176  1  0.85029762  0.50509802  0.12659472  1
  O  O177  1  0.84858539  0.50482311  0.62432760  1
  O  O178  1  0.86512927  0.82842820  0.13432439  1
  O  O179  1  0.86900246  0.82456257  0.61274249  1
  O  O180  1  0.13747794  0.16664274  0.37102100  1
  O  O181  1  0.15331280  0.16974037  0.86879179  1
  O  O182  1  0.13335829  0.50747337  0.37774098  1
  O  O183  1  0.15137547  0.51188415  0.86828484  1
  O  O184  1  0.13185066  0.84337629  0.36753544  1
  O  O185  1  0.14548968  0.83301354  0.87555109  1
  O  O186  1  0.45796056  0.17412583  0.37430020  1
  O  O187  1  0.45545637  0.17538486  0.87561393  1
  O  O188  1  0.46827387  0.49792241  0.38172915  1
  O  O189  1  0.46925710  0.50188424  0.86666589  1
  O  O190  1  0.47681151  0.83262506  0.37323691  1
  O  O191  1  0.47617560  0.84689170  0.88348368  1
  O  O192  1  0.81728344  0.18418301  0.38273961  1
  O  O193  1  0.80823379  0.16951234  0.86585615  1
  O  O194  1  0.82155139  0.49647136  0.36690566  1
  O  O195  1  0.80801892  0.50371965  0.88395835  1
  O  O196  1  0.80940946  0.84101377  0.37647679  1
  O  O197  1  0.79842844  0.84270972  0.87347106  1
  O  O198  1  0.03940167  0.01066218  0.37868989  1
  O  O199  1  0.01869208  0.00034153  0.87999207  1
  O  O200  1  0.02365774  0.34444037  0.37163272  1
  O  O201  1  0.04501764  0.33214575  0.87469244  1
  O  O202  1  0.03423421  0.67658013  0.36779529  1
  O  O203  1  0.03190058  0.67243688  0.87589467  1
  O  O204  1  0.34943479  0.00632119  0.37484666  1
  O  O205  1  0.36064599  0.00246040  0.87375060  1
  O  O206  1  0.35054207  0.34576337  0.37526978  1
  O  O207  1  0.34700031  0.34591494  0.87062856  1
  O  O208  1  0.34763183  0.66768137  0.38068816  1
  O  O209  1  0.36975100  0.67650142  0.87157532  1
  O  O210  1  0.69909770  -0.00359325  0.37640806  1
  O  O211  1  0.70472613  0.01380894  0.86994497  1
  O  O212  1  0.69777518  0.34365338  0.37609995  1
  O  O213  1  0.68141546  0.35358560  0.88123906  1
  O  O214  1  0.69461422  0.67365759  0.36749422  1
  O  O215  1  0.68125936  0.67473099  0.88105149  1
  O  O216  1  0.07854193  0.08241674  0.01897785  1
  O  O217  1  0.06348039  0.09969538  0.52716586  1
  O  O218  1  0.07570186  0.42852138  0.02564255  1
  O  O219  1  0.07503998  0.43732517  0.51150066  1
  O  O220  1  0.06853871  0.76875533  0.02067311  1
  O  O221  1  0.06004757  0.76537516  0.51629712  1
  O  O222  1  0.40326626  0.08126156  0.01377035  1
  O  O223  1  0.39443282  0.09021036  0.52000392  1
  O  O224  1  0.39459504  0.43599468  0.00227135  1
  O  O225  1  0.40774499  0.42466058  0.52122951  1
  O  O226  1  0.40321687  0.77589484  0.02514791  1
  O  O227  1  0.39756443  0.76314384  0.52245008  1
  O  O228  1  0.73744838  0.10236029  0.00713939  1
  O  O229  1  0.74875682  0.09605641  0.52426744  1
  O  O230  1  0.73244101  0.43760673  0.01406487  1
  O  O231  1  0.72791176  0.43133722  0.52334594  1
  O  O232  1  0.73234565  0.75824024  0.01197844  1
  O  O233  1  0.73896184  0.77121418  0.52443001  1
  O  O234  1  0.10888467  0.26551243  0.02289976  1
  O  O235  1  0.09472496  0.25655952  0.51981559  1
  O  O236  1  0.09287806  0.60082742  0.00665633  1
  O  O237  1  0.10772518  0.60328820  0.51456343  1
  O  O238  1  0.09727693  0.92544635  0.02923792  1
  O  O239  1  0.08814756  0.91859487  0.52638922  1
  O  O240  1  0.43899015  0.27134647  0.03233990  1
  O  O241  1  0.42577635  0.26580919  0.52600534  1
  O  O242  1  0.43864201  0.60400463  0.00576432  1
  O  O243  1  0.42554534  0.59430195  0.51832970  1
  O  O244  1  0.43413814  0.93196453  0.02858269  1
  O  O245  1  0.42460002  0.92598452  0.52637266  1
  O  O246  1  0.75779578  0.27000979  0.00932923  1
  O  O247  1  0.76503502  0.27092914  0.51265489  1
  O  O248  1  0.75632731  0.59732848  0.01803124  1
  O  O249  1  0.76818803  0.59930388  0.49172002  1
  O  O250  1  0.76186422  0.92922848  0.01588897  1
  O  O251  1  0.77206083  0.92754656  0.52264143  1
  O  O252  1  0.23159813  0.06593777  0.27719758  1
  O  O253  1  0.23779304  0.06737704  0.77177706  1
  O  O254  1  0.23656427  0.40781200  0.27559148  1
  O  O255  1  0.23584197  0.41048814  0.77043369  1
  O  O256  1  0.22450625  0.73789895  0.27514769  1
  O  O257  1  0.22954763  0.73170516  0.77005660  1
  O  O258  1  0.57075366  0.07620393  0.26824118  1
  O  O259  1  0.55710582  0.05829470  0.76944870  1
  O  O260  1  0.58025732  0.40945210  0.26196056  1
  O  O261  1  0.56561900  0.40724547  0.75742103  1
  O  O262  1  0.57276000  0.74385067  0.26353476  1
  O  O263  1  0.56242941  0.73170139  0.77677165  1
  O  O264  1  0.91117945  0.06996139  0.28823025  1
  O  O265  1  0.89595443  0.07154895  0.76674577  1
  O  O266  1  0.90799442  0.40068422  0.27515941  1
  O  O267  1  0.91307674  0.41094063  0.76928292  1
  O  O268  1  0.90819606  0.73388000  0.27940461  1
  O  O269  1  0.91334506  0.74089531  0.76329060  1
  O  O270  1  0.26502553  0.22983448  0.27530538  1
  O  O271  1  0.26605700  0.22914685  0.77088869  1
  O  O272  1  0.25415681  0.56785212  0.28252277  1
  O  O273  1  0.26240488  0.57029666  0.77270185  1
  O  O274  1  0.25387620  0.90294533  0.27131584  1
  O  O275  1  0.26225445  0.89828752  0.75680654  1
  O  O276  1  0.59373213  0.25235983  0.26297729  1
  O  O277  1  0.60138668  0.22904923  0.77838252  1
  O  O278  1  0.59493502  0.58566510  0.26387004  1
  O  O279  1  0.59156182  0.56369593  0.77742568  1
  O  O280  1  0.58300546  0.90924137  0.26132761  1
  O  O281  1  0.59966964  0.89657471  0.77878859  1
  O  O282  1  0.94140976  0.23917776  0.28111791  1
  O  O283  1  0.92720808  0.23315652  0.75821768  1
  O  O284  1  0.93353021  0.57131942  0.27519457  1
  O  O285  1  0.93295819  0.58362247  0.77011928  1
  O  O286  1  0.92951495  0.89755062  0.27700939  1
  O  O287  1  0.91382104  0.91537433  0.77742518  1
  O  O288  1  0.27333846  0.23330445  0.47834364  1
  O  O289  1  0.27194188  0.22907958  0.97211978  1
  O  O290  1  0.26482880  0.56941287  0.47179461  1
  O  O291  1  0.26365965  0.57118733  0.97201557  1
  O  O292  1  0.25583746  0.90741446  0.48217774  1
  O  O293  1  0.26462206  0.89766309  0.99204560  1
  O  O294  1  0.59478483  0.24944865  0.48039376  1
  O  O295  1  0.60597806  0.23992263  0.97879335  1
  O  O296  1  0.58449211  0.57169371  0.48143773  1
  O  O297  1  0.59864084  0.57109694  0.97342966  1
  O  O298  1  0.58890454  0.90322474  0.48495290  1
  O  O299  1  0.59178128  0.90218849  0.97230180  1
  O  O300  1  0.93214227  0.23004577  0.48169998  1
  O  O301  1  0.92900631  0.24477988  0.98154856  1
  O  O302  1  0.93544873  0.56700746  0.46883218  1
  O  O303  1  0.92794128  0.57801027  0.98620844  1
  O  O304  1  0.92652071  0.89895821  0.46474535  1
  O  O305  1  0.92892139  0.91006815  0.98724945  1
  O  O306  1  0.23622661  0.06411367  0.47194310  1
  O  O307  1  0.24358973  0.06410039  0.98588670  1
  O  O308  1  0.24434217  0.41322633  0.47670540  1
  O  O309  1  0.23148521  0.39694268  0.97777374  1
  O  O310  1  0.23261360  0.72728587  0.47894426  1
  O  O311  1  0.23071188  0.73753474  0.97424884  1
  O  O312  1  0.57411601  0.07780306  0.48134630  1
  O  O313  1  0.57246168  0.07527201  0.95896028  1
  O  O314  1  0.56519355  0.40415577  0.48741383  1
  O  O315  1  0.57438398  0.40126960  0.99597829  1
  O  O316  1  0.57172335  0.74568099  0.48528391  1
  O  O317  1  0.56719406  0.73886521  0.97429313  1
  O  O318  1  0.89802603  0.07147956  0.47502406  1
  O  O319  1  0.90965346  0.06517557  0.97851474  1
  O  O320  1  0.90326863  0.39975111  0.47556947  1
  O  O321  1  0.90370447  0.41724674  0.98976669  1
  O  O322  1  0.89847486  0.73668865  0.46544384  1
  O  O323  1  0.91295876  0.74277781  0.98705580  1
  O  O324  1  0.10491908  0.26491637  0.22885705  1
  O  O325  1  0.10410098  0.25159121  0.72836395  1
  O  O326  1  0.09872277  0.59691915  0.23718326  1
  O  O327  1  0.10479598  0.60602847  0.73624882  1
  O  O328  1  0.10093874  0.92717231  0.22323375  1
  O  O329  1  0.09009802  0.91371054  0.73026726  1
  O  O330  1  0.42206731  0.26793580  0.22561820  1
  O  O331  1  0.43235590  0.26336837  0.71399237  1
  O  O332  1  0.42001955  0.59219355  0.24023827  1
  O  O333  1  0.43451959  0.59187555  0.73363487  1
  O  O334  1  0.42142098  0.92610482  0.22192639  1
  O  O335  1  0.42816411  0.93635383  0.72788594  1
  O  O336  1  0.76230095  0.26841773  0.24735067  1
  O  O337  1  0.76455715  0.25621754  0.73128235  1
  O  O338  1  0.76755603  0.59849090  0.24253061  1
  O  O339  1  0.75252247  0.58791630  0.74568013  1
  O  O340  1  0.76912695  0.92022369  0.23914590  1
  O  O341  1  0.75808785  0.92888520  0.70502691  1
  O  O342  1  0.07868164  0.09426629  0.23308298  1
  O  O343  1  0.07385350  0.09739684  0.72508927  1
  O  O344  1  0.07253227  0.42800973  0.23234380  1
  O  O345  1  0.08151528  0.43559768  0.73392303  1
  O  O346  1  0.06340901  0.77091396  0.22625236  1
  O  O347  1  0.07470741  0.76034135  0.72239661  1
  O  O348  1  0.39807904  0.08227321  0.23550508  1
  O  O349  1  0.38914874  0.09500233  0.72837868  1
  O  O350  1  0.39788525  0.42048724  0.23981095  1
  O  O351  1  0.41155160  0.42874302  0.72460754  1
  O  O352  1  0.40239876  0.76963136  0.23364712  1
  O  O353  1  0.39840070  0.77055307  0.71984374  1
  O  O354  1  0.74662974  0.09092372  0.23795279  1
  O  O355  1  0.74394079  0.09694131  0.72418646  1
  O  O356  1  0.74236777  0.42938230  0.23044566  1
  O  O357  1  0.73224962  0.42907011  0.73838937  1
  O  O358  1  0.74515226  0.75934480  0.23149971  1
  O  O359  1  0.72809974  0.76827968  0.72319246  1
