# generated using pymatgen
data_BaLaInIrO6
_symmetry_space_group_name_H-M   'P 1'
_cell_length_a   17.50811255
_cell_length_b   17.54077522
_cell_length_c   16.49050874
_cell_angle_alpha   89.99835418
_cell_angle_beta   90.02315300
_cell_angle_gamma   89.99204511
_symmetry_Int_Tables_number   1
_chemical_formula_structural   BaLaInIrO6
_chemical_formula_sum   'Ba36 La36 In36 Ir36 O216'
_cell_volume   5064.33151805
_cell_formula_units_Z   36
loop_
 _symmetry_equiv_pos_site_id
 _symmetry_equiv_pos_as_xyz
  1  'x, y, z'
loop_
 _atom_site_type_symbol
 _atom_site_label
 _atom_site_symmetry_multiplicity
 _atom_site_fract_x
 _atom_site_fract_y
 _atom_site_fract_z
 _atom_site_occupancy
  Ba  Ba0  1  0.16621653  0.67659457  0.62616114  1
  Ba  Ba1  1  0.66598317  0.17023652  0.62344606  1
  Ba  Ba2  1  0.82944653  0.99182997  0.87361938  1
  Ba  Ba3  1  0.16802128  0.34615278  0.11974356  1
  Ba  Ba4  1  0.50048725  0.34244517  0.12421757  1
  Ba  Ba5  1  0.83137427  0.32804232  0.87548882  1
  Ba  Ba6  1  0.83363514  0.00454639  0.62696881  1
  Ba  Ba7  1  0.83393679  0.99315189  0.37637147  1
  Ba  Ba8  1  0.16876614  0.32679577  0.36921579  1
  Ba  Ba9  1  0.49631621  0.67571448  0.12560504  1
  Ba  Ba10  1  0.16767169  0.32534129  0.87197605  1
  Ba  Ba11  1  0.66652607  0.82639653  0.87559786  1
  Ba  Ba12  1  0.50103880  0.32498030  0.37367553  1
  Ba  Ba13  1  0.66883103  0.49528500  0.87678678  1
  Ba  Ba14  1  0.16949432  0.98864506  0.37248148  1
  Ba  Ba15  1  0.66829098  0.50950681  0.12629904  1
  Ba  Ba16  1  -0.00165821  0.49144933  0.37436197  1
  Ba  Ba17  1  0.16951995  0.34279514  0.62461991  1
  Ba  Ba18  1  0.33828473  0.17489453  0.62365151  1
  Ba  Ba19  1  0.66340741  0.84239244  0.62734714  1
  Ba  Ba20  1  1.00018910  0.51112704  0.13004620  1
  Ba  Ba21  1  0.66278756  0.50361254  0.62638874  1
  Ba  Ba22  1  0.83484761  0.00977335  0.12026193  1
  Ba  Ba23  1  0.83074267  0.67134856  0.62580940  1
  Ba  Ba24  1  0.82897161  0.67231446  0.12788261  1
  Ba  Ba25  1  0.16792313  0.65390271  0.87986221  1
  Ba  Ba26  1  0.83382262  0.66018915  0.87649829  1
  Ba  Ba27  1  0.49233498  0.67790805  0.63041164  1
  Ba  Ba28  1  0.17359312  0.98712720  0.87723795  1
  Ba  Ba29  1  0.50847494  0.32197216  0.87585451  1
  Ba  Ba30  1  0.66274488  0.15825742  0.87228510  1
  Ba  Ba31  1  -0.00256872  0.82188607  0.87681481  1
  Ba  Ba32  1  0.66451835  0.82811247  0.37681379  1
  Ba  Ba33  1  0.33565902  0.18007863  0.11986946  1
  Ba  Ba34  1  -0.00301461  0.15880657  0.37322719  1
  Ba  Ba35  1  0.66460552  0.15486135  0.37233678  1
  La  La36  1  0.99821125  0.84718744  0.62987434  1
  La  La37  1  0.32857914  0.81223882  0.87829222  1
  La  La38  1  0.66724753  0.49138133  0.37596560  1
  La  La39  1  -0.00837151  0.82503405  0.37619916  1
  La  La40  1  0.84210010  0.32054630  0.37446357  1
  La  La41  1  0.82919690  0.34936807  0.12482276  1
  La  La42  1  0.32652441  0.48873708  0.37352747  1
  La  La43  1  0.33112274  0.48386579  0.87801715  1
  La  La44  1  0.16370904  0.67682268  0.12622849  1
  La  La45  1  0.33852834  0.50581963  0.12305971  1
  La  La46  1  0.50711168  0.65489999  0.87756843  1
  La  La47  1  0.99768768  0.84428457  0.12138759  1
  La  La48  1  0.49572997  0.01672357  0.12104260  1
  La  La49  1  -0.00514699  0.15570738  0.87625106  1
  La  La50  1  0.32617036  0.82000646  0.37180744  1
  La  La51  1  0.16131849  0.01729297  0.12546719  1
  La  La52  1  0.83181619  0.34145796  0.62274504  1
  La  La53  1  0.16230692  0.01572427  0.62758517  1
  La  La54  1  0.16577738  0.65160660  0.37507499  1
  La  La55  1  0.50258583  0.65038573  0.37613900  1
  La  La56  1  0.49897878  0.01038767  0.62399183  1
  La  La57  1  0.33882526  0.85123622  0.12078827  1
  La  La58  1  0.33235218  0.15050612  0.87542870  1
  La  La59  1  -0.00820868  0.48880896  0.88021118  1
  La  La60  1  0.34043069  0.51178403  0.62609742  1
  La  La61  1  0.83643855  0.65300040  0.37301967  1
  La  La62  1  1.00574955  0.18457243  0.12240172  1
  La  La63  1  0.67008538  0.18967396  0.11828692  1
  La  La64  1  0.50537877  0.98361895  0.87547306  1
  La  La65  1  1.00648039  0.51036397  0.63694564  1
  La  La66  1  0.66722504  0.84321684  0.12346697  1
  La  La67  1  0.49337865  0.34861835  0.62843419  1
  La  La68  1  1.00577232  0.17880733  0.62237192  1
  La  La69  1  0.32426715  0.14960953  0.36745446  1
  La  La70  1  0.50236009  0.98854603  0.37441032  1
  La  La71  1  0.34185336  0.85255224  0.63179284  1
  In  In72  1  0.00179056  0.33658143  0.50036735  1
  In  In73  1  0.17149846  0.49984535  0.75189904  1
  In  In74  1  0.83320494  0.83119985  0.75061989  1
  In  In75  1  -0.00066303  0.66845356  0.49890945  1
  In  In76  1  0.00091065  0.33113113  0.75235321  1
  In  In77  1  0.16700446  0.50234758  0.24719485  1
  In  In78  1  0.33349132  -0.00266947  0.49746951  1
  In  In79  1  0.66321231  -0.00013455  0.24616398  1
  In  In80  1  0.16666739  0.83271198  0.50100721  1
  In  In81  1  0.00445117  0.66625750  0.75318173  1
  In  In82  1  0.83475779  0.49871432  0.49999495  1
  In  In83  1  0.33695355  0.33198947  0.49891177  1
  In  In84  1  0.16838799  0.16968711  -0.00426424  1
  In  In85  1  0.83198636  0.83136251  0.00287763  1
  In  In86  1  0.16991124  0.16881183  0.49729841  1
  In  In87  1  0.00015271  -0.00110303  0.24994278  1
  In  In88  1  0.83595711  0.49786792  0.74949014  1
  In  In89  1  0.17165748  0.83209445  0.00331443  1
  In  In90  1  0.66284777  0.67101430  0.25263199  1
  In  In91  1  0.66397528  0.66677324  0.74822789  1
  In  In92  1  0.83084214  0.16696655  0.24315706  1
  In  In93  1  0.49535649  0.83192201  0.49953691  1
  In  In94  1  0.49716266  0.49926509  0.75637670  1
  In  In95  1  0.33194881  0.66903492  0.49991715  1
  In  In96  1  0.00391950  -0.00107032  0.50005559  1
  In  In97  1  0.66927198  0.33536594  0.25176814  1
  In  In98  1  0.66498721  0.32893355  0.74572915  1
  In  In99  1  0.66583735  0.33134699  0.50103345  1
  In  In100  1  0.33278635  0.66847011  0.24872666  1
  In  In101  1  0.00484545  -0.00016759  0.75336017  1
  In  In102  1  0.33509273  0.33353373  0.24737059  1
  In  In103  1  0.00268319  0.00107322  0.00080914  1
  In  In104  1  0.83125927  0.83000953  0.49837608  1
  In  In105  1  0.83367634  0.16548048  0.50116078  1
  In  In106  1  0.66323459  0.00368833  0.00155799  1
  In  In107  1  0.49918962  0.16518732  0.25064254  1
  Ir  Ir108  1  0.49903792  0.50270079  0.25168987  1
  Ir  Ir109  1  0.49857790  0.16639944  -0.00404753  1
  Ir  Ir110  1  0.16980278  0.16593128  0.75035404  1
  Ir  Ir111  1  0.49829675  0.16482914  0.50126136  1
  Ir  Ir112  1  0.49698677  0.50126491  0.00538400  1
  Ir  Ir113  1  0.33628123  0.33036684  0.75182736  1
  Ir  Ir114  1  0.17044098  0.50240541  0.50042622  1
  Ir  Ir115  1  0.33305069  -0.00264937  0.24254876  1
  Ir  Ir116  1  0.65990928  0.66645268  0.00329167  1
  Ir  Ir117  1  0.83358666  0.50164080  0.00473301  1
  Ir  Ir118  1  0.83593875  0.17276148  -0.00305839  1
  Ir  Ir119  1  0.49435953  0.16291365  0.74998766  1
  Ir  Ir120  1  0.17740339  0.83323183  0.74998398  1
  Ir  Ir121  1  0.66732980  0.33683128  0.00008873  1
  Ir  Ir122  1  0.83389907  0.50297197  0.25001356  1
  Ir  Ir123  1  0.66290602  0.66469560  0.49712352  1
  Ir  Ir124  1  0.49506419  0.83159652  0.00258341  1
  Ir  Ir125  1  0.00236710  0.66356613  0.00818713  1
  Ir  Ir126  1  0.33471784  0.66668871  0.75555727  1
  Ir  Ir127  1  0.66154783  -0.00077683  0.49963413  1
  Ir  Ir128  1  0.33392568  0.66145619  0.00105077  1
  Ir  Ir129  1  0.33719689  0.33469723  -0.00625974  1
  Ir  Ir130  1  -0.00055933  0.33741500  0.00299297  1
  Ir  Ir131  1  0.16853130  0.50008569  0.00001146  1
  Ir  Ir132  1  0.33381007  0.00054960  0.75471283  1
  Ir  Ir133  1  0.33816305  -0.00109792  -0.00059883  1
  Ir  Ir134  1  -0.00076105  0.33373734  0.24597718  1
  Ir  Ir135  1  0.00172022  0.67461835  0.24744422  1
  Ir  Ir136  1  0.49305387  0.83555427  0.24611405  1
  Ir  Ir137  1  0.49153533  0.83779482  0.75581240  1
  Ir  Ir138  1  0.16781279  0.83126516  0.24758107  1
  Ir  Ir139  1  0.66013040  0.00178946  0.74917410  1
  Ir  Ir140  1  0.49812426  0.50239204  0.49637961  1
  Ir  Ir141  1  0.83328278  0.83113606  0.24843890  1
  Ir  Ir142  1  0.83684669  0.16430912  0.75378896  1
  Ir  Ir143  1  0.16701589  0.16644878  0.24581458  1
  O  O144  1  0.31807178  0.33858353  0.11397770  1
  O  O145  1  0.32053159  0.33094376  0.63127160  1
  O  O146  1  0.30103193  0.64894076  0.12114695  1
  O  O147  1  0.31615438  0.65071358  0.63306334  1
  O  O148  1  0.29906800  0.98887942  0.12061189  1
  O  O149  1  0.30175536  0.99208635  0.63392702  1
  O  O150  1  0.65083645  0.33529399  0.12028620  1
  O  O151  1  0.62499719  0.32697206  0.62216662  1
  O  O152  1  0.64471290  0.66618283  0.12396405  1
  O  O153  1  0.63901398  0.66197028  0.61521323  1
  O  O154  1  0.62763113  0.98351954  0.12320059  1
  O  O155  1  0.63307587  1.00094636  0.62442175  1
  O  O156  1  0.96861355  0.32676149  0.12328735  1
  O  O157  1  0.96888182  0.31911206  0.62761980  1
  O  O158  1  0.97944890  0.66754536  0.12790693  1
  O  O159  1  0.98440010  0.64580521  0.62365138  1
  O  O160  1  0.98531715  0.98323728  0.12626306  1
  O  O161  1  0.98906968  0.98514073  0.62841189  1
  O  O162  1  0.18768484  0.16387769  0.12610489  1
  O  O163  1  0.19247155  0.15983748  0.63220953  1
  O  O164  1  0.20000611  0.50544540  0.11892285  1
  O  O165  1  0.20317457  0.50330092  0.62012255  1
  O  O166  1  0.20515180  0.81552184  0.13068400  1
  O  O167  1  0.20886798  0.82900949  0.63210589  1
  O  O168  1  0.52917547  0.15448723  0.11613918  1
  O  O169  1  0.51758886  0.14685419  0.62671151  1
  O  O170  1  0.52140549  0.49969799  0.12890593  1
  O  O171  1  0.51010163  0.49627083  0.61856638  1
  O  O172  1  0.52867878  0.82749517  0.12467705  1
  O  O173  1  0.51116511  0.83516746  0.63550722  1
  O  O174  1  0.86736684  0.17187946  0.11288446  1
  O  O175  1  0.86817405  0.16144413  0.63624883  1
  O  O176  1  0.85359805  0.49359252  0.12780870  1
  O  O177  1  0.87410339  0.48642422  0.62323246  1
  O  O178  1  0.86145620  0.82696492  0.13109697  1
  O  O179  1  0.86203493  0.82981445  0.62312556  1
  O  O180  1  0.14916608  0.16400402  0.36423210  1
  O  O181  1  0.13697908  0.16680564  0.86890904  1
  O  O182  1  0.14906102  0.50455271  0.37937325  1
  O  O183  1  0.13625236  0.49719961  0.88269764  1
  O  O184  1  0.13242376  0.83669195  0.36426602  1
  O  O185  1  0.15533222  0.83180538  0.87107834  1
  O  O186  1  0.46505091  0.16748973  0.38277606  1
  O  O187  1  0.46676072  0.17123924  0.87235366  1
  O  O188  1  0.46596872  0.50881692  0.37284944  1
  O  O189  1  0.46712600  0.50984220  0.88608852  1
  O  O190  1  0.46128863  0.85055208  0.36667233  1
  O  O191  1  0.46190566  0.84492644  0.88047541  1
  O  O192  1  0.81160512  0.18440282  0.37080018  1
  O  O193  1  0.81061013  0.17014762  0.87722026  1
  O  O194  1  0.80427868  0.50725873  0.36782815  1
  O  O195  1  0.81959565  0.50117258  0.88631437  1
  O  O196  1  0.81396649  0.83737533  0.36591315  1
  O  O197  1  0.81690598  0.83321359  0.87829180  1
  O  O198  1  0.02119238  -0.01101561  0.37234969  1
  O  O199  1  0.02646558  0.01694052  0.87709737  1
  O  O200  1  0.01964407  0.33398868  0.36501642  1
  O  O201  1  0.02056191  0.34570793  0.88426621  1
  O  O202  1  0.03259724  0.68452280  0.36549263  1
  O  O203  1  0.02020981  0.66291610  0.89015180  1
  O  O204  1  0.36408570  0.00788943  0.36373124  1
  O  O205  1  0.36864408  0.00953025  0.87733561  1
  O  O206  1  0.35453731  0.35415513  0.37422991  1
  O  O207  1  0.36034100  0.34418059  0.87210389  1
  O  O208  1  0.36961103  0.68516560  0.37345540  1
  O  O209  1  0.36771007  0.67629112  0.87902732  1
  O  O210  1  0.67838879  -0.00259126  0.37784896  1
  O  O211  1  0.67577044  0.00156518  0.87096390  1
  O  O212  1  0.70008535  0.34558703  0.37569294  1
  O  O213  1  0.67781904  0.33201704  0.87836862  1
  O  O214  1  0.69301027  0.66745662  0.37877629  1
  O  O215  1  0.67501965  0.66780593  0.88475518  1
  O  O216  1  0.07364069  0.09916723  0.02841026  1
  O  O217  1  0.07550228  0.09732420  0.52928001  1
  O  O218  1  0.07055918  0.43161275  0.02295521  1
  O  O219  1  0.07372834  0.43945861  0.52697896  1
  O  O220  1  0.07397328  0.75570230  0.03029572  1
  O  O221  1  0.06350581  0.77095363  0.52552098  1
  O  O222  1  0.40556481  0.09557601  0.01564963  1
  O  O223  1  0.41315651  0.09144263  0.51835077  1
  O  O224  1  0.40174264  0.43277998  0.01985708  1
  O  O225  1  0.40693429  0.43345454  0.52350358  1
  O  O226  1  0.39783776  0.76181512  0.02455982  1
  O  O227  1  0.39443944  0.76996583  0.52609128  1
  O  O228  1  0.73933324  0.10571009  0.02083994  1
  O  O229  1  0.73448834  0.08521000  0.51136197  1
  O  O230  1  0.74360716  0.42433694  0.02546798  1
  O  O231  1  0.74239306  0.42432846  0.52305611  1
  O  O232  1  0.72761687  0.75861706  0.02486770  1
  O  O233  1  0.73245121  0.75369156  0.51653719  1
  O  O234  1  0.08611913  0.26281158  0.01940928  1
  O  O235  1  0.09377963  0.26012177  0.51824651  1
  O  O236  1  0.10192476  0.59644815  0.02892509  1
  O  O237  1  0.10399896  0.59575230  0.50512366  1
  O  O238  1  0.10657812  0.92992244  0.02660072  1
  O  O239  1  0.10997280  0.93505105  0.52851896  1
  O  O240  1  0.43039309  0.26287766  0.01352153  1
  O  O241  1  0.43976307  0.26285983  0.52562761  1
  O  O242  1  0.41894576  0.58587573  0.03005445  1
  O  O243  1  0.42850819  0.59163658  0.51272355  1
  O  O244  1  0.43094367  0.92966318  0.02791529  1
  O  O245  1  0.42946699  0.93173891  0.52790957  1
  O  O246  1  0.76184248  0.26573740  0.02574357  1
  O  O247  1  0.76384896  0.26177438  0.52984851  1
  O  O248  1  0.75574256  0.59498829  0.01866912  1
  O  O249  1  0.75094002  0.59353811  0.51187117  1
  O  O250  1  0.74761593  0.91996659  0.02491907  1
  O  O251  1  0.74998239  0.92628016  0.51432462  1
  O  O252  1  0.24128511  0.07343744  0.26653727  1
  O  O253  1  0.24351981  0.07512455  0.77717886  1
  O  O254  1  0.24717658  0.41474618  0.26261964  1
  O  O255  1  0.24977134  0.40520124  0.77029346  1
  O  O256  1  0.23087408  0.73822878  0.27738270  1
  O  O257  1  0.24521607  0.73880351  0.77547320  1
  O  O258  1  0.55861902  0.06171117  0.26960297  1
  O  O259  1  0.55637434  0.06451358  0.76771464  1
  O  O260  1  0.57846448  0.42057260  0.27417549  1
  O  O261  1  0.57097622  0.40693615  0.75718733  1
  O  O262  1  0.55633101  0.74050957  0.27604012  1
  O  O263  1  0.55619453  0.74440673  0.77787000  1
  O  O264  1  0.90499949  0.07374780  0.26044750  1
  O  O265  1  0.90914461  0.07943512  0.77593828  1
  O  O266  1  0.90247377  0.40271409  0.26771276  1
  O  O267  1  0.91446964  0.40893173  0.77734568  1
  O  O268  1  0.90261694  0.73726475  0.27476347  1
  O  O269  1  0.91208703  0.73820226  0.76456459  1
  O  O270  1  0.26050589  0.23375825  0.26986184  1
  O  O271  1  0.26809333  0.23372074  0.77681176  1
  O  O272  1  0.25947611  0.57763234  0.28372970  1
  O  O273  1  0.27276225  0.56969668  0.77827088  1
  O  O274  1  0.26635977  0.89659568  0.26892725  1
  O  O275  1  0.27657374  0.89873279  0.77496241  1
  O  O276  1  0.59652087  0.23850648  0.25453753  1
  O  O277  1  0.58597299  0.22936443  0.76083407  1
  O  O278  1  0.58829462  0.57481435  0.28097367  1
  O  O279  1  0.58064032  0.58303051  0.77318192  1
  O  O280  1  0.58260066  0.90145306  0.26701340  1
  O  O281  1  0.58374698  0.91177397  0.77534091  1
  O  O282  1  0.92691092  0.24839124  0.26133778  1
  O  O283  1  0.93025747  0.22932818  0.77627388  1
  O  O284  1  0.92446060  0.58238596  0.27379130  1
  O  O285  1  0.93878215  0.56322254  0.77265068  1
  O  O286  1  0.93307663  0.88989636  0.26296957  1
  O  O287  1  0.93178474  0.90522204  0.76172558  1
  O  O288  1  0.27095406  0.23455042  0.47092290  1
  O  O289  1  0.26886206  0.24047211  0.97185449  1
  O  O290  1  0.26526966  0.56784835  0.47484053  1
  O  O291  1  0.26759581  0.56458937  0.97482310  1
  O  O292  1  0.27123364  0.89528594  0.47409359  1
  O  O293  1  0.27813141  0.90025838  0.98196696  1
  O  O294  1  0.58754632  0.23281588  0.47872522  1
  O  O295  1  0.59787463  0.23580201  0.99114962  1
  O  O296  1  0.59194129  0.57179239  0.46663428  1
  O  O297  1  0.58354002  0.57703447  0.97921078  1
  O  O298  1  0.58606293  0.91325941  0.48212440  1
  O  O299  1  0.58098358  0.90346702  0.98101895  1
  O  O300  1  0.92560241  0.24306332  0.48099798  1
  O  O301  1  0.93427905  0.23937766  0.97639751  1
  O  O302  1  0.91814414  0.58110314  0.46862040  1
  O  O303  1  0.93276878  0.56776315  0.98497421  1
  O  O304  1  0.93631690  0.89540576  0.48562621  1
  O  O305  1  0.93067395  0.90392395  0.99366486  1
  O  O306  1  0.24683316  0.07562404  0.47797169  1
  O  O307  1  0.24917693  0.07296747  0.98228367  1
  O  O308  1  0.24011140  0.41347146  0.48373528  1
  O  O309  1  0.24455709  0.41002460  0.97242353  1
  O  O310  1  0.23239504  0.73379659  0.46749297  1
  O  O311  1  0.24708477  0.73521289  0.98363455  1
  O  O312  1  0.56273164  0.06630611  0.47918453  1
  O  O313  1  0.55921696  0.06889722  0.97768782  1
  O  O314  1  0.57254669  0.41760799  0.47667212  1
  O  O315  1  0.57379314  0.41285244  0.98129696  1
  O  O316  1  0.56642737  0.73257375  0.47486976  1
  O  O317  1  0.56175100  0.73456701  0.98014100  1
  O  O318  1  0.90795244  0.07256281  0.48657294  1
  O  O319  1  0.90794752  0.08484770  0.97684455  1
  O  O320  1  0.90184808  0.40040967  0.47096519  1
  O  O321  1  0.90635838  0.40929454  0.98590827  1
  O  O322  1  0.90320375  0.73731032  0.46275107  1
  O  O323  1  0.91269054  0.73317703  0.99265463  1
  O  O324  1  0.08937399  0.25629257  0.21872176  1
  O  O325  1  0.09524394  0.25114556  0.72803021  1
  O  O326  1  0.09929887  0.60767609  0.23194241  1
  O  O327  1  0.09829013  0.59217642  0.73387480  1
  O  O328  1  0.10792856  0.92432729  0.21695005  1
  O  O329  1  0.11408156  0.92756862  0.72851952  1
  O  O330  1  0.42527915  0.25697618  0.23339061  1
  O  O331  1  0.43349103  0.26368076  0.72843665  1
  O  O332  1  0.42472812  0.58823673  0.23323461  1
  O  O333  1  0.41971369  0.59321230  0.73847467  1
  O  O334  1  0.42693204  0.93006411  0.21319133  1
  O  O335  1  0.42800635  0.93599026  0.72795574  1
  O  O336  1  0.76342730  0.26495469  0.21415177  1
  O  O337  1  0.76815779  0.25359353  0.72781405  1
  O  O338  1  0.76072649  0.59185822  0.24058361  1
  O  O339  1  0.75468028  0.58607903  0.73887094  1
  O  O340  1  0.75982386  0.91992516  0.22525976  1
  O  O341  1  0.74856562  0.93041726  0.73544021  1
  O  O342  1  0.07687819  0.09612446  0.21914147  1
  O  O343  1  0.07834343  0.09822679  0.72251756  1
  O  O344  1  0.07390790  0.42131661  0.23295036  1
  O  O345  1  0.07693272  0.42588023  0.72772233  1
  O  O346  1  0.07242391  0.76632713  0.21668606  1
  O  O347  1  0.08064629  0.77192153  0.72814009  1
  O  O348  1  0.40213458  0.08607580  0.22110574  1
  O  O349  1  0.39830503  0.09705777  0.73987669  1
  O  O350  1  0.40836666  0.43540617  0.22797439  1
  O  O351  1  0.40121717  0.42592113  0.72822272  1
  O  O352  1  0.39771637  0.77210322  0.22326591  1
  O  O353  1  0.39443523  0.77027327  0.73623058  1
  O  O354  1  0.72806263  0.09991802  0.21677729  1
  O  O355  1  0.73817157  0.09098801  0.73295832  1
  O  O356  1  0.74911298  0.42928099  0.23187126  1
  O  O357  1  0.75135894  0.41134300  0.72340759  1
  O  O358  1  0.73499048  0.76850854  0.22813415  1
  O  O359  1  0.73541952  0.75948520  0.73510743  1
