# generated using pymatgen
data_BaLaInIrO6
_symmetry_space_group_name_H-M   'P 1'
_cell_length_a   17.55083889
_cell_length_b   17.57128568
_cell_length_c   16.49907542
_cell_angle_alpha   89.96543387
_cell_angle_beta   90.02241596
_cell_angle_gamma   89.99850682
_symmetry_Int_Tables_number   1
_chemical_formula_structural   BaLaInIrO6
_chemical_formula_sum   'Ba36 La36 In36 Ir36 O216'
_cell_volume   5088.16181895
_cell_formula_units_Z   36
loop_
 _symmetry_equiv_pos_site_id
 _symmetry_equiv_pos_as_xyz
  1  'x, y, z'
loop_
 _atom_site_type_symbol
 _atom_site_label
 _atom_site_symmetry_multiplicity
 _atom_site_fract_x
 _atom_site_fract_y
 _atom_site_fract_z
 _atom_site_occupancy
  Ba  Ba0  1  0.17049924  0.32514545  0.37531503  1
  Ba  Ba1  1  0.33363088  0.82760395  0.37159603  1
  Ba  Ba2  1  0.33258113  0.48653125  0.87658430  1
  Ba  Ba3  1  0.50035051  0.32311349  0.87233362  1
  Ba  Ba4  1  0.33282073  0.84158027  0.62115675  1
  Ba  Ba5  1  0.33491098  0.50701435  0.62360382  1
  Ba  Ba6  1  0.33131481  0.15726812  0.37785868  1
  Ba  Ba7  1  0.49945836  0.00416341  0.13025952  1
  Ba  Ba8  1  0.82954317  0.00981142  0.12469029  1
  Ba  Ba9  1  1.00250764  0.17732909  0.62137464  1
  Ba  Ba10  1  0.49550429  0.99436641  0.37752156  1
  Ba  Ba11  1  0.83570681  0.65801113  0.87448821  1
  Ba  Ba12  1  0.49551420  0.67534264  0.12034258  1
  Ba  Ba13  1  0.66447099  0.49234748  0.87444039  1
  Ba  Ba14  1  0.99859304  0.84324623  0.62947706  1
  Ba  Ba15  1  0.16197131  0.00702403  0.62265238  1
  Ba  Ba16  1  1.00461836  0.17655843  0.12653390  1
  Ba  Ba17  1  0.33345735  0.17420486  0.62524730  1
  Ba  Ba18  1  0.00082259  0.48401079  0.37079029  1
  Ba  Ba19  1  -0.00103755  0.49100532  0.87741456  1
  Ba  Ba20  1  0.49723245  0.32738868  0.37356586  1
  Ba  Ba21  1  0.83426798  0.01711674  0.62918562  1
  Ba  Ba22  1  0.33092977  0.50720727  0.12696826  1
  Ba  Ba23  1  0.83332668  0.99154580  0.87693830  1
  Ba  Ba24  1  0.16355260  0.00871626  0.12629617  1
  Ba  Ba25  1  0.50025891  0.34447852  0.62345948  1
  Ba  Ba26  1  0.49806110  0.66065966  0.37109460  1
  Ba  Ba27  1  -0.00000180  0.15867336  0.37616005  1
  Ba  Ba28  1  0.83684915  0.34247326  0.62438646  1
  Ba  Ba29  1  0.33365999  0.49548581  0.37340308  1
  Ba  Ba30  1  0.67154058  0.50621581  0.62497695  1
  Ba  Ba31  1  0.16294334  0.33941525  0.12917543  1
  Ba  Ba32  1  0.66068691  0.82481737  0.37402024  1
  Ba  Ba33  1  1.00535098  0.50848377  0.62338457  1
  Ba  Ba34  1  0.16381858  0.67092537  0.12707274  1
  Ba  Ba35  1  0.33221224  0.17029326  0.12802285  1
  La  La36  1  0.83707960  0.65108735  0.37265839  1
  La  La37  1  0.16141340  0.68243643  0.61882161  1
  La  La38  1  1.00763296  0.51191958  0.12624195  1
  La  La39  1  0.33096842  0.15280276  0.87627980  1
  La  La40  1  0.33650722  0.84602552  0.12339727  1
  La  La41  1  -0.00342917  0.15172889  0.87475712  1
  La  La42  1  0.84064729  0.32241077  0.86793181  1
  La  La43  1  0.83347984  0.34852352  0.12978750  1
  La  La44  1  -0.00348926  0.82490541  0.87820772  1
  La  La45  1  0.17388351  0.64831098  0.87205805  1
  La  La46  1  0.66928968  0.15970179  0.86954584  1
  La  La47  1  0.83094209  0.68132757  0.11937807  1
  La  La48  1  0.67052834  0.18362576  0.62413224  1
  La  La49  1  0.16771341  0.98558947  0.87667202  1
  La  La50  1  -0.00388024  0.82688450  0.37906651  1
  La  La51  1  0.67077502  0.85170933  0.62651913  1
  La  La52  1  0.17524161  0.65366151  0.37591659  1
  La  La53  1  0.83425689  0.98729481  0.37988415  1
  La  La54  1  0.49064155  0.01449910  0.62376871  1
  La  La55  1  0.50211037  0.98676007  0.87316423  1
  La  La56  1  0.50648706  0.65390339  0.87404466  1
  La  La57  1  0.49180489  0.34469883  0.12098741  1
  La  La58  1  0.66159103  0.48421307  0.37571049  1
  La  La59  1  0.66996685  0.17861522  0.12508790  1
  La  La60  1  0.16173135  0.34734900  0.61910029  1
  La  La61  1  0.66216899  0.81925982  0.87695812  1
  La  La62  1  0.84044607  0.31537226  0.37718072  1
  La  La63  1  1.00431428  0.84915205  0.12373244  1
  La  La64  1  0.67103955  0.51760474  0.12752455  1
  La  La65  1  0.83653351  0.66556737  0.61624933  1
  La  La66  1  0.33039623  0.81418199  0.87690623  1
  La  La67  1  0.16913407  0.98999607  0.37642164  1
  La  La68  1  0.66646032  0.84933956  0.12912812  1
  La  La69  1  0.50203805  0.66860627  0.61604248  1
  La  La70  1  0.17370561  0.31638400  0.87000219  1
  La  La71  1  0.65781093  0.15240479  0.37771241  1
  In  In72  1  0.83588196  0.49808388  0.49350754  1
  In  In73  1  0.50104045  0.16875222  0.50271141  1
  In  In74  1  0.66816522  0.33310984  0.00292988  1
  In  In75  1  0.33200224  0.32736803  -0.00111816  1
  In  In76  1  0.50299738  0.16552179  0.24806445  1
  In  In77  1  -0.00128247  0.66902595  0.25349693  1
  In  In78  1  0.00130752  0.66871450  0.00145822  1
  In  In79  1  0.66878650  0.00103274  0.25260695  1
  In  In80  1  0.33303354  -0.00200739  0.75123809  1
  In  In81  1  0.16474824  0.16295437  -0.00089416  1
  In  In82  1  0.16468542  0.49406738  -0.00150968  1
  In  In83  1  0.49899728  0.83218052  0.74926339  1
  In  In84  1  0.50120978  0.49975180  -0.00028132  1
  In  In85  1  0.33398719  0.33278053  0.24817223  1
  In  In86  1  0.49943083  0.82984048  0.24803415  1
  In  In87  1  0.50425814  0.50258513  0.24855279  1
  In  In88  1  0.16693150  0.83318095  0.75134032  1
  In  In89  1  0.50258714  0.83311531  0.50299156  1
  In  In90  1  0.66877069  0.33406342  0.75200016  1
  In  In91  1  0.83426276  0.49887416  0.00238306  1
  In  In92  1  -0.00120960  0.00134807  0.50064321  1
  In  In93  1  0.16735908  0.83148746  0.00222663  1
  In  In94  1  0.83673510  0.50219102  0.74962728  1
  In  In95  1  0.33371949  0.33517908  0.50220281  1
  In  In96  1  0.33186105  0.66747538  0.50186566  1
  In  In97  1  0.83350232  0.83187089  0.25240565  1
  In  In98  1  0.66396320  0.00202793  -0.00352918  1
  In  In99  1  0.66831245  0.33150158  0.24983753  1
  In  In100  1  0.66659032  0.67141153  0.74610975  1
  In  In101  1  0.00575737  0.33106098  0.75113821  1
  In  In102  1  0.49824453  0.50091713  0.74832188  1
  In  In103  1  0.83442122  0.17046157  0.00371439  1
  In  In104  1  0.83017329  0.82993250  0.50191171  1
  In  In105  1  -0.00186270  0.00131232  0.25243655  1
  In  In106  1  0.83131621  0.83427719  0.75262427  1
  In  In107  1  0.00468011  0.66825138  0.75041539  1
  Ir  Ir108  1  0.83413730  0.50024071  0.24859198  1
  Ir  Ir109  1  0.32577351  -0.00272845  0.24973213  1
  Ir  Ir110  1  0.66265876  0.00478208  0.74941670  1
  Ir  Ir111  1  0.83215972  0.16608073  0.74826423  1
  Ir  Ir112  1  0.00359388  0.66870283  0.49451133  1
  Ir  Ir113  1  0.66764643  0.00299736  0.50829527  1
  Ir  Ir114  1  0.32864951  -0.00155551  0.49981321  1
  Ir  Ir115  1  0.00119772  0.33041623  0.49564796  1
  Ir  Ir116  1  0.00263830  0.00564872  0.75493450  1
  Ir  Ir117  1  0.49936644  0.16376385  0.75332036  1
  Ir  Ir118  1  0.66633932  0.67359857  0.00525652  1
  Ir  Ir119  1  0.67183376  0.33294332  0.49730278  1
  Ir  Ir120  1  0.67374856  0.66599632  0.24703544  1
  Ir  Ir121  1  0.83073928  0.16909818  0.25282987  1
  Ir  Ir122  1  0.33048748  0.32715457  0.74965032  1
  Ir  Ir123  1  0.33367593  0.66875470  -0.00227892  1
  Ir  Ir124  1  0.50681663  0.50212353  0.49809047  1
  Ir  Ir125  1  0.16501566  0.16572359  0.74966491  1
  Ir  Ir126  1  0.82666545  0.16821746  0.49910180  1
  Ir  Ir127  1  0.50082199  0.16057669  -0.00435377  1
  Ir  Ir128  1  0.16451209  0.83370984  0.24941025  1
  Ir  Ir129  1  -0.00069127  0.33059077  -0.00025933  1
  Ir  Ir130  1  0.49682620  0.83387868  -0.00390028  1
  Ir  Ir131  1  0.16475576  0.50119683  0.49967330  1
  Ir  Ir132  1  -0.00580841  0.33072051  0.25049907  1
  Ir  Ir133  1  -0.00118992  -0.00073775  -0.00234715  1
  Ir  Ir134  1  0.33746649  -0.00202720  -0.00194564  1
  Ir  Ir135  1  0.16235634  0.50088542  0.25142348  1
  Ir  Ir136  1  0.17280049  0.49961764  0.74535859  1
  Ir  Ir137  1  0.16434173  0.16541609  0.25426784  1
  Ir  Ir138  1  0.66782334  0.66660821  0.49559498  1
  Ir  Ir139  1  0.32706494  0.66934114  0.24491934  1
  Ir  Ir140  1  0.16656395  0.16548990  0.50146611  1
  Ir  Ir141  1  0.16250434  0.83278865  0.49499535  1
  Ir  Ir142  1  0.33184974  0.66710295  0.75169636  1
  Ir  Ir143  1  0.83252773  0.83376447  0.00149384  1
  O  O144  1  0.31215390  0.32574964  0.12338984  1
  O  O145  1  0.30090636  0.33249614  0.63113393  1
  O  O146  1  0.30882613  0.67266108  0.12009384  1
  O  O147  1  0.29825077  0.66813922  0.63252399  1
  O  O148  1  0.30889801  0.98509411  0.12324220  1
  O  O149  1  0.31175402  0.99906700  0.62107085  1
  O  O150  1  0.62752776  0.31292655  0.12598377  1
  O  O151  1  0.64983927  0.32214056  0.61831074  1
  O  O152  1  0.64455014  0.65622048  0.12725290  1
  O  O153  1  0.63739914  0.66000311  0.61445782  1
  O  O154  1  0.65137733  0.98958897  0.12152659  1
  O  O155  1  0.62989960  0.99112719  0.62908999  1
  O  O156  1  0.96709567  0.32817011  0.12529559  1
  O  O157  1  0.98923358  0.33429555  0.61742585  1
  O  O158  1  0.96722683  0.65779311  0.12932089  1
  O  O159  1  0.97285208  0.66515907  0.61415866  1
  O  O160  1  0.97872590  0.98843581  0.12041529  1
  O  O161  1  0.98523428  1.00190861  0.63288342  1
  O  O162  1  0.17942052  0.16439085  0.13172568  1
  O  O163  1  0.18650215  0.15913477  0.62586221  1
  O  O164  1  0.17821369  0.49900341  0.13093858  1
  O  O165  1  0.18731645  0.48467313  0.62294927  1
  O  O166  1  0.19998199  0.83185349  0.13065841  1
  O  O167  1  0.18596871  0.82787312  0.61674193  1
  O  O168  1  0.53478580  0.15458525  0.11409096  1
  O  O169  1  0.53131954  0.15354320  0.63268661  1
  O  O170  1  0.53607693  0.49565120  0.12399657  1
  O  O171  1  0.52019139  0.50977890  0.61773077  1
  O  O172  1  0.52898407  0.83034134  0.11505312  1
  O  O173  1  0.53633472  0.81406884  0.62759848  1
  O  O174  1  0.85709054  0.16230662  0.13510606  1
  O  O175  1  0.85512077  0.16777337  0.62260083  1
  O  O176  1  0.87232211  0.48902188  0.13229457  1
  O  O177  1  0.85331454  0.51056050  0.61789756  1
  O  O178  1  0.86753592  0.82375580  0.12202021  1
  O  O179  1  0.84968551  0.80981106  0.62667133  1
  O  O180  1  0.14616799  0.16613888  0.37915478  1
  O  O181  1  0.13559008  0.17680605  0.86796070  1
  O  O182  1  0.14490094  0.51719290  0.37827651  1
  O  O183  1  0.15214902  0.51125498  0.86526871  1
  O  O184  1  0.13166095  0.84122226  0.37134473  1
  O  O185  1  0.13425827  0.84551892  0.87736194  1
  O  O186  1  0.48561153  0.16731901  0.37682290  1
  O  O187  1  0.46619817  0.16678677  0.87447254  1
  O  O188  1  0.48861753  0.50336817  0.37931220  1
  O  O189  1  0.48030009  0.51730868  0.87427266  1
  O  O190  1  0.48635897  0.83259158  0.37569324  1
  O  O191  1  0.46416504  0.84689768  0.87828942  1
  O  O192  1  0.79564475  0.17695426  0.37532116  1
  O  O193  1  0.80585862  0.17687333  0.87011016  1
  O  O194  1  0.79916917  0.51119731  0.36743062  1
  O  O195  1  0.81314653  0.49948398  0.87755770  1
  O  O196  1  0.80695934  0.84944462  0.37876836  1
  O  O197  1  0.79976176  0.83673314  0.88220194  1
  O  O198  1  0.03095085  -0.00150853  0.37606638  1
  O  O199  1  0.03101847  0.01150872  0.87660108  1
  O  O200  1  0.01984634  0.32817397  0.37278426  1
  O  O201  1  0.03470451  0.33587885  0.88171489  1
  O  O202  1  0.03871084  0.68267310  0.37793135  1
  O  O203  1  0.04035353  0.68544170  0.87686753  1
  O  O204  1  0.34684987  -0.00201461  0.37357324  1
  O  O205  1  0.36645827  0.01029326  0.87928925  1
  O  O206  1  0.34471863  0.33521192  0.37498157  1
  O  O207  1  0.34909898  0.32136824  0.86793643  1
  O  O208  1  0.34245484  0.66820776  0.36696890  1
  O  O209  1  0.36619204  0.67292325  0.87550779  1
  O  O210  1  0.70037956  0.01231388  0.38755952  1
  O  O211  1  0.68658848  0.02029740  0.86824024  1
  O  O212  1  0.70276776  0.34167616  0.37804728  1
  O  O213  1  0.70418014  0.32311728  0.87773628  1
  O  O214  1  0.70272473  0.67358659  0.37090922  1
  O  O215  1  0.68832902  0.68246213  0.88620038  1
  O  O216  1  0.06779297  0.09140724  0.00876203  1
  O  O217  1  0.07674398  0.09543238  0.51377706  1
  O  O218  1  0.05956600  0.42589911  0.02611856  1
  O  O219  1  0.07659966  0.42156550  0.51737120  1
  O  O220  1  0.06744936  0.76833383  0.03087404  1
  O  O221  1  0.07332535  0.75933510  0.52175901  1
  O  O222  1  0.40207856  0.09572154  0.01434042  1
  O  O223  1  0.40904203  0.08121444  0.52038431  1
  O  O224  1  0.41122436  0.41845913  0.01861888  1
  O  O225  1  0.41601578  0.43179965  0.51347622  1
  O  O226  1  0.39769427  0.76943758  0.01658341  1
  O  O227  1  0.41427431  0.75048931  0.52654571  1
  O  O228  1  0.73162435  0.10312142  0.01364591  1
  O  O229  1  0.73182539  0.10166370  0.52754309  1
  O  O230  1  0.74007013  0.43079749  0.03970086  1
  O  O231  1  0.73765637  0.42529416  0.51035243  1
  O  O232  1  0.73727653  0.76713722  0.03104704  1
  O  O233  1  0.72889341  0.75983051  0.52648725  1
  O  O234  1  0.09055308  0.26363696  0.01319816  1
  O  O235  1  0.09956412  0.26257501  0.52134331  1
  O  O236  1  0.09031334  0.58655840  0.01572251  1
  O  O237  1  0.09868461  0.60130499  0.51965300  1
  O  O238  1  0.08888404  0.92946650  0.01411786  1
  O  O239  1  0.09158464  0.91914252  0.51214830  1
  O  O240  1  0.43923891  0.25433076  0.02002098  1
  O  O241  1  0.42508719  0.25842446  0.52086454  1
  O  O242  1  0.42069539  0.59697694  0.01463637  1
  O  O243  1  0.43505876  0.59314181  0.51539792  1
  O  O244  1  0.42660281  0.92442756  0.02349422  1
  O  O245  1  0.42474020  0.92983850  0.52387711  1
  O  O246  1  0.76397751  0.26362921  0.03844872  1
  O  O247  1  0.76037117  0.26157047  0.52120683  1
  O  O248  1  0.75701529  0.60260869  0.03096619  1
  O  O249  1  0.76586325  0.60643800  0.50923433  1
  O  O250  1  0.75759222  0.91810091  0.01950087  1
  O  O251  1  0.75448829  0.93049586  0.52868464  1
  O  O252  1  0.23170480  0.06980246  0.27426958  1
  O  O253  1  0.23280019  0.07205334  0.78043392  1
  O  O254  1  0.23891975  0.41819956  0.26443787  1
  O  O255  1  0.23481889  0.39489866  0.77022256  1
  O  O256  1  0.23165738  0.73966009  0.27280428  1
  O  O257  1  0.24102293  0.73423567  0.78253789  1
  O  O258  1  0.57755384  0.07312792  0.27418059  1
  O  O259  1  0.56412057  0.06820911  0.77536344  1
  O  O260  1  0.58512873  0.41291360  0.27605609  1
  O  O261  1  0.57434886  0.40760980  0.76181397  1
  O  O262  1  0.58193541  0.73305039  0.26026016  1
  O  O263  1  0.56954180  0.74226756  0.78690196  1
  O  O264  1  0.89196846  0.07072016  0.27770283  1
  O  O265  1  0.91032323  0.07821858  0.77599574  1
  O  O266  1  0.89479649  0.39834777  0.27154192  1
  O  O267  1  0.90961264  0.39944845  0.77184070  1
  O  O268  1  0.90500453  0.73881430  0.28594071  1
  O  O269  1  0.91866835  0.75364046  0.77930043  1
  O  O270  1  0.25229879  0.23582883  0.26536338  1
  O  O271  1  0.26158558  0.22952346  0.77428363  1
  O  O272  1  0.24873654  0.58026040  0.27236672  1
  O  O273  1  0.26530205  0.57352509  0.77036390  1
  O  O274  1  0.24777857  0.91112914  0.27556559  1
  O  O275  1  0.26304341  0.90302925  0.78241309  1
  O  O276  1  0.60996082  0.22786828  0.27097346  1
  O  O277  1  0.59509195  0.22856919  0.76920588  1
  O  O278  1  0.61144149  0.57133413  0.26882033  1
  O  O279  1  0.58837483  0.58360061  0.76890764  1
  O  O280  1  0.59423575  0.90318210  0.25329261  1
  O  O281  1  0.59861430  0.91088219  0.77832469  1
  O  O282  1  0.92126657  0.24069062  0.27670941  1
  O  O283  1  0.92570723  0.23450219  0.77540537  1
  O  O284  1  0.91910673  0.57232326  0.27562434  1
  O  O285  1  0.93410173  0.57495662  0.76529560  1
  O  O286  1  0.93199426  0.90217049  0.27628554  1
  O  O287  1  0.93485019  0.91269229  0.77585138  1
  O  O288  1  0.25375885  0.23674999  0.49135794  1
  O  O289  1  0.26082636  0.22979226  0.97080292  1
  O  O290  1  0.25240341  0.57593928  0.48478964  1
  O  O291  1  0.25967176  0.58088954  0.97996234  1
  O  O292  1  0.24916684  0.90954361  0.47201500  1
  O  O293  1  0.26820147  0.90518803  0.97477033  1
  O  O294  1  0.60704965  0.23781363  0.48255970  1
  O  O295  1  0.59679288  0.22119586  0.97389338  1
  O  O296  1  0.60467989  0.56888595  0.47312954  1
  O  O297  1  0.59504733  0.58625439  0.98327147  1
  O  O298  1  0.60059691  0.91105542  0.49278887  1
  O  O299  1  0.58965641  0.90163044  0.97031965  1
  O  O300  1  0.92025325  0.24260474  0.47476051  1
  O  O301  1  0.93247683  0.23910135  0.96766715  1
  O  O302  1  0.92967102  0.58290841  0.46920161  1
  O  O303  1  0.92481773  0.57578789  0.98847495  1
  O  O304  1  0.92475336  0.90695226  0.47733200  1
  O  O305  1  0.93064410  0.90020306  0.97804346  1
  O  O306  1  0.23257414  0.06836901  0.47707909  1
  O  O307  1  0.24312600  0.06489093  0.97173501  1
  O  O308  1  0.23501916  0.41149981  0.49032328  1
  O  O309  1  0.23071349  0.39727583  0.97368731  1
  O  O310  1  0.23107588  0.73998384  0.47947734  1
  O  O311  1  0.24214538  0.73760199  0.96817391  1
  O  O312  1  0.58055903  0.07325563  0.48687540  1
  O  O313  1  0.55958282  0.06580152  0.97092900  1
  O  O314  1  0.58154845  0.40819831  0.47542112  1
  O  O315  1  0.57594647  0.40522172  0.97996401  1
  O  O316  1  0.57568991  0.72972761  0.48279205  1
  O  O317  1  0.56897496  0.74288378  0.97186014  1
  O  O318  1  0.89301848  0.07313410  0.47705747  1
  O  O319  1  0.91153541  0.07440246  0.98076433  1
  O  O320  1  0.90739739  0.39900544  0.47325553  1
  O  O321  1  0.90245212  0.39004237  0.98140294  1
  O  O322  1  0.91023440  0.73545043  0.46981659  1
  O  O323  1  0.90560587  0.74883996  0.97967507  1
  O  O324  1  0.09085598  0.25977270  0.23654337  1
  O  O325  1  0.10666029  0.26428084  0.72835768  1
  O  O326  1  0.08477078  0.58435846  0.23445040  1
  O  O327  1  0.11220202  0.59641423  0.72566875  1
  O  O328  1  0.09220941  0.91925197  0.22689795  1
  O  O329  1  0.09508419  0.93724662  0.74479430  1
  O  O330  1  0.43609655  0.26122151  0.22169932  1
  O  O331  1  0.42791065  0.25779840  0.72918768  1
  O  O332  1  0.41674076  0.59591319  0.23267661  1
  O  O333  1  0.42635235  0.60560983  0.72401554  1
  O  O334  1  0.40918955  0.91819188  0.23000679  1
  O  O335  1  0.43587527  0.93379406  0.72599281  1
  O  O336  1  0.77210949  0.26603050  0.22819367  1
  O  O337  1  0.76039130  0.25144562  0.72714066  1
  O  O338  1  0.77186628  0.59941846  0.22159982  1
  O  O339  1  0.76877345  0.60927605  0.72572662  1
  O  O340  1  0.75975638  0.92495851  0.23341341  1
  O  O341  1  0.75287441  0.93527026  0.72940783  1
  O  O342  1  0.07557308  0.09465975  0.23834564  1
  O  O343  1  0.06668552  0.10411996  0.74063431  1
  O  O344  1  0.06468110  0.42804108  0.22727369  1
  O  O345  1  0.08495939  0.42705665  0.73145186  1
  O  O346  1  0.07185189  0.76820732  0.22560750  1
  O  O347  1  0.08422841  0.75341728  0.71866621  1
  O  O348  1  0.40191335  0.08150818  0.23591161  1
  O  O349  1  0.40998273  0.09398701  0.73410313  1
  O  O350  1  0.41820808  0.42136445  0.22563823  1
  O  O351  1  0.39998787  0.41935119  0.73573010  1
  O  O352  1  0.39792776  0.75960501  0.22343047  1
  O  O353  1  0.39506835  0.76173866  0.74077562  1
  O  O354  1  0.73671767  0.10681608  0.23025612  1
  O  O355  1  0.72903752  0.10151958  0.72626123  1
  O  O356  1  0.74312781  0.43391976  0.22026885  1
  O  O357  1  0.74557122  0.42422066  0.73363437  1
  O  O358  1  0.73985924  0.75711267  0.21521615  1
  O  O359  1  0.72268212  0.77831012  0.73945390  1
