# generated using pymatgen
data_BaLaInIrO6
_symmetry_space_group_name_H-M   'P 1'
_cell_length_a   17.51209749
_cell_length_b   17.53214138
_cell_length_c   16.47952886
_cell_angle_alpha   89.91124492
_cell_angle_beta   90.00381439
_cell_angle_gamma   90.01594321
_symmetry_Int_Tables_number   1
_chemical_formula_structural   BaLaInIrO6
_chemical_formula_sum   'Ba36 La36 In36 Ir36 O216'
_cell_volume   5059.61396745
_cell_formula_units_Z   36
loop_
 _symmetry_equiv_pos_site_id
 _symmetry_equiv_pos_as_xyz
  1  'x, y, z'
loop_
 _atom_site_type_symbol
 _atom_site_label
 _atom_site_symmetry_multiplicity
 _atom_site_fract_x
 _atom_site_fract_y
 _atom_site_fract_z
 _atom_site_occupancy
  Ba  Ba0  1  0.83288487  0.67645607  0.62539287  1
  Ba  Ba1  1  0.83508970  0.99284391  0.37194698  1
  Ba  Ba2  1  0.33518050  0.84110442  0.62549203  1
  Ba  Ba3  1  0.82672376  0.33673925  0.62469150  1
  Ba  Ba4  1  0.33351983  0.81978945  0.37674654  1
  Ba  Ba5  1  0.49441055  0.34099621  0.62787629  1
  Ba  Ba6  1  0.82654721  0.32920805  0.87818390  1
  Ba  Ba7  1  0.00209641  0.15744241  0.37354407  1
  Ba  Ba8  1  0.50051967  0.99458164  0.87162843  1
  Ba  Ba9  1  1.00509696  0.84363158  0.62713939  1
  Ba  Ba10  1  0.66888858  0.49637095  0.37795970  1
  Ba  Ba11  1  0.66708669  0.51236135  0.12482460  1
  Ba  Ba12  1  0.16592015  0.32527266  0.37329562  1
  Ba  Ba13  1  1.00583037  0.51068633  0.12236426  1
  Ba  Ba14  1  0.50056872  0.67448516  0.12367829  1
  Ba  Ba15  1  0.16758880  0.65327224  0.87174250  1
  Ba  Ba16  1  0.66593300  0.50722001  0.62607516  1
  Ba  Ba17  1  0.16361656  0.34877195  0.12329043  1
  Ba  Ba18  1  0.66736318  0.82595563  0.37601007  1
  Ba  Ba19  1  0.83848190  0.65988601  0.87428583  1
  Ba  Ba20  1  0.16496391  0.68356988  0.62067655  1
  Ba  Ba21  1  0.16574768  0.00988112  0.62745233  1
  Ba  Ba22  1  0.66981078  0.84068811  0.62717005  1
  Ba  Ba23  1  0.83468590  0.66173116  0.37888425  1
  Ba  Ba24  1  0.66164733  0.17228591  0.62598761  1
  Ba  Ba25  1  0.50366442  0.99041616  0.37073954  1
  Ba  Ba26  1  0.66568236  0.16259590  0.87157250  1
  Ba  Ba27  1  1.00419303  0.84418694  0.12148666  1
  Ba  Ba28  1  0.83693086  0.01007688  0.12473897  1
  Ba  Ba29  1  0.32871639  0.51317661  0.12763276  1
  Ba  Ba30  1  0.49764205  0.66072952  0.87493055  1
  Ba  Ba31  1  0.66588926  0.49659945  0.87283839  1
  Ba  Ba32  1  0.33471748  0.17275804  0.62503060  1
  Ba  Ba33  1  0.49956141  0.67415016  0.62823898  1
  Ba  Ba34  1  1.00157796  0.17455963  0.12544233  1
  Ba  Ba35  1  0.16872500  0.65910728  0.37554620  1
  La  La36  1  0.83971367  0.99249262  0.87602941  1
  La  La37  1  0.16975596  0.98910161  0.37639306  1
  La  La38  1  0.49906263  0.31737666  0.37713837  1
  La  La39  1  0.16045722  0.34715227  0.62503938  1
  La  La40  1  0.32977206  0.81312841  0.87515386  1
  La  La41  1  0.82973590  0.34810377  0.12740156  1
  La  La42  1  0.00058319  0.81655165  0.87672985  1
  La  La43  1  -0.00180095  0.82142409  0.37662292  1
  La  La44  1  0.66692414  0.82128056  0.87448168  1
  La  La45  1  0.15947691  0.01483036  0.12449831  1
  La  La46  1  0.50431940  0.32011308  0.87628625  1
  La  La47  1  -0.00979358  0.48168899  0.37154327  1
  La  La48  1  0.33789812  0.84246068  0.12778493  1
  La  La49  1  0.16834802  0.31490701  0.87962441  1
  La  La50  1  0.83243417  0.00551323  0.62307501  1
  La  La51  1  -0.00504518  0.15031758  0.87870012  1
  La  La52  1  0.32926778  0.14827784  0.87298539  1
  La  La53  1  0.32308879  0.14723537  0.37584011  1
  La  La54  1  0.50779364  0.65560083  0.37717394  1
  La  La55  1  1.00768422  0.51753393  0.62285678  1
  La  La56  1  0.33842239  0.18526523  0.12219823  1
  La  La57  1  0.32891231  0.49022036  0.37631666  1
  La  La58  1  0.32385581  0.48293689  0.87542769  1
  La  La59  1  0.66837946  0.15980114  0.38007305  1
  La  La60  1  0.99827646  0.17075067  0.62749426  1
  La  La61  1  0.83485223  0.31829241  0.37735762  1
  La  La62  1  0.17572812  0.98223196  0.87867742  1
  La  La63  1  0.33772299  0.51318417  0.62132806  1
  La  La64  1  -0.00635735  0.48619356  0.87700667  1
  La  La65  1  0.50308116  0.01325232  0.12622932  1
  La  La66  1  0.16336397  0.67724731  0.12134195  1
  La  La67  1  0.67058130  0.84104483  0.12013147  1
  La  La68  1  0.82963795  0.68424169  0.12313353  1
  La  La69  1  0.48996538  0.35421081  0.12333356  1
  La  La70  1  0.49845998  0.00197745  0.61456609  1
  La  La71  1  0.67019305  0.18103537  0.12815198  1
  In  In72  1  0.66234193  0.33389445  0.49852327  1
  In  In73  1  0.49942418  0.83805086  0.75179034  1
  In  In74  1  0.66826553  0.66750324  0.50234627  1
  In  In75  1  0.83741547  0.49819690  0.74935433  1
  In  In76  1  0.16923038  0.16777232  0.24707378  1
  In  In77  1  0.83794156  0.83741770  0.49988726  1
  In  In78  1  0.83461391  0.16281646  0.75107898  1
  In  In79  1  0.66190521  0.33623437  0.25210486  1
  In  In80  1  0.66081047  0.33794927  0.00549996  1
  In  In81  1  0.00197830  0.33076812  0.00040864  1
  In  In82  1  0.00440810  0.66504125  0.75023265  1
  In  In83  1  0.16663421  0.16645740  0.50296233  1
  In  In84  1  0.16301597  0.50355562  0.25311789  1
  In  In85  1  0.66532721  0.66486605  -0.00151365  1
  In  In86  1  0.66716201  0.66999244  0.24838923  1
  In  In87  1  0.33390987  0.33382212  0.25131319  1
  In  In88  1  0.49982178  0.83200249  0.49805516  1
  In  In89  1  0.66668234  0.00213260  -0.00348050  1
  In  In90  1  0.66738354  -0.00128411  0.24825103  1
  In  In91  1  0.66324834  0.33362409  0.75051898  1
  In  In92  1  0.00223098  -0.00036680  0.24981537  1
  In  In93  1  -0.00166184  0.32989062  0.50290976  1
  In  In94  1  0.83802950  0.83718421  0.75295039  1
  In  In95  1  0.49545047  0.16336813  0.74957974  1
  In  In96  1  0.49402828  0.49887518  0.75284574  1
  In  In97  1  0.49956012  0.83631048  -0.00066402  1
  In  In98  1  0.83551697  0.49821378  0.50140450  1
  In  In99  1  0.49796049  0.16614856  0.24994824  1
  In  In100  1  0.00238456  0.32888691  0.75261871  1
  In  In101  1  0.33104600  0.33158774  0.50180395  1
  In  In102  1  0.16825517  0.83633756  0.75006262  1
  In  In103  1  0.83428066  0.50494343  0.24700256  1
  In  In104  1  0.33302598  -0.00173753  0.00508174  1
  In  In105  1  0.33044543  0.66331857  0.74877071  1
  In  In106  1  0.16979799  0.83294779  0.24774344  1
  In  In107  1  0.83090783  0.16830864  0.00227982  1
  Ir  Ir108  1  0.16528181  0.50215376  -0.00542980  1
  Ir  Ir109  1  0.16585068  0.83829539  0.49617727  1
  Ir  Ir110  1  0.83823230  0.50275526  0.00220052  1
  Ir  Ir111  1  0.67102689  0.00027225  0.74802165  1
  Ir  Ir112  1  -0.00466392  0.33157347  0.25074980  1
  Ir  Ir113  1  0.33638577  0.66656172  0.25141536  1
  Ir  Ir114  1  0.32786222  0.66543678  0.00424346  1
  Ir  Ir115  1  0.32467706  0.33157278  0.75395609  1
  Ir  Ir116  1  0.66682367  0.00532938  0.50169325  1
  Ir  Ir117  1  0.33180966  0.00200140  0.74985382  1
  Ir  Ir118  1  0.00063348  0.66922937  0.24727873  1
  Ir  Ir119  1  0.49086134  0.50033499  0.49559962  1
  Ir  Ir120  1  0.33298767  -0.00127066  0.49736276  1
  Ir  Ir121  1  0.00573845  0.00270184  0.75527572  1
  Ir  Ir122  1  0.83431856  0.15900868  0.49790522  1
  Ir  Ir123  1  0.17048582  0.16413042  -0.00426762  1
  Ir  Ir124  1  0.49559554  0.16789647  0.00308292  1
  Ir  Ir125  1  0.00761766  0.66597212  0.49369788  1
  Ir  Ir126  1  0.16622096  0.16678973  0.75476998  1
  Ir  Ir127  1  0.33219328  0.66393235  0.49539296  1
  Ir  Ir128  1  0.00938413  -0.00184081  -0.00481641  1
  Ir  Ir129  1  0.83259789  0.16983184  0.24884682  1
  Ir  Ir130  1  0.49948245  0.83228480  0.24768462  1
  Ir  Ir131  1  0.33232620  -0.00327885  0.24843035  1
  Ir  Ir132  1  0.66805319  0.66894810  0.75279588  1
  Ir  Ir133  1  0.00215866  -0.00007308  0.50211756  1
  Ir  Ir134  1  0.49348392  0.50226965  0.25181645  1
  Ir  Ir135  1  0.33293712  0.33213399  -0.00488127  1
  Ir  Ir136  1  0.16698518  0.49378470  0.74796238  1
  Ir  Ir137  1  0.16499157  0.50095697  0.50171035  1
  Ir  Ir138  1  0.49568654  0.16256023  0.49659499  1
  Ir  Ir139  1  0.00177896  0.66772510  0.00398307  1
  Ir  Ir140  1  0.83837199  0.83809819  0.00081653  1
  Ir  Ir141  1  0.48755132  0.50076779  0.00216629  1
  Ir  Ir142  1  0.17045374  0.82998551  0.00092265  1
  Ir  Ir143  1  0.83759227  0.83360343  0.24580105  1
  O  O144  1  0.31118809  0.32243232  0.11680974  1
  O  O145  1  0.29543326  0.32631249  0.63296450  1
  O  O146  1  0.30075120  0.66589987  0.12821387  1
  O  O147  1  0.30998239  0.65283605  0.61587729  1
  O  O148  1  0.29626634  0.98396238  0.13073921  1
  O  O149  1  0.31200693  0.99702562  0.62231622  1
  O  O150  1  0.62536973  0.32119239  0.12821750  1
  O  O151  1  0.64265025  0.32718345  0.62255769  1
  O  O152  1  0.65171800  0.67959370  0.12297055  1
  O  O153  1  0.65057536  0.67367271  0.63413072  1
  O  O154  1  0.63788137  0.97947179  0.12281996  1
  O  O155  1  0.63699768  0.99629093  0.62512065  1
  O  O156  1  0.96912243  0.33140830  0.12904214  1
  O  O157  1  0.97857418  0.30904771  0.62794056  1
  O  O158  1  0.96870116  0.66344443  0.12610213  1
  O  O159  1  0.98849041  0.65777489  0.61600908  1
  O  O160  1  0.98837998  0.99704082  0.11540666  1
  O  O161  1  0.97334500  0.99897678  0.63079605  1
  O  O162  1  0.20437263  0.15469163  0.11618113  1
  O  O163  1  0.18640774  0.16379542  0.63519372  1
  O  O164  1  0.18021142  0.50518761  0.11795859  1
  O  O165  1  0.20142474  0.48843646  0.62571721  1
  O  O166  1  0.20119417  0.81941949  0.12045224  1
  O  O167  1  0.18252309  0.84096582  0.61807310  1
  O  O168  1  0.52887270  0.15800075  0.12081712  1
  O  O169  1  0.51166445  0.14881012  0.61877552  1
  O  O170  1  0.51742803  0.49082169  0.12781494  1
  O  O171  1  0.51017197  0.49480551  0.61589648  1
  O  O172  1  0.53029758  0.82928795  0.12896603  1
  O  O173  1  0.51647748  0.84467719  0.62497425  1
  O  O174  1  0.85474541  0.16671820  0.13083000  1
  O  O175  1  0.86338715  0.15069065  0.61902132  1
  O  O176  1  0.85873320  0.48910950  0.12033022  1
  O  O177  1  0.87479783  0.49380988  0.62444506  1
  O  O178  1  0.85893808  0.82395287  0.12341101  1
  O  O179  1  0.85488055  0.85167854  0.62658948  1
  O  O180  1  0.15393219  0.15991640  0.37446868  1
  O  O181  1  0.13417824  0.17345020  0.87521156  1
  O  O182  1  0.12931948  0.50254387  0.38259764  1
  O  O183  1  0.13348093  0.49926583  0.86911550  1
  O  O184  1  0.13850407  0.84365660  0.37526082  1
  O  O185  1  0.13825645  0.84282793  0.88295473  1
  O  O186  1  0.46105452  0.17278545  0.37663413  1
  O  O187  1  0.46486918  0.17483844  0.88335207  1
  O  O188  1  0.46277609  0.51493930  0.37273564  1
  O  O189  1  0.45866015  0.50478084  0.88333480  1
  O  O190  1  0.48075475  0.83633518  0.36690083  1
  O  O191  1  0.46020751  0.84436013  0.87626290  1
  O  O192  1  0.80445160  0.17244498  0.37256446  1
  O  O193  1  0.81706638  0.14776382  0.87780861  1
  O  O194  1  0.82291395  0.50570088  0.37264285  1
  O  O195  1  0.81905413  0.50511055  0.88421740  1
  O  O196  1  0.82223151  0.83431327  0.36609761  1
  O  O197  1  0.80830145  0.84943255  0.88154952  1
  O  O198  1  0.03063782  0.00362618  0.38101043  1
  O  O199  1  0.03993341  0.01425160  0.87488583  1
  O  O200  1  0.01767425  0.33530536  0.37114559  1
  O  O201  1  0.03648057  0.34439936  0.87621881  1
  O  O202  1  0.02280717  0.68545882  0.36907647  1
  O  O203  1  0.02069685  0.67611575  0.88437166  1
  O  O204  1  0.35712451  0.01185909  0.37297158  1
  O  O205  1  0.34866571  0.00782287  0.87260700  1
  O  O206  1  0.36504262  0.34894895  0.37645235  1
  O  O207  1  0.36287390  0.34340457  0.87367799  1
  O  O208  1  0.36800684  0.66607324  0.37288734  1
  O  O209  1  0.34601091  0.67327591  0.88353821  1
  O  O210  1  0.68456551  0.01772035  0.37847374  1
  O  O211  1  0.70202884  0.00876971  0.86776797  1
  O  O212  1  0.69777626  0.33259609  0.37464034  1
  O  O213  1  0.67314146  0.33538334  0.88128938  1
  O  O214  1  0.67880477  0.66197231  0.37284099  1
  O  O215  1  0.68715448  0.66848182  0.87246426  1
  O  O216  1  0.07963733  0.09221920  0.02074170  1
  O  O217  1  0.06417158  0.09592725  0.52567668  1
  O  O218  1  0.07591584  0.43206423  0.01035497  1
  O  O219  1  0.07335100  0.43218716  0.52848405  1
  O  O220  1  0.07757378  0.75755772  0.02572535  1
  O  O221  1  0.07322119  0.76700928  0.50930552  1
  O  O222  1  0.40088498  0.10148308  0.02635542  1
  O  O223  1  0.40878205  0.08500503  0.52119511  1
  O  O224  1  0.39717285  0.42634254  0.02213535  1
  O  O225  1  0.39571527  0.43596066  0.51781393  1
  O  O226  1  0.39157911  0.76359515  0.02036907  1
  O  O227  1  0.40199430  0.75263867  0.51531278  1
  O  O228  1  0.73033572  0.10027023  0.03077805  1
  O  O229  1  0.74098646  0.09193369  0.52029474  1
  O  O230  1  0.74831945  0.42965327  0.02118585  1
  O  O231  1  0.74087893  0.42240790  0.51670555  1
  O  O232  1  0.74669583  0.76797689  0.01935317  1
  O  O233  1  0.74720166  0.76135974  0.51206156  1
  O  O234  1  0.10441509  0.25745058  0.01385847  1
  O  O235  1  0.09996418  0.26567539  0.52309189  1
  O  O236  1  0.09917401  0.60001484  0.02133331  1
  O  O237  1  0.09770819  0.59160605  0.52097293  1
  O  O238  1  0.11108872  0.93280977  0.01776488  1
  O  O239  1  0.10138813  0.93686676  0.50935045  1
  O  O240  1  0.42849391  0.26519099  0.02589653  1
  O  O241  1  0.43102070  0.25618339  0.51400821  1
  O  O242  1  0.42027190  0.59762509  0.02004907  1
  O  O243  1  0.42288496  0.59346424  0.51822420  1
  O  O244  1  0.42885394  0.93088577  0.03606263  1
  O  O245  1  0.42476398  0.92973543  0.51468860  1
  O  O246  1  0.75754485  0.26457768  0.03325320  1
  O  O247  1  0.76276899  0.24753509  0.50640497  1
  O  O248  1  0.77069003  0.59719248  0.02245282  1
  O  O249  1  0.75855767  0.58999949  0.51988713  1
  O  O250  1  0.76667469  0.92485012  0.01906055  1
  O  O251  1  0.75950310  0.93794021  0.51876407  1
  O  O252  1  0.24143320  0.06290726  0.27305811  1
  O  O253  1  0.23252487  0.07000090  0.77997964  1
  O  O254  1  0.24243546  0.41312501  0.26817377  1
  O  O255  1  0.22963937  0.39703972  0.77829075  1
  O  O256  1  0.24558218  0.73537009  0.26391782  1
  O  O257  1  0.24520972  0.74545401  0.76782853  1
  O  O258  1  0.56754658  0.06798382  0.25265198  1
  O  O259  1  0.58025850  0.07055977  0.76048546  1
  O  O260  1  0.55685939  0.40590129  0.27418429  1
  O  O261  1  0.56074430  0.40516335  0.77659014  1
  O  O262  1  0.56222361  0.73839201  0.27244092  1
  O  O263  1  0.58457962  0.74807073  0.77495895  1
  O  O264  1  0.90665104  0.07988273  0.26544274  1
  O  O265  1  0.90953884  0.06155067  0.77206020  1
  O  O266  1  0.90420926  0.39957467  0.27231319  1
  O  O267  1  0.91627545  0.40776771  0.78187653  1
  O  O268  1  0.90499736  0.73701669  0.26190728  1
  O  O269  1  0.91553140  0.74725034  0.76868317  1
  O  O270  1  0.27373941  0.22847855  0.26501854  1
  O  O271  1  0.26052678  0.23336484  0.78539698  1
  O  O272  1  0.26872599  0.57355616  0.27661036  1
  O  O273  1  0.26007150  0.55875395  0.77284409  1
  O  O274  1  0.26652100  0.90729945  0.27108899  1
  O  O275  1  0.26759459  0.90768272  0.77675181  1
  O  O276  1  0.59716306  0.23298165  0.28210904  1
  O  O277  1  0.57692184  0.24543430  0.77174659  1
  O  O278  1  0.58239388  0.57302848  0.26595540  1
  O  O279  1  0.58967255  0.58315789  0.76225218  1
  O  O280  1  0.59223447  0.89833285  0.26334296  1
  O  O281  1  0.60477205  0.90867233  0.77807018  1
  O  O282  1  0.91957508  0.24395955  0.27636439  1
  O  O283  1  0.94154200  0.22225957  0.77024898  1
  O  O284  1  0.94151662  0.57297975  0.27110500  1
  O  O285  1  0.93858831  0.56740719  0.77049932  1
  O  O286  1  0.93372618  0.89884357  0.26856125  1
  O  O287  1  0.94133928  0.90992463  0.78592265  1
  O  O288  1  0.26749748  0.23318757  0.47432985  1
  O  O289  1  0.26734940  0.23330329  0.97061929  1
  O  O290  1  0.26421529  0.56644744  0.47521943  1
  O  O291  1  0.26323790  0.56726056  0.97711108  1
  O  O292  1  0.25508465  0.91356107  0.46862702  1
  O  O293  1  0.26434166  0.89567073  0.97477494  1
  O  O294  1  0.58433177  0.23556154  0.46811583  1
  O  O295  1  0.58271910  0.23723440  0.98211401  1
  O  O296  1  0.57927880  0.57158213  0.48051046  1
  O  O297  1  0.58035424  0.56998717  0.98840914  1
  O  O298  1  0.59560250  0.91767600  0.48557385  1
  O  O299  1  0.60144692  0.90310189  0.97176343  1
  O  O300  1  0.92113524  0.23132986  0.48140286  1
  O  O301  1  0.93164611  0.23462685  0.97471091  1
  O  O302  1  0.94690329  0.56925508  0.47776247  1
  O  O303  1  0.93491644  0.57192775  0.97802986  1
  O  O304  1  0.94035499  0.90489324  0.47604687  1
  O  O305  1  0.93616337  0.90623280  0.96970251  1
  O  O306  1  0.24194011  0.06840973  0.47737250  1
  O  O307  1  0.23612544  0.07026890  0.97451440  1
  O  O308  1  0.23452091  0.41153587  0.48203839  1
  O  O309  1  0.23679416  0.40367124  0.96778588  1
  O  O310  1  0.23845306  0.74067546  0.48210674  1
  O  O311  1  0.23356748  0.73231090  0.98416752  1
  O  O312  1  0.57479333  0.07840757  0.47669905  1
  O  O313  1  0.55996782  0.07336883  0.98932703  1
  O  O314  1  0.55471713  0.40541391  0.47032981  1
  O  O315  1  0.55199341  0.40521394  0.98641382  1
  O  O316  1  0.56892055  0.73599311  0.47931718  1
  O  O317  1  0.57928888  0.74778284  0.97453481  1
  O  O318  1  0.90311238  0.06099153  0.49090394  1
  O  O319  1  0.91502406  0.06475456  0.97595716  1
  O  O320  1  0.90662634  0.39996704  0.46915983  1
  O  O321  1  0.90881475  0.41215613  0.98288187  1
  O  O322  1  0.92140583  0.74177976  0.48214760  1
  O  O323  1  0.91244176  0.74609997  0.98042599  1
  O  O324  1  0.08758446  0.26256126  0.23231633  1
  O  O325  1  0.11048257  0.26567905  0.73484378  1
  O  O326  1  0.09654098  0.60498857  0.22707148  1
  O  O327  1  0.10045280  0.58458603  0.72456347  1
  O  O328  1  0.10531695  0.93321647  0.22843353  1
  O  O329  1  0.09991834  0.93862908  0.74688097  1
  O  O330  1  0.43339435  0.26546281  0.22135997  1
  O  O331  1  0.41498919  0.26433134  0.73948234  1
  O  O332  1  0.42769491  0.59847986  0.23393397  1
  O  O333  1  0.41691345  0.58420877  0.72698554  1
  O  O334  1  0.42894675  0.92848285  0.21942302  1
  O  O335  1  0.42903462  0.94321949  0.72431636  1
  O  O336  1  0.76283544  0.26024489  0.22472824  1
  O  O337  1  0.75598638  0.25173594  0.74036555  1
  O  O338  1  0.76871718  0.60392770  0.22118395  1
  O  O339  1  0.75594421  0.59512827  0.73639733  1
  O  O340  1  0.76503594  0.92271136  0.22970451  1
  O  O341  1  0.76543446  0.93537122  0.73432123  1
  O  O342  1  0.08160395  0.08878405  0.22433776  1
  O  O343  1  0.06596245  0.10453839  0.73248868  1
  O  O344  1  0.06503480  0.42425548  0.24100335  1
  O  O345  1  0.07728023  0.42784692  0.71532869  1
  O  O346  1  0.07216218  0.75784211  0.22917740  1
  O  O347  1  0.07506478  0.76175527  0.74497615  1
  O  O348  1  0.39744048  0.09048499  0.21968273  1
  O  O349  1  0.39511219  0.09740484  0.74544486  1
  O  O350  1  0.40735508  0.43098073  0.23081463  1
  O  O351  1  0.38446456  0.42705971  0.73025144  1
  O  O352  1  0.40215855  0.76496142  0.22414513  1
  O  O353  1  0.40812882  0.75722714  0.74274100  1
  O  O354  1  0.73655399  0.10399100  0.22995811  1
  O  O355  1  0.74555796  0.08173575  0.71701067  1
  O  O356  1  0.74357585  0.42216651  0.22254650  1
  O  O357  1  0.74242417  0.42549792  0.73818528  1
  O  O358  1  0.74261877  0.77001866  0.22311016  1
  O  O359  1  0.74193445  0.75813200  0.74670026  1
