# generated using pymatgen
data_BaLaInIrO6
_symmetry_space_group_name_H-M   'P 1'
_cell_length_a   17.51934990
_cell_length_b   17.54775898
_cell_length_c   16.48454616
_cell_angle_alpha   89.95832054
_cell_angle_beta   90.00172195
_cell_angle_gamma   90.01373912
_symmetry_Int_Tables_number   1
_chemical_formula_structural   BaLaInIrO6
_chemical_formula_sum   'Ba36 La36 In36 Ir36 O216'
_cell_volume   5067.76554669
_cell_formula_units_Z   36
loop_
 _symmetry_equiv_pos_site_id
 _symmetry_equiv_pos_as_xyz
  1  'x, y, z'
loop_
 _atom_site_type_symbol
 _atom_site_label
 _atom_site_symmetry_multiplicity
 _atom_site_fract_x
 _atom_site_fract_y
 _atom_site_fract_z
 _atom_site_occupancy
  Ba  Ba0  1  0.82669069  0.01627275  0.12642369  1
  Ba  Ba1  1  0.50332001  0.33889727  0.12436268  1
  Ba  Ba2  1  -0.00360951  0.16112715  0.37487020  1
  Ba  Ba3  1  0.16487032  0.32338726  0.37744245  1
  Ba  Ba4  1  0.16711886  0.01243990  0.12525300  1
  Ba  Ba5  1  0.32742116  0.82286741  0.87591133  1
  Ba  Ba6  1  0.66728407  0.84365249  0.62547793  1
  Ba  Ba7  1  0.66969537  0.17334305  0.62500136  1
  Ba  Ba8  1  0.00143571  0.82991542  0.37381090  1
  Ba  Ba9  1  0.33273754  0.49089952  0.87107240  1
  Ba  Ba10  1  0.17020105  0.67282499  0.12520449  1
  Ba  Ba11  1  -0.00206003  0.15579507  0.87853246  1
  Ba  Ba12  1  0.33394510  0.51055319  0.62034897  1
  Ba  Ba13  1  0.16114652  0.67449760  0.62880170  1
  Ba  Ba14  1  0.66619987  0.82677148  0.87107013  1
  Ba  Ba15  1  0.16599483  0.00588116  0.62526510  1
  Ba  Ba16  1  0.66505755  0.49238637  0.87011787  1
  Ba  Ba17  1  0.49843619  0.00712261  0.62927115  1
  Ba  Ba18  1  0.83029912  0.00506411  0.62558475  1
  Ba  Ba19  1  -0.00135410  0.49159377  0.37815718  1
  Ba  Ba20  1  0.33572494  0.17281956  0.12365677  1
  Ba  Ba21  1  1.00243484  0.50870404  0.62410790  1
  Ba  Ba22  1  0.33184984  0.82576287  0.37642363  1
  Ba  Ba23  1  0.16901339  0.65193808  0.87610883  1
  Ba  Ba24  1  0.83720436  0.67217349  0.62137822  1
  Ba  Ba25  1  0.67062439  0.17656873  0.12850539  1
  Ba  Ba26  1  -0.00274124  0.49354848  0.87497742  1
  Ba  Ba27  1  0.49676597  0.01139256  0.12270665  1
  Ba  Ba28  1  0.83215866  0.65601513  0.37292335  1
  Ba  Ba29  1  0.49770460  0.32934875  0.87377272  1
  Ba  Ba30  1  0.33410884  0.50468927  0.12316343  1
  Ba  Ba31  1  0.66760759  0.84212673  0.12451446  1
  Ba  Ba32  1  0.16372023  0.99012710  0.87753131  1
  Ba  Ba33  1  0.33503533  0.17117574  0.62675812  1
  Ba  Ba34  1  0.32962076  0.15767460  0.37333944  1
  Ba  Ba35  1  0.83257900  0.99243594  0.37354764  1
  La  La36  1  0.33288979  0.84822908  0.62866122  1
  La  La37  1  0.83523943  0.35074529  0.62237553  1
  La  La38  1  0.49795203  0.99122678  0.87388144  1
  La  La39  1  0.66623707  0.14839467  0.37474997  1
  La  La40  1  0.49292581  0.67999448  0.62707068  1
  La  La41  1  0.16126842  0.99353247  0.36395569  1
  La  La42  1  0.50810292  0.98135531  0.37681218  1
  La  La43  1  0.50109376  0.31738364  0.37335822  1
  La  La44  1  0.49996592  0.34906622  0.62348982  1
  La  La45  1  0.32644866  0.15656929  0.87844039  1
  La  La46  1  0.82820168  0.34954190  0.12600813  1
  La  La47  1  0.34043535  0.84807011  0.12232295  1
  La  La48  1  1.00834371  0.18266953  0.62558284  1
  La  La49  1  0.66551402  0.48196588  0.37579580  1
  La  La50  1  1.00446095  0.84814240  0.62103770  1
  La  La51  1  0.17555345  0.64476964  0.38285227  1
  La  La52  1  1.00290283  0.85585365  0.13087849  1
  La  La53  1  0.83282407  0.68128476  0.12639375  1
  La  La54  1  0.66896503  0.15210952  0.87669114  1
  La  La55  1  0.84138675  0.32140183  0.37659558  1
  La  La56  1  0.84050369  0.98349107  0.87909965  1
  La  La57  1  0.50054407  0.65136161  0.87353259  1
  La  La58  1  0.48997021  0.67484795  0.11771433  1
  La  La59  1  0.67081116  0.51190925  0.11975928  1
  La  La60  1  1.00331072  0.18495102  0.12466452  1
  La  La61  1  -0.00470334  0.82250928  0.87650060  1
  La  La62  1  0.16304844  0.34710700  0.62402124  1
  La  La63  1  0.83828046  0.65258264  0.87812260  1
  La  La64  1  0.16437279  0.34243644  0.12311949  1
  La  La65  1  0.84126840  0.31918563  0.87499960  1
  La  La66  1  1.00545068  0.51137671  0.12783917  1
  La  La67  1  0.32919424  0.48057990  0.37349504  1
  La  La68  1  0.50729585  0.64862548  0.37637464  1
  La  La69  1  0.67219992  0.51215800  0.62409700  1
  La  La70  1  0.17444764  0.32293522  0.87259316  1
  La  La71  1  0.65939350  0.81698989  0.37991649  1
  In  In72  1  0.00047217  0.66916622  0.00505973  1
  In  In73  1  0.32986900  0.00023736  -0.00155954  1
  In  In74  1  0.50032330  0.16803447  -0.00509100  1
  In  In75  1  0.33301747  0.33315684  0.00158486  1
  In  In76  1  0.16499565  0.83197432  0.00328484  1
  In  In77  1  0.16967828  0.83243189  0.50010177  1
  In  In78  1  0.16961649  0.82939719  0.25156244  1
  In  In79  1  0.33616382  0.66475376  0.25422867  1
  In  In80  1  0.50019761  0.50141470  0.74373155  1
  In  In81  1  0.33529342  -0.00081149  0.49722032  1
  In  In82  1  0.66712200  0.66897881  -0.00270882  1
  In  In83  1  0.66715687  -0.00084040  -0.00112786  1
  In  In84  1  0.33712412  0.00139318  0.25280178  1
  In  In85  1  0.83476223  0.82982973  0.74904244  1
  In  In86  1  0.50294864  0.49830995  -0.00116746  1
  In  In87  1  0.67044286  0.33053602  0.74942180  1
  In  In88  1  -0.00115332  0.00268304  0.75170343  1
  In  In89  1  0.66576486  -0.00254304  0.24987755  1
  In  In90  1  0.50174805  0.16937436  0.75102163  1
  In  In91  1  0.33443973  0.33168752  0.74494015  1
  In  In92  1  -0.00012105  0.66794392  0.75199658  1
  In  In93  1  0.49773127  0.83074473  0.75284628  1
  In  In94  1  0.83189094  0.83238808  0.49617494  1
  In  In95  1  0.66605928  0.66210232  0.24927100  1
  In  In96  1  0.66655338  0.33035389  0.49888619  1
  In  In97  1  0.50272563  0.49674142  0.25101659  1
  In  In98  1  0.00116768  0.66947580  0.49798517  1
  In  In99  1  0.33537038  0.32803978  0.50102935  1
  In  In100  1  0.16530326  0.16206428  0.49750688  1
  In  In101  1  0.16758919  0.49618927  0.24902518  1
  In  In102  1  0.83419478  0.16800741  0.50519631  1
  In  In103  1  0.67270893  0.33178831  -0.00422682  1
  In  In104  1  0.00144998  0.33501607  0.75445291  1
  In  In105  1  0.49949771  0.82776293  0.24913262  1
  In  In106  1  0.00207616  0.66935451  0.25000613  1
  In  In107  1  0.66865032  0.00127199  0.75257823  1
  Ir  Ir108  1  0.17052252  0.49822017  0.50054155  1
  Ir  Ir109  1  0.49691530  0.82905912  -0.00310875  1
  Ir  Ir110  1  0.67214566  0.33312118  0.25268339  1
  Ir  Ir111  1  0.49927120  0.82840020  0.50264147  1
  Ir  Ir112  1  -0.00219281  0.00346845  0.49893613  1
  Ir  Ir113  1  0.83658927  0.50003918  0.00277929  1
  Ir  Ir114  1  -0.00497262  0.00354258  0.00494858  1
  Ir  Ir115  1  0.83740684  0.16881505  0.75242524  1
  Ir  Ir116  1  0.33283203  0.66448287  -0.00282327  1
  Ir  Ir117  1  0.32973860  0.66866084  0.74560055  1
  Ir  Ir118  1  0.83403900  0.17323917  0.24885980  1
  Ir  Ir119  1  0.50135695  0.50079566  0.49617984  1
  Ir  Ir120  1  0.16413667  0.49544952  -0.00124600  1
  Ir  Ir121  1  0.50369026  0.16511414  0.49649475  1
  Ir  Ir122  1  0.66680382  0.66453566  0.74654524  1
  Ir  Ir123  1  -0.00149501  0.33634128  0.49940150  1
  Ir  Ir124  1  0.50235090  0.16954994  0.25638797  1
  Ir  Ir125  1  -0.00138210  0.33631418  0.00281730  1
  Ir  Ir126  1  -0.00523103  0.00824639  0.24763780  1
  Ir  Ir127  1  0.82915425  0.50026574  0.74888426  1
  Ir  Ir128  1  0.33269948  0.32982829  0.25101907  1
  Ir  Ir129  1  0.83260658  0.83352843  0.24724210  1
  Ir  Ir130  1  0.16501038  0.83437046  0.75031232  1
  Ir  Ir131  1  0.66147834  0.66330820  0.50113234  1
  Ir  Ir132  1  0.66313726  -0.00045121  0.49874510  1
  Ir  Ir133  1  0.16732658  0.49802035  0.75014909  1
  Ir  Ir134  1  0.16000669  0.17145457  -0.00012291  1
  Ir  Ir135  1  0.33887094  0.66522516  0.50231313  1
  Ir  Ir136  1  0.83213321  0.49701764  0.24709435  1
  Ir  Ir137  1  0.83807741  0.17198717  0.00087247  1
  Ir  Ir138  1  0.16657949  0.16691189  0.75160991  1
  Ir  Ir139  1  0.83565892  0.83341930  0.00346995  1
  Ir  Ir140  1  0.32953928  0.00100611  0.75088359  1
  Ir  Ir141  1  0.82724435  0.50014806  0.49843363  1
  Ir  Ir142  1  0.16146198  0.17113524  0.24467676  1
  Ir  Ir143  1  -0.00643464  0.33427623  0.24725791  1
  O  O144  1  0.30160409  0.33034546  0.13180993  1
  O  O145  1  0.29695344  0.32861625  0.62283062  1
  O  O146  1  0.31933420  0.65869011  0.11736948  1
  O  O147  1  0.30869849  0.66735965  0.62257380  1
  O  O148  1  0.31908521  0.99167122  0.12598154  1
  O  O149  1  0.31622228  0.99641883  0.62976586  1
  O  O150  1  0.65560751  0.33082538  0.13287727  1
  O  O151  1  0.63396148  0.32631449  0.62153037  1
  O  O152  1  0.63128868  0.65463884  0.12473566  1
  O  O153  1  0.63092787  0.65532180  0.62409375  1
  O  O154  1  0.65035355  1.00612464  0.12452353  1
  O  O155  1  0.65163938  1.00500262  0.61977368  1
  O  O156  1  0.96419440  0.32887790  0.12461975  1
  O  O157  1  0.97299158  0.32959688  0.62200800  1
  O  O158  1  0.96565865  0.64858186  0.12679252  1
  O  O159  1  0.98781477  0.66337415  0.62600833  1
  O  O160  1  0.97113777  0.99700696  0.12588132  1
  O  O161  1  0.98027687  0.98954174  0.62060949  1
  O  O162  1  0.18305586  0.17678304  0.12215577  1
  O  O163  1  0.18259577  0.16196049  0.63233042  1
  O  O164  1  0.18395495  0.48526846  0.11885678  1
  O  O165  1  0.18825767  0.48663285  0.62697935  1
  O  O166  1  0.20538674  0.83032764  0.12778023  1
  O  O167  1  0.19495777  0.83333483  0.63246247  1
  O  O168  1  0.52166310  0.16730483  0.13734491  1
  O  O169  1  0.52298492  0.15930112  0.61493854  1
  O  O170  1  0.53484046  0.49794434  0.12723873  1
  O  O171  1  0.53496378  0.49239551  0.61372459  1
  O  O172  1  0.51944198  0.81230845  0.11640493  1
  O  O173  1  0.51936166  0.81919007  0.62278939  1
  O  O174  1  0.86684658  0.16900769  0.12404081  1
  O  O175  1  0.86994410  0.15981305  0.63336581  1
  O  O176  1  0.86870307  0.48580621  0.12512520  1
  O  O177  1  0.85379190  0.48905981  0.62384105  1
  O  O178  1  0.86670622  0.82373130  0.12497122  1
  O  O179  1  0.86669503  0.83162368  0.62283332  1
  O  O180  1  0.14361215  0.16693384  0.36454756  1
  O  O181  1  0.14229921  0.18362227  0.87565746  1
  O  O182  1  0.15140080  0.50291307  0.37962125  1
  O  O183  1  0.14580972  0.49370880  0.87345544  1
  O  O184  1  0.14927585  0.85435496  0.37658997  1
  O  O185  1  0.13368857  0.83271438  0.87126039  1
  O  O186  1  0.47958129  0.18005598  0.37696918  1
  O  O187  1  0.45876665  0.17740298  0.87109653  1
  O  O188  1  0.46552314  0.51041931  0.37845738  1
  O  O189  1  0.48189441  0.51572478  0.86999563  1
  O  O190  1  0.48308227  0.83752143  0.38366280  1
  O  O191  1  0.47538749  0.84525379  0.87907450  1
  O  O192  1  0.80671209  0.18402660  0.37067508  1
  O  O193  1  0.80751180  0.18304200  0.87631589  1
  O  O194  1  0.79885870  0.50180345  0.37192127  1
  O  O195  1  0.81055680  0.51558477  0.87743492  1
  O  O196  1  0.79726743  0.83475034  0.36629830  1
  O  O197  1  0.81594117  0.84240340  0.88448896  1
  O  O198  1  0.02559770  0.00934604  0.37313261  1
  O  O199  1  0.01363682  0.00161411  0.88539698  1
  O  O200  1  0.01709420  0.33713813  0.37221993  1
  O  O201  1  0.03300557  0.33711467  0.88338094  1
  O  O202  1  0.03786843  0.66789536  0.37364536  1
  O  O203  1  0.01959551  0.68075553  0.87886459  1
  O  O204  1  0.37423389  -0.00128494  0.37629122  1
  O  O205  1  0.35771653  0.00696349  0.86982332  1
  O  O206  1  0.36140821  0.33809661  0.37248423  1
  O  O207  1  0.34126139  0.33153465  0.87212281  1
  O  O208  1  0.37222934  0.66883000  0.38565759  1
  O  O209  1  0.36143972  0.66695055  0.86916214  1
  O  O210  1  0.67826476  0.00365985  0.37884021  1
  O  O211  1  0.70578786  0.00997145  0.87807147  1
  O  O212  1  0.70368718  0.34236442  0.37148066  1
  O  O213  1  0.71168698  0.34225606  0.87263342  1
  O  O214  1  0.68355280  0.67452411  0.38113258  1
  O  O215  1  0.70104656  0.66763963  0.86637865  1
  O  O216  1  0.06114414  0.10157938  0.02633458  1
  O  O217  1  0.06173865  0.09897235  0.52425592  1
  O  O218  1  0.06766395  0.42872295  0.02881959  1
  O  O219  1  0.08208387  0.42061207  0.52378619  1
  O  O220  1  0.06361947  0.77019762  0.02911191  1
  O  O221  1  0.07068838  0.76983829  0.52605308  1
  O  O222  1  0.40717707  0.09019548  0.00828446  1
  O  O223  1  0.41176177  0.09787694  0.51423101  1
  O  O224  1  0.40625305  0.42807503  0.01287878  1
  O  O225  1  0.41507945  0.42643067  0.51730403  1
  O  O226  1  0.40102434  0.75873237  0.02241040  1
  O  O227  1  0.40518137  0.76020181  0.53304769  1
  O  O228  1  0.74543674  0.10687783  0.01145074  1
  O  O229  1  0.73197421  0.09493656  0.50256538  1
  O  O230  1  0.74695255  0.43234221  0.03140897  1
  O  O231  1  0.73332161  0.43420290  0.51793139  1
  O  O232  1  0.74798179  0.75824691  0.02482562  1
  O  O233  1  0.72839577  0.75639254  0.51445426  1
  O  O234  1  0.09083318  0.26654111  0.02960333  1
  O  O235  1  0.08798021  0.26364785  0.52647217  1
  O  O236  1  0.09174841  0.58424340  0.02032092  1
  O  O237  1  0.09932294  0.58723252  0.51121067  1
  O  O238  1  0.08242514  0.93140962  0.02540898  1
  O  O239  1  0.08663956  0.93398438  0.51249373  1
  O  O240  1  0.42490079  0.25871829  0.02097066  1
  O  O241  1  0.44434014  0.26535532  0.51492346  1
  O  O242  1  0.43049830  0.60420308  0.01111029  1
  O  O243  1  0.43950396  0.60009013  0.52396238  1
  O  O244  1  0.42512457  0.91542911  0.01853588  1
  O  O245  1  0.43274054  0.91854646  0.52206420  1
  O  O246  1  0.77969567  0.26996190  0.01889336  1
  O  O247  1  0.76994976  0.26936149  0.52475694  1
  O  O248  1  0.76762651  0.59213782  0.02914876  1
  O  O249  1  0.75081138  0.58915179  0.52647871  1
  O  O250  1  0.76683447  0.92376264  0.01645646  1
  O  O251  1  0.75253302  0.92740622  0.51328210  1
  O  O252  1  0.22989155  0.07855518  0.26504811  1
  O  O253  1  0.24127017  0.07819246  0.77810932  1
  O  O254  1  0.24333099  0.40056847  0.26878373  1
  O  O255  1  0.23011878  0.40268354  0.76468904  1
  O  O256  1  0.23233442  0.72563232  0.28129620  1
  O  O257  1  0.23609356  0.73983688  0.76775602  1
  O  O258  1  0.56945582  0.07702702  0.28078012  1
  O  O259  1  0.57183263  0.07206994  0.78196919  1
  O  O260  1  0.57743552  0.39733062  0.28147146  1
  O  O261  1  0.57562752  0.40682048  0.75794983  1
  O  O262  1  0.57152589  0.73446237  0.27990402  1
  O  O263  1  0.57231685  0.73137663  0.77120063  1
  O  O264  1  0.90272760  0.08101886  0.26793761  1
  O  O265  1  0.89578587  0.07047454  0.77741447  1
  O  O266  1  0.89540594  0.39906116  0.27086628  1
  O  O267  1  0.89919077  0.40659597  0.77081845  1
  O  O268  1  0.90106504  0.74349964  0.26143353  1
  O  O269  1  0.90328737  0.73785844  0.78555815  1
  O  O270  1  0.25810746  0.23920980  0.26544724  1
  O  O271  1  0.25824173  0.23295305  0.77406187  1
  O  O272  1  0.26747206  0.56466001  0.27632816  1
  O  O273  1  0.25994189  0.57317883  0.76269287  1
  O  O274  1  0.25145240  0.91842407  0.27453745  1
  O  O275  1  0.25852965  0.90597375  0.76604321  1
  O  O276  1  0.60286830  0.23864517  0.28189077  1
  O  O277  1  0.60643916  0.23132354  0.77853849  1
  O  O278  1  0.60262820  0.56236821  0.28294342  1
  O  O279  1  0.59354995  0.58079833  0.76300286  1
  O  O280  1  0.59631708  0.90051971  0.27655576  1
  O  O281  1  0.58305346  0.91383208  0.76850719  1
  O  O282  1  0.92412794  0.24436685  0.26814964  1
  O  O283  1  0.92847629  0.23743547  0.76827418  1
  O  O284  1  0.92189155  0.56449769  0.26570809  1
  O  O285  1  0.91336029  0.57666021  0.77018395  1
  O  O286  1  0.92603264  0.90829309  0.26425785  1
  O  O287  1  0.93221842  0.90352063  0.77712502  1
  O  O288  1  0.25650536  0.23815225  0.48392233  1
  O  O289  1  0.25092858  0.23881703  0.97535066  1
  O  O290  1  0.26825035  0.56971209  0.47185191  1
  O  O291  1  0.26073901  0.56675120  0.98109880  1
  O  O292  1  0.27143155  0.89603095  0.50243239  1
  O  O293  1  0.25389231  0.90937720  0.98289919  1
  O  O294  1  0.59843183  0.23104186  0.46882803  1
  O  O295  1  0.60574689  0.23142486  0.97749433  1
  O  O296  1  0.59554259  0.56777731  0.47088586  1
  O  O297  1  0.59274257  0.57914627  0.97621006  1
  O  O298  1  0.59382342  0.90001422  0.47577100  1
  O  O299  1  0.58411890  0.90414409  0.98088415  1
  O  O300  1  0.92637716  0.24913464  0.48326178  1
  O  O301  1  0.93110315  0.24323013  0.98132838  1
  O  O302  1  0.91767173  0.57017310  0.48587441  1
  O  O303  1  0.92125592  0.57347818  0.98194350  1
  O  O304  1  0.92846311  0.91372248  0.48195857  1
  O  O305  1  0.92994380  0.90414672  0.97926478  1
  O  O306  1  0.23091944  0.06144160  0.47153571  1
  O  O307  1  0.23457239  0.08508305  0.97980642  1
  O  O308  1  0.24678598  0.41410077  0.47996671  1
  O  O309  1  0.22414174  0.39696819  0.98482697  1
  O  O310  1  0.24131093  0.72562158  0.47858539  1
  O  O311  1  0.24188371  0.73230326  0.98490781  1
  O  O312  1  0.56745916  0.06860979  0.47097551  1
  O  O313  1  0.57214524  0.07014547  0.96523473  1
  O  O314  1  0.56857348  0.40708894  0.46663571  1
  O  O315  1  0.58152491  0.40670469  0.98285588  1
  O  O316  1  0.56675574  0.73173727  0.47739537  1
  O  O317  1  0.56382730  0.73778524  0.97128140  1
  O  O318  1  0.90801350  0.07345749  0.48443414  1
  O  O319  1  0.89816528  0.07060560  0.97974493  1
  O  O320  1  0.89652825  0.40362513  0.47920054  1
  O  O321  1  0.90203742  0.40262619  0.97657384  1
  O  O322  1  0.90588844  0.74095261  0.47570514  1
  O  O323  1  0.89829238  0.73926663  0.98221026  1
  O  O324  1  0.08904553  0.26630030  0.21975066  1
  O  O325  1  0.09894952  0.26051663  0.72551161  1
  O  O326  1  0.08851885  0.58411765  0.22649286  1
  O  O327  1  0.09384446  0.58547300  0.74101308  1
  O  O328  1  0.08274605  0.93633267  0.23294969  1
  O  O329  1  0.09407152  0.92302994  0.73197036  1
  O  O330  1  0.43354541  0.26595370  0.24229431  1
  O  O331  1  0.43573909  0.26588307  0.71520951  1
  O  O332  1  0.44187094  0.60319846  0.23283921  1
  O  O333  1  0.42634031  0.60493609  0.72582023  1
  O  O334  1  0.42905101  0.92263992  0.23090842  1
  O  O335  1  0.41371997  0.92321081  0.73314491  1
  O  O336  1  0.77101116  0.27038259  0.22864327  1
  O  O337  1  0.77962730  0.26644166  0.72573957  1
  O  O338  1  0.76487114  0.58829393  0.21532949  1
  O  O339  1  0.75301997  0.58799854  0.71945844  1
  O  O340  1  0.76255880  0.92098809  0.23154273  1
  O  O341  1  0.76069935  0.92367644  0.74227661  1
  O  O342  1  0.06363417  0.10464651  0.22342517  1
  O  O343  1  0.06854622  0.10282894  0.73127572  1
  O  O344  1  0.06677736  0.42091931  0.22291253  1
  O  O345  1  0.07993089  0.42489122  0.73007487  1
  O  O346  1  0.06622390  0.76982852  0.22067980  1
  O  O347  1  0.06964426  0.77253819  0.72934412  1
  O  O348  1  0.41241692  0.10146208  0.23810886  1
  O  O349  1  0.40223047  0.08717312  0.73826759  1
  O  O350  1  0.40163888  0.42212094  0.24010130  1
  O  O351  1  0.41064101  0.42490765  0.72201932  1
  O  O352  1  0.39788782  0.76412517  0.22253314  1
  O  O353  1  0.39914452  0.75899463  0.72523334  1
  O  O354  1  0.74239916  0.10172618  0.24755246  1
  O  O355  1  0.74420020  0.10531229  0.74180379  1
  O  O356  1  0.73408416  0.43213324  0.22396196  1
  O  O357  1  0.74385159  0.42815701  0.71556965  1
  O  O358  1  0.74732834  0.75592668  0.22578940  1
  O  O359  1  0.73757123  0.75108321  0.72894498  1
