# generated using pymatgen
data_BaLaInIrO6
_symmetry_space_group_name_H-M   'P 1'
_cell_length_a   17.52466807
_cell_length_b   17.55662132
_cell_length_c   16.50206247
_cell_angle_alpha   89.98439644
_cell_angle_beta   89.99474103
_cell_angle_gamma   90.01111435
_symmetry_Int_Tables_number   1
_chemical_formula_structural   BaLaInIrO6
_chemical_formula_sum   'Ba36 La36 In36 Ir36 O216'
_cell_volume   5077.25462233
_cell_formula_units_Z   36
loop_
 _symmetry_equiv_pos_site_id
 _symmetry_equiv_pos_as_xyz
  1  'x, y, z'
loop_
 _atom_site_type_symbol
 _atom_site_label
 _atom_site_symmetry_multiplicity
 _atom_site_fract_x
 _atom_site_fract_y
 _atom_site_fract_z
 _atom_site_occupancy
  Ba  Ba0  1  0.67283256  0.50553716  0.12840408  1
  Ba  Ba1  1  0.82731217  0.00981218  0.62607301  1
  Ba  Ba2  1  0.50091949  0.32222645  0.38005668  1
  Ba  Ba3  1  0.16945556  0.98831732  0.87480642  1
  Ba  Ba4  1  0.50572549  0.65983550  0.37797598  1
  Ba  Ba5  1  0.00196118  0.16411194  0.87157166  1
  Ba  Ba6  1  0.33245453  0.15899884  0.37486680  1
  Ba  Ba7  1  0.83258655  0.99220783  0.37865688  1
  Ba  Ba8  1  0.49425886  0.67869397  0.12380340  1
  Ba  Ba9  1  0.66271497  0.15837619  0.38029956  1
  Ba  Ba10  1  0.32530229  0.82164724  0.86952067  1
  Ba  Ba11  1  1.00331996  0.50474945  0.12412439  1
  Ba  Ba12  1  0.99850408  0.18138243  0.62124515  1
  Ba  Ba13  1  0.83582284  0.00854193  0.12883919  1
  Ba  Ba14  1  1.00280297  0.50484267  0.62612923  1
  Ba  Ba15  1  -0.00186716  0.82783448  0.87608368  1
  Ba  Ba16  1  0.84223305  0.33819623  0.12723891  1
  Ba  Ba17  1  0.33059266  0.49076534  0.87408030  1
  Ba  Ba18  1  -0.00371070  0.82588729  0.37107026  1
  Ba  Ba19  1  0.83460644  0.34467451  0.62159283  1
  Ba  Ba20  1  0.49873324  0.32223688  0.87199491  1
  Ba  Ba21  1  1.00337203  0.17477562  0.12538088  1
  Ba  Ba22  1  0.16818337  0.67338786  0.12383060  1
  Ba  Ba23  1  0.32643584  0.15716611  0.87474747  1
  Ba  Ba24  1  0.83630057  0.65775973  0.37770099  1
  Ba  Ba25  1  0.33923564  0.84591024  0.61969699  1
  Ba  Ba26  1  0.33516858  0.84654605  0.12439722  1
  Ba  Ba27  1  0.83409848  0.65669817  0.87405390  1
  Ba  Ba28  1  0.00313552  0.16030342  0.38013370  1
  Ba  Ba29  1  0.17222248  0.64930144  0.37601781  1
  Ba  Ba30  1  0.16609635  0.34130361  0.62343018  1
  Ba  Ba31  1  0.49765208  0.01223118  0.62785109  1
  Ba  Ba32  1  0.16728118  0.33878949  0.12345021  1
  Ba  Ba33  1  0.16308137  0.00604467  0.12241694  1
  Ba  Ba34  1  0.00342718  0.49480464  0.87278354  1
  Ba  Ba35  1  0.66591380  0.82710386  0.37510864  1
  La  La36  1  0.49372881  0.34812892  0.12501363  1
  La  La37  1  0.49188483  0.01461447  0.12570997  1
  La  La38  1  0.33696726  0.51477923  0.62752824  1
  La  La39  1  0.16973159  0.32253337  0.87173053  1
  La  La40  1  0.66605629  0.48525910  0.87381818  1
  La  La41  1  0.83501946  0.67910449  0.62367006  1
  La  La42  1  0.65865751  0.81616632  0.87509093  1
  La  La43  1  -0.00204079  0.48269870  0.37843894  1
  La  La44  1  0.49495492  0.98096521  0.87661134  1
  La  La45  1  0.34069594  0.18457204  0.62853601  1
  La  La46  1  0.16857842  0.98653792  0.37428994  1
  La  La47  1  0.83561716  0.31838889  0.37405579  1
  La  La48  1  0.83543536  0.67800777  0.12924305  1
  La  La49  1  0.50318181  0.64666376  0.87211982  1
  La  La50  1  0.33120481  0.17976790  0.12268674  1
  La  La51  1  0.33305861  0.49169724  0.37755483  1
  La  La52  1  0.67484825  0.18549977  0.12897772  1
  La  La53  1  0.66718250  0.84568551  0.12664615  1
  La  La54  1  0.49724927  0.68644411  0.62539725  1
  La  La55  1  0.32963640  0.82715147  0.36947802  1
  La  La56  1  0.16505235  0.67196110  0.63065341  1
  La  La57  1  0.67394058  0.51760858  0.62333122  1
  La  La58  1  0.33980647  0.51411483  0.12696481  1
  La  La59  1  0.16583992  0.32343829  0.37830322  1
  La  La60  1  0.16269725  0.65690298  0.87693228  1
  La  La61  1  0.66962010  0.17925278  0.62347114  1
  La  La62  1  0.66833931  0.84961796  0.62053739  1
  La  La63  1  0.83796505  0.33044684  0.87317673  1
  La  La64  1  0.16211853  0.01204508  0.62725763  1
  La  La65  1  0.66508856  0.48560764  0.37688342  1
  La  La66  1  1.00486110  0.84460441  0.12299416  1
  La  La67  1  0.84231453  0.98658267  0.87598904  1
  La  La68  1  0.66004978  0.15238850  0.87563302  1
  La  La69  1  0.50805211  0.98770109  0.37865221  1
  La  La70  1  0.49326067  0.35047191  0.62570577  1
  La  La71  1  0.99901546  0.84292129  0.62348050  1
  In  In72  1  0.33482779  0.66730395  -0.00416954  1
  In  In73  1  0.16844809  0.16739713  0.74636302  1
  In  In74  1  0.83333826  0.50216378  0.00077632  1
  In  In75  1  0.66390725  0.33506937  0.50344652  1
  In  In76  1  0.00217878  0.33381038  -0.00294441  1
  In  In77  1  0.66526959  0.33495672  -0.00012339  1
  In  In78  1  0.33489673  0.33443288  -0.00238043  1
  In  In79  1  -0.00203587  0.66596378  -0.00079445  1
  In  In80  1  0.82734327  0.83337400  0.00132176  1
  In  In81  1  0.66501429  0.33427120  0.74732309  1
  In  In82  1  0.66337112  0.00007029  0.75372259  1
  In  In83  1  0.83671598  0.49902823  0.25418903  1
  In  In84  1  0.66400632  0.66464468  0.00212950  1
  In  In85  1  0.66307434  0.00371437  0.24868423  1
  In  In86  1  0.00046412  0.00009823  0.50148285  1
  In  In87  1  0.33674819  0.66433104  0.49945189  1
  In  In88  1  0.66356651  0.00109178  0.00171739  1
  In  In89  1  0.00323158  0.66291726  0.50132240  1
  In  In90  1  0.16493644  0.83207496  0.24962026  1
  In  In91  1  0.82615194  0.17051721  0.75066974  1
  In  In92  1  0.33402921  0.00016410  0.74758728  1
  In  In93  1  0.66728716  0.66580562  0.24842734  1
  In  In94  1  -0.00309314  0.00132734  0.74734175  1
  In  In95  1  0.50055329  0.16810486  0.24930345  1
  In  In96  1  0.82720422  0.16947290  -0.00206386  1
  In  In97  1  0.16954951  0.83027424  0.50185721  1
  In  In98  1  0.49907395  0.83519193  0.24949133  1
  In  In99  1  0.33314113  0.33333878  0.25124927  1
  In  In100  1  -0.00101966  0.00379157  -0.00337698  1
  In  In101  1  0.50270324  0.50010937  0.25369910  1
  In  In102  1  0.00135132  0.66307234  0.25215847  1
  In  In103  1  0.82639384  0.83133314  0.75032951  1
  In  In104  1  0.33479554  0.66438162  0.25251475  1
  In  In105  1  0.17272364  0.16587032  0.49948207  1
  In  In106  1  0.83382073  0.83398869  0.24835554  1
  In  In107  1  0.16763065  0.82894995  0.74583287  1
  Ir  Ir108  1  0.16645436  0.83226360  -0.00044897  1
  Ir  Ir109  1  0.83090639  0.50196332  0.50229237  1
  Ir  Ir110  1  0.33655544  0.33802300  0.50321389  1
  Ir  Ir111  1  0.00415709  0.32995303  0.25610459  1
  Ir  Ir112  1  0.49839885  0.16580520  0.50736561  1
  Ir  Ir113  1  0.17083875  0.16603232  0.00131195  1
  Ir  Ir114  1  0.33363439  0.00615281  0.24986476  1
  Ir  Ir115  1  0.50091229  0.49786528  -0.00456174  1
  Ir  Ir116  1  0.17143259  0.49849004  -0.00131392  1
  Ir  Ir117  1  0.00270303  0.33971523  0.74875992  1
  Ir  Ir118  1  0.83052184  0.83038085  0.50293227  1
  Ir  Ir119  1  0.33537561  0.00223299  0.00494449  1
  Ir  Ir120  1  0.33537773  0.66089233  0.74688810  1
  Ir  Ir121  1  0.50328567  0.50216338  0.50628537  1
  Ir  Ir122  1  0.83540503  0.16926365  0.25309214  1
  Ir  Ir123  1  0.17212239  0.49915067  0.74833313  1
  Ir  Ir124  1  0.50066729  0.83689616  0.50491668  1
  Ir  Ir125  1  0.16751050  0.49092115  0.25287891  1
  Ir  Ir126  1  0.66327908  0.00111829  0.50193497  1
  Ir  Ir127  1  0.66565788  0.66723857  0.50599788  1
  Ir  Ir128  1  0.50096700  0.16316948  -0.00305147  1
  Ir  Ir129  1  0.17063358  0.49369201  0.50099954  1
  Ir  Ir130  1  0.49911495  0.16663071  0.75367532  1
  Ir  Ir131  1  0.49870878  0.82845471  0.75332494  1
  Ir  Ir132  1  0.50328203  0.50207017  0.74730003  1
  Ir  Ir133  1  0.66686829  0.33188793  0.25313529  1
  Ir  Ir134  1  0.83037330  0.50579156  0.74334273  1
  Ir  Ir135  1  0.16822837  0.16465597  0.25051310  1
  Ir  Ir136  1  0.66169664  0.66521367  0.74609400  1
  Ir  Ir137  1  -0.00196382  0.66384832  0.74577026  1
  Ir  Ir138  1  0.33577686  0.33695467  0.74617504  1
  Ir  Ir139  1  0.33725147  0.00218245  0.49364855  1
  Ir  Ir140  1  0.83143830  0.16862207  0.49916127  1
  Ir  Ir141  1  -0.00098923  0.33650951  0.49991838  1
  Ir  Ir142  1  0.49838067  0.83378847  -0.00677340  1
  Ir  Ir143  1  0.00276232  0.00541375  0.25154025  1
  O  O144  1  0.31998198  0.32410490  0.12336992  1
  O  O145  1  0.31718653  0.32961698  0.62441193  1
  O  O146  1  0.32080634  0.65436989  0.12314488  1
  O  O147  1  0.30509975  0.65616705  0.62604682  1
  O  O148  1  0.31073384  1.00400752  0.12801259  1
  O  O149  1  0.30559724  0.99993230  0.61147234  1
  O  O150  1  0.63317437  0.32758401  0.13188426  1
  O  O151  1  0.62705432  0.32519769  0.62531373  1
  O  O152  1  0.63577098  0.65311513  0.12399039  1
  O  O153  1  0.63249017  0.65355410  0.62607852  1
  O  O154  1  0.62364414  0.98766335  0.12433942  1
  O  O155  1  0.64409436  0.99397346  0.62168063  1
  O  O156  1  0.99329720  0.33133158  0.13345652  1
  O  O157  1  0.98115764  0.34077095  0.62386860  1
  O  O158  1  0.97169831  0.65576389  0.12606919  1
  O  O159  1  0.96984971  0.65637083  0.62752162  1
  O  O160  1  0.98903118  1.00062950  0.12922348  1
  O  O161  1  0.97296410  0.98060099  0.62332686  1
  O  O162  1  0.19486252  0.15906398  0.12569502  1
  O  O163  1  0.20593840  0.16112521  0.62151058  1
  O  O164  1  0.20087729  0.48997002  0.12511096  1
  O  O165  1  0.20131217  0.49301949  0.62422844  1
  O  O166  1  0.18603459  0.83712723  0.11853900  1
  O  O167  1  0.19848173  0.80337988  0.62409822  1
  O  O168  1  0.53400476  0.15327790  0.11488386  1
  O  O169  1  0.52998472  0.16489108  0.63216639  1
  O  O170  1  0.52052988  0.48774401  0.11612088  1
  O  O171  1  0.53697527  0.49106506  0.62693635  1
  O  O172  1  0.52692607  0.83436697  0.11275676  1
  O  O173  1  0.53031793  0.82598712  0.63154704  1
  O  O174  1  0.85290908  0.16904111  0.13461816  1
  O  O175  1  0.84964099  0.16664694  0.61778005  1
  O  O176  1  0.85167000  0.48837350  0.12867215  1
  O  O177  1  0.85326320  0.50875706  0.62274192  1
  O  O178  1  0.87121388  0.82219699  0.12404928  1
  O  O179  1  0.85677058  0.82310608  0.62231465  1
  O  O180  1  0.15622403  0.18158827  0.37127319  1
  O  O181  1  0.15840268  0.18129663  0.87860133  1
  O  O182  1  0.13831896  0.49167076  0.37698866  1
  O  O183  1  0.15489680  0.51864959  0.87363972  1
  O  O184  1  0.14778323  0.85063212  0.37625605  1
  O  O185  1  0.15018121  0.82459198  0.87843530  1
  O  O186  1  0.48043964  0.16878264  0.38675512  1
  O  O187  1  0.47150999  0.17038182  0.87543960  1
  O  O188  1  0.46987194  0.50147258  0.38787700  1
  O  O189  1  0.47719048  0.50897125  0.86979546  1
  O  O190  1  0.46977811  0.84575517  0.38623949  1
  O  O191  1  0.47080362  0.83996121  0.87318457  1
  O  O192  1  0.81201356  0.17831072  0.37516476  1
  O  O193  1  0.79137717  0.19513435  0.87358885  1
  O  O194  1  0.80024676  0.49969755  0.38488209  1
  O  O195  1  0.80060948  0.50296017  0.86043318  1
  O  O196  1  0.81602965  0.83243410  0.38293068  1
  O  O197  1  0.79183972  0.84435267  0.87376529  1
  O  O198  1  0.02805217  0.00141796  0.37316712  1
  O  O199  1  0.02088805  0.00261538  0.87171225  1
  O  O200  1  0.02949813  0.33711566  0.37891072  1
  O  O201  1  0.03340138  0.33786619  0.86691907  1
  O  O202  1  0.02557867  0.67242904  0.37834659  1
  O  O203  1  0.02868507  0.67049647  0.86481314  1
  O  O204  1  0.36974078  0.00579308  0.37092109  1
  O  O205  1  0.36058852  0.00264294  0.88373220  1
  O  O206  1  0.35426945  0.34666295  0.38223769  1
  O  O207  1  0.34927630  0.33239565  0.86750109  1
  O  O208  1  0.35341859  0.63798628  0.37741211  1
  O  O209  1  0.36446703  0.66098564  0.86678932  1
  O  O210  1  0.68115258  0.00399830  0.38248977  1
  O  O211  1  0.70320606  0.01414472  0.87686477  1
  O  O212  1  0.69275109  0.33890771  0.37596815  1
  O  O213  1  0.69557081  0.34556717  0.87050194  1
  O  O214  1  0.68550620  0.67185721  0.38807891  1
  O  O215  1  0.68159597  0.67598832  0.86589943  1
  O  O216  1  0.08051974  0.09792748  0.00961131  1
  O  O217  1  0.08239475  0.08938698  0.52367317  1
  O  O218  1  0.08148785  0.42933404  0.00943005  1
  O  O219  1  0.07110753  0.42928819  0.51148559  1
  O  O220  1  0.07433499  0.76467352  0.02170680  1
  O  O221  1  0.07148433  0.75889210  0.53334094  1
  O  O222  1  0.40516091  0.09637910  0.02978518  1
  O  O223  1  0.40017125  0.10119580  0.52524370  1
  O  O224  1  0.40780911  0.43052720  0.02405046  1
  O  O225  1  0.40833161  0.43288530  0.53127853  1
  O  O226  1  0.40771904  0.76691606  0.01254452  1
  O  O227  1  0.41853383  0.75710502  0.52064108  1
  O  O228  1  0.72274870  0.10560378  0.02358755  1
  O  O229  1  0.73418281  0.09787149  0.52413887  1
  O  O230  1  0.72915169  0.43807046  -0.00028148  1
  O  O231  1  0.73457876  0.43707445  0.52444306  1
  O  O232  1  0.71869467  0.77203892  0.01513410  1
  O  O233  1  0.73475190  0.76057300  0.53291719  1
  O  O234  1  0.10186866  0.25766927  0.00741272  1
  O  O235  1  0.08985082  0.26386909  0.51024415  1
  O  O236  1  0.10515562  0.59306688  0.00713512  1
  O  O237  1  0.10756615  0.58901517  0.52586866  1
  O  O238  1  0.08942510  0.91685413  0.01571542  1
  O  O239  1  0.10321947  0.92985007  0.52698237  1
  O  O240  1  0.43628749  0.25659650  0.02606993  1
  O  O241  1  0.43034868  0.26331618  0.53280384  1
  O  O242  1  0.43309176  0.58842280  0.00851752  1
  O  O243  1  0.43438737  0.59048871  0.53730205  1
  O  O244  1  0.43562826  0.93601938  0.01925675  1
  O  O245  1  0.43392237  0.93599160  0.51399374  1
  O  O246  1  0.75164066  0.26080893  0.03371739  1
  O  O247  1  0.75643593  0.25532905  0.51492203  1
  O  O248  1  0.76891564  0.60621342  0.02208751  1
  O  O249  1  0.76184395  0.59867211  0.52939008  1
  O  O250  1  0.74940173  0.92358381  0.03634563  1
  O  O251  1  0.75384321  0.92196442  0.52215798  1
  O  O252  1  0.23291185  0.06763189  0.27359483  1
  O  O253  1  0.23992384  0.07156270  0.76268141  1
  O  O254  1  0.23113682  0.39776923  0.27765556  1
  O  O255  1  0.23724934  0.40157521  0.77106761  1
  O  O256  1  0.24366280  0.74273103  0.27176378  1
  O  O257  1  0.23600506  0.71880836  0.76958082  1
  O  O258  1  0.56169678  0.06946437  0.27218047  1
  O  O259  1  0.56026307  0.07068064  0.78185968  1
  O  O260  1  0.57541573  0.39999434  0.26952269  1
  O  O261  1  0.57183182  0.41301620  0.77026528  1
  O  O262  1  0.57510514  0.74332605  0.26631748  1
  O  O263  1  0.56292716  0.72871823  0.76967800  1
  O  O264  1  0.90691453  0.07822281  0.27264944  1
  O  O265  1  0.89555859  0.07512968  0.77454322  1
  O  O266  1  0.91082440  0.39580584  0.28278015  1
  O  O267  1  0.89989629  0.41083008  0.76904956  1
  O  O268  1  0.90294146  0.73588617  0.26380082  1
  O  O269  1  0.90484368  0.73206742  0.75583962  1
  O  O270  1  0.26212520  0.23040734  0.25496557  1
  O  O271  1  0.26374996  0.24817692  0.75929289  1
  O  O272  1  0.26470626  0.55086372  0.26521039  1
  O  O273  1  0.27059572  0.56293347  0.75451481  1
  O  O274  1  0.26651094  0.91412191  0.27606984  1
  O  O275  1  0.25996669  0.90599435  0.75801631  1
  O  O276  1  0.60220433  0.23914474  0.26224385  1
  O  O277  1  0.59362889  0.22941496  0.77467929  1
  O  O278  1  0.60210266  0.56315168  0.28128975  1
  O  O279  1  0.59741721  0.56933669  0.77366192  1
  O  O280  1  0.58384037  0.91333622  0.27671824  1
  O  O281  1  0.58824715  0.89882372  0.77902319  1
  O  O282  1  0.92844177  0.24191339  0.27568753  1
  O  O283  1  0.92342804  0.25803054  0.76870872  1
  O  O284  1  0.93887481  0.55926986  0.28149765  1
  O  O285  1  0.92542854  0.57293439  0.76533124  1
  O  O286  1  0.93022689  0.91831054  0.25938807  1
  O  O287  1  0.91506401  0.90984457  0.77204167  1
  O  O288  1  0.26498455  0.24944140  0.48365583  1
  O  O289  1  0.26288495  0.23376356  0.99529641  1
  O  O290  1  0.26776358  0.55456210  0.48876867  1
  O  O291  1  0.26343656  0.56535185  0.99193860  1
  O  O292  1  0.27299187  0.91075149  0.46876173  1
  O  O293  1  0.26267974  0.90654356  0.98278508  1
  O  O294  1  0.58903262  0.23452722  0.49287480  1
  O  O295  1  0.59346413  0.22967988  0.97463914  1
  O  O296  1  0.60145877  0.56722877  0.48265855  1
  O  O297  1  0.59176778  0.56653809  0.96471209  1
  O  O298  1  0.59192175  0.90827343  0.48378256  1
  O  O299  1  0.58858125  0.90100278  0.96478535  1
  O  O300  1  0.91853314  0.24940466  0.47496078  1
  O  O301  1  0.92107745  0.24630227  0.97791752  1
  O  O302  1  0.92790965  0.56300184  0.47929786  1
  O  O303  1  0.92953342  0.57033898  0.97833208  1
  O  O304  1  0.92281047  0.89822935  0.48816977  1
  O  O305  1  0.91624808  0.91539320  0.97933070  1
  O  O306  1  0.24218598  0.06318537  0.47011986  1
  O  O307  1  0.24094117  0.07110901  0.98559934  1
  O  O308  1  0.24033166  0.40259163  0.47294418  1
  O  O309  1  0.23306861  0.40180285  0.97379511  1
  O  O310  1  0.25575213  0.74792583  0.46668639  1
  O  O311  1  0.23319901  0.73572875  0.97842476  1
  O  O312  1  0.56609947  0.06912526  0.48211634  1
  O  O313  1  0.56069780  0.06888219  0.96884951  1
  O  O314  1  0.57286863  0.41482753  0.47988175  1
  O  O315  1  0.56493199  0.40519104  0.98246469  1
  O  O316  1  0.56939432  0.73692217  0.49641536  1
  O  O317  1  0.56038307  0.73911801  0.96580828  1
  O  O318  1  0.90539871  0.08163676  0.48484806  1
  O  O319  1  0.89595806  0.07273455  0.97619381  1
  O  O320  1  0.90039127  0.40743982  0.47339415  1
  O  O321  1  0.90311682  0.40269703  0.97236603  1
  O  O322  1  0.89793668  0.73812352  0.49670126  1
  O  O323  1  0.90468832  0.74128564  0.98058338  1
  O  O324  1  0.10307284  0.26376159  0.24135626  1
  O  O325  1  0.09039577  0.26517259  0.73599357  1
  O  O326  1  0.10464271  0.58318079  0.23469817  1
  O  O327  1  0.10295160  0.59849103  0.73228594  1
  O  O328  1  0.08942624  0.93268243  0.23724521  1
  O  O329  1  0.09145602  0.91902134  0.71485516  1
  O  O330  1  0.43373755  0.26407911  0.22674117  1
  O  O331  1  0.43258998  0.26619245  0.72232494  1
  O  O332  1  0.42537469  0.58674752  0.22685458  1
  O  O333  1  0.43463274  0.59621891  0.72113543  1
  O  O334  1  0.42703304  0.94176292  0.22880049  1
  O  O335  1  0.43333876  0.92472605  0.74049186  1
  O  O336  1  0.76401341  0.26374254  0.23720384  1
  O  O337  1  0.75200682  0.26005929  0.71367393  1
  O  O338  1  0.77103844  0.60024197  0.23185437  1
  O  O339  1  0.75994074  0.60070299  0.71844656  1
  O  O340  1  0.75140734  0.92278686  0.23217059  1
  O  O341  1  0.74500884  0.91745311  0.72042943  1
  O  O342  1  0.07372871  0.09862913  0.24057744  1
  O  O343  1  0.07840830  0.09030638  0.71938373  1
  O  O344  1  0.06858230  0.42638060  0.24516809  1
  O  O345  1  0.08019592  0.43021245  0.73318133  1
  O  O346  1  0.06765978  0.76574527  0.22101133  1
  O  O347  1  0.06603804  0.75320135  0.72045091  1
  O  O348  1  0.39766436  0.09927491  0.22175570  1
  O  O349  1  0.40381188  0.10473925  0.72795909  1
  O  O350  1  0.40516330  0.42882502  0.22729575  1
  O  O351  1  0.40923882  0.43177811  0.72014624  1
  O  O352  1  0.40122902  0.76803876  0.25055878  1
  O  O353  1  0.40717825  0.75350590  0.72472074  1
  O  O354  1  0.73925928  0.10425585  0.23061868  1
  O  O355  1  0.72121821  0.10426093  0.73065007  1
  O  O356  1  0.73478574  0.42236499  0.24811781  1
  O  O357  1  0.73571912  0.44050943  0.72325704  1
  O  O358  1  0.73963956  0.76087356  0.21221347  1
  O  O359  1  0.72465463  0.75815216  0.72062966  1
