# generated using pymatgen
data_BaLaInIrO6
_symmetry_space_group_name_H-M   'P 1'
_cell_length_a   17.51092515
_cell_length_b   17.53632331
_cell_length_c   16.48105438
_cell_angle_alpha   89.98288206
_cell_angle_beta   90.05445703
_cell_angle_gamma   90.00613064
_symmetry_Int_Tables_number   1
_chemical_formula_structural   BaLaInIrO6
_chemical_formula_sum   'Ba36 La36 In36 Ir36 O216'
_cell_volume   5060.95423029
_cell_formula_units_Z   36
loop_
 _symmetry_equiv_pos_site_id
 _symmetry_equiv_pos_as_xyz
  1  'x, y, z'
loop_
 _atom_site_type_symbol
 _atom_site_label
 _atom_site_symmetry_multiplicity
 _atom_site_fract_x
 _atom_site_fract_y
 _atom_site_fract_z
 _atom_site_occupancy
  Ba  Ba0  1  0.66777742  0.15543720  0.38047383  1
  Ba  Ba1  1  0.33930605  0.50507285  0.12795121  1
  Ba  Ba2  1  1.00092748  0.83900157  0.61983698  1
  Ba  Ba3  1  0.33132980  0.15490653  0.87358856  1
  Ba  Ba4  1  0.50192542  0.99390882  0.87062664  1
  Ba  Ba5  1  0.16810707  0.65918390  0.37650972  1
  Ba  Ba6  1  0.50170073  0.00838052  0.12109355  1
  Ba  Ba7  1  -0.00130136  0.82849056  0.87251567  1
  Ba  Ba8  1  0.50283928  0.65624866  0.38013660  1
  Ba  Ba9  1  0.32959126  0.17200875  0.62770152  1
  Ba  Ba10  1  0.66497249  0.49012349  0.87257366  1
  Ba  Ba11  1  0.50069827  0.65917853  0.87662791  1
  Ba  Ba12  1  0.99961790  0.84870505  0.12996568  1
  Ba  Ba13  1  0.50364798  0.99060451  0.37583381  1
  Ba  Ba14  1  0.83325040  0.33988291  0.62184876  1
  Ba  Ba15  1  0.33435628  0.82740680  0.87566847  1
  Ba  Ba16  1  0.66265598  0.50578820  0.12511134  1
  Ba  Ba17  1  0.16105831  0.67856098  0.62498876  1
  Ba  Ba18  1  0.66274038  0.15892473  0.87275773  1
  Ba  Ba19  1  0.66152529  0.82479287  0.87715366  1
  Ba  Ba20  1  1.00026371  0.17466291  0.12450128  1
  Ba  Ba21  1  0.66708707  0.48564697  0.37735488  1
  Ba  Ba22  1  0.83407231  0.67414645  0.62080708  1
  Ba  Ba23  1  0.00264569  0.82544000  0.37453357  1
  Ba  Ba24  1  -0.00449399  0.15276976  0.87190834  1
  Ba  Ba25  1  0.83591316  0.65965174  0.37356566  1
  Ba  Ba26  1  0.33410407  0.84254219  0.62310210  1
  Ba  Ba27  1  1.00114925  0.17387280  0.62084033  1
  Ba  Ba28  1  0.16543425  0.00848917  0.12655891  1
  Ba  Ba29  1  0.16530821  0.99420134  0.87432042  1
  Ba  Ba30  1  0.66788114  0.84035616  0.12752674  1
  Ba  Ba31  1  0.49803177  0.32645595  0.87819641  1
  Ba  Ba32  1  -0.00423459  0.15630820  0.37376063  1
  Ba  Ba33  1  -0.00408518  0.49594773  0.37844032  1
  Ba  Ba34  1  0.16291580  0.00603394  0.62323569  1
  Ba  Ba35  1  1.00075854  0.51061360  0.62490504  1
  La  La36  1  0.33854804  0.85033679  0.12303294  1
  La  La37  1  0.83074263  0.68273974  0.12867282  1
  La  La38  1  0.84113553  0.32014303  0.37370516  1
  La  La39  1  0.83399840  0.65507091  0.87702179  1
  La  La40  1  0.16255606  0.68823064  0.12463480  1
  La  La41  1  0.33233082  0.48069056  0.38057457  1
  La  La42  1  0.66464340  0.81720343  0.37833495  1
  La  La43  1  0.66726344  0.18096103  0.62272473  1
  La  La44  1  0.33547810  0.18087086  0.12046578  1
  La  La45  1  0.49529062  0.01542869  0.62313741  1
  La  La46  1  0.67159928  0.17448692  0.12948203  1
  La  La47  1  0.32881435  0.48319699  0.87785695  1
  La  La48  1  0.32375064  0.82119924  0.36761136  1
  La  La49  1  0.83895532  0.98485765  0.87407470  1
  La  La50  1  0.51254975  0.33336307  0.11898042  1
  La  La51  1  0.82723531  0.34747500  0.12586791  1
  La  La52  1  0.83757470  0.98211580  0.37526917  1
  La  La53  1  0.50707179  0.31909871  0.37396978  1
  La  La54  1  0.17105892  0.31573899  0.87237132  1
  La  La55  1  0.67247518  0.84928567  0.62094308  1
  La  La56  1  0.49789564  0.34521855  0.62591803  1
  La  La57  1  0.50054600  0.68635045  0.12604195  1
  La  La58  1  0.83716538  0.31567850  0.87115271  1
  La  La59  1  0.83113331  0.01603751  0.62134962  1
  La  La60  1  0.16438992  0.34510331  0.12396294  1
  La  La61  1  0.33015925  0.15392447  0.37844979  1
  La  La62  1  0.49929414  0.68157490  0.62994395  1
  La  La63  1  0.15835551  0.33355316  0.38066613  1
  La  La64  1  0.82634151  0.01119923  0.12724881  1
  La  La65  1  0.16482979  0.98700336  0.37311532  1
  La  La66  1  0.15679380  0.34171017  0.62814856  1
  La  La67  1  0.67253778  0.51503542  0.62454162  1
  La  La68  1  0.17597586  0.65384579  0.87464400  1
  La  La69  1  0.33560981  0.51410523  0.62555361  1
  La  La70  1  1.00602153  0.51673833  0.12461976  1
  La  La71  1  -0.00343022  0.48873820  0.87553244  1
  In  In72  1  0.16598806  0.16750000  0.49609165  1
  In  In73  1  0.00255802  0.66828765  0.75427690  1
  In  In74  1  0.16835243  0.49926265  0.50258197  1
  In  In75  1  0.33431382  0.66800307  0.75059923  1
  In  In76  1  0.49893531  0.49834475  0.25372603  1
  In  In77  1  0.16514618  0.16444779  0.74827716  1
  In  In78  1  0.00312224  0.66831205  -0.00210326  1
  In  In79  1  -0.00171860  0.33304356  0.75225628  1
  In  In80  1  0.66696882  0.66187446  0.25315865  1
  In  In81  1  0.49970315  0.83583951  -0.00177136  1
  In  In82  1  0.50034419  0.83678912  0.50009338  1
  In  In83  1  0.16901998  0.16922719  0.25095098  1
  In  In84  1  0.66738200  0.66400077  0.00086305  1
  In  In85  1  0.33312238  0.00427044  0.24990931  1
  In  In86  1  0.16858280  0.49882784  0.24949874  1
  In  In87  1  0.33545866  0.33020147  0.25258085  1
  In  In88  1  0.16355782  0.16656599  0.00245732  1
  In  In89  1  0.83550409  0.16721585  0.00091470  1
  In  In90  1  0.50117940  0.50108587  0.74846495  1
  In  In91  1  0.66581498  -0.00199364  0.25601134  1
  In  In92  1  -0.00010186  0.66759047  0.24820903  1
  In  In93  1  0.33478836  0.66257109  0.24851734  1
  In  In94  1  0.83287994  0.83287553  -0.00113081  1
  In  In95  1  0.49890336  0.50035696  0.00170043  1
  In  In96  1  -0.00156348  0.33614315  0.24359652  1
  In  In97  1  0.83133417  0.49771418  0.49879604  1
  In  In98  1  0.49945118  0.16741242  0.24980898  1
  In  In99  1  -0.00473014  -0.00226185  0.74536138  1
  In  In100  1  0.33128516  0.33408550  0.74414699  1
  In  In101  1  0.33211966  0.66576438  0.00504718  1
  In  In102  1  0.83187820  0.49851543  0.75267805  1
  In  In103  1  0.33698990  0.66641634  0.50086213  1
  In  In104  1  0.67144776  0.33328692  -0.00447794  1
  In  In105  1  0.16779333  0.83637927  0.50104944  1
  In  In106  1  0.50091208  0.16811467  0.74897393  1
  In  In107  1  0.66875479  0.00373177  -0.00139137  1
  Ir  Ir108  1  0.83038376  0.83558851  0.50223434  1
  Ir  Ir109  1  0.16826888  0.83688515  0.24653291  1
  Ir  Ir110  1  0.33811379  0.33130680  0.50175116  1
  Ir  Ir111  1  0.83357369  0.16579884  0.25256603  1
  Ir  Ir112  1  0.83514499  0.49596971  0.24515707  1
  Ir  Ir113  1  -0.00593791  0.00016085  0.49389854  1
  Ir  Ir114  1  0.66862092  -0.00043157  0.74221186  1
  Ir  Ir115  1  0.16620789  0.49850999  0.75602620  1
  Ir  Ir116  1  0.84035907  0.49850662  0.00169871  1
  Ir  Ir117  1  0.16640968  0.83596224  0.00009318  1
  Ir  Ir118  1  0.83327054  0.83566156  0.25346356  1
  Ir  Ir119  1  -0.00460208  0.00080423  0.25084430  1
  Ir  Ir120  1  0.82682906  0.83390157  0.74508427  1
  Ir  Ir121  1  0.82899481  0.16660635  0.49950263  1
  Ir  Ir122  1  0.33510568  -0.00431314  0.74637342  1
  Ir  Ir123  1  -0.00188483  0.33886682  -0.00120108  1
  Ir  Ir124  1  0.50277734  0.49631883  0.50649373  1
  Ir  Ir125  1  -0.00178268  0.66877056  0.50002241  1
  Ir  Ir126  1  0.50005628  0.16821961  0.50144142  1
  Ir  Ir127  1  0.16684654  0.83553818  0.75396295  1
  Ir  Ir128  1  0.67267028  0.32907967  0.25580706  1
  Ir  Ir129  1  0.16473490  0.49662980  -0.00221520  1
  Ir  Ir130  1  0.66687013  0.33133875  0.74421916  1
  Ir  Ir131  1  0.82572191  0.16452617  0.74558671  1
  Ir  Ir132  1  0.49650721  0.83385990  0.25375360  1
  Ir  Ir133  1  -0.00070093  0.33350843  0.50022041  1
  Ir  Ir134  1  0.66267419  0.33066822  0.50037826  1
  Ir  Ir135  1  0.33677483  0.00369673  0.49934726  1
  Ir  Ir136  1  0.50748252  0.83571687  0.74502150  1
  Ir  Ir137  1  0.66446557  0.66682797  0.50372276  1
  Ir  Ir138  1  0.49879116  0.16785194  0.00117751  1
  Ir  Ir139  1  0.66779097  0.67018667  0.74621491  1
  Ir  Ir140  1  0.32843523  0.33365925  -0.00128025  1
  Ir  Ir141  1  0.33106556  0.00018338  -0.00258016  1
  Ir  Ir142  1  -0.00349419  -0.00254619  0.00220686  1
  Ir  Ir143  1  0.66800294  0.00031967  0.50304906  1
  O  O144  1  0.30277951  0.32500779  0.11986113  1
  O  O145  1  0.29604933  0.33103519  0.61608191  1
  O  O146  1  0.29162600  0.65641335  0.12643917  1
  O  O147  1  0.30808261  0.65242810  0.62683682  1
  O  O148  1  0.31527706  0.99151517  0.11862279  1
  O  O149  1  0.31269911  0.99833832  0.62221413  1
  O  O150  1  0.64893764  0.32010351  0.13391904  1
  O  O151  1  0.63185360  0.32177358  0.62215896  1
  O  O152  1  0.63824690  0.66564894  0.12966366  1
  O  O153  1  0.63640217  0.65751234  0.62533173  1
  O  O154  1  0.65802603  1.00087940  0.12900786  1
  O  O155  1  0.63315947  0.98964679  0.62197247  1
  O  O156  1  0.96285621  0.33156705  0.11498190  1
  O  O157  1  0.98379802  0.33413927  0.62054508  1
  O  O158  1  0.96796889  0.65915846  0.12186238  1
  O  O159  1  0.98694270  0.67207455  0.62320235  1
  O  O160  1  0.96433316  1.00257697  0.12728947  1
  O  O161  1  0.96750451  0.99864082  0.61466668  1
  O  O162  1  0.19857831  0.16535602  0.12489607  1
  O  O163  1  0.17839495  0.16903061  0.62055405  1
  O  O164  1  0.19104511  0.48009561  0.11532227  1
  O  O165  1  0.19647256  0.48429430  0.63469796  1
  O  O166  1  0.19787998  0.83043478  0.12231063  1
  O  O167  1  0.18209384  0.83564345  0.63219218  1
  O  O168  1  0.53015455  0.16924291  0.12004879  1
  O  O169  1  0.53038779  0.15750851  0.62009333  1
  O  O170  1  0.51121766  0.46750179  0.12857379  1
  O  O171  1  0.53855165  0.48224011  0.62259334  1
  O  O172  1  0.51784479  0.83248075  0.13450393  1
  O  O173  1  0.53609041  0.83071154  0.62715833  1
  O  O174  1  0.85297145  0.15082558  0.13243473  1
  O  O175  1  0.85208982  0.15412006  0.62201281  1
  O  O176  1  0.86938524  0.48252808  0.12255760  1
  O  O177  1  0.84921314  0.49770103  0.62620818  1
  O  O178  1  0.84954868  0.82612253  0.13239683  1
  O  O179  1  0.85208590  0.82917054  0.62388749  1
  O  O180  1  0.14635631  0.19398718  0.37423285  1
  O  O181  1  0.14586731  0.17658476  0.87722198  1
  O  O182  1  0.14586121  0.48743032  0.37726768  1
  O  O183  1  0.13281648  0.51268426  0.87717507  1
  O  O184  1  0.15460569  0.84566680  0.36833054  1
  O  O185  1  0.14527538  0.83948259  0.87803185  1
  O  O186  1  0.46749958  0.17975819  0.38101958  1
  O  O187  1  0.48145958  0.17018235  0.87951062  1
  O  O188  1  0.46890687  0.50250191  0.39001363  1
  O  O189  1  0.46691669  0.50094316  0.87317197  1
  O  O190  1  0.46381477  0.83409913  0.37312493  1
  O  O191  1  0.48717715  0.83489262  0.86452324  1
  O  O192  1  0.81354190  0.18399297  0.37546781  1
  O  O193  1  0.81196526  0.17610512  0.86825727  1
  O  O194  1  0.81678333  0.50289251  0.36675164  1
  O  O195  1  0.81283635  0.51468108  0.88335221  1
  O  O196  1  0.80102359  0.84378436  0.37925001  1
  O  O197  1  0.80945818  0.84847372  0.86545667  1
  O  O198  1  0.02603924  -0.00057013  0.37266532  1
  O  O199  1  0.00723729  -0.00462534  0.88000014  1
  O  O200  1  0.02110303  0.33637430  0.37790136  1
  O  O201  1  0.03273007  0.34692116  0.88202816  1
  O  O202  1  0.01266063  0.66276030  0.37728969  1
  O  O203  1  0.04104213  0.66956372  0.87742902  1
  O  O204  1  0.35856220  0.01415736  0.38040065  1
  O  O205  1  0.35358886  -0.00295378  0.87109949  1
  O  O206  1  0.37158675  0.33760421  0.38590784  1
  O  O207  1  0.34860289  0.34202199  0.87712970  1
  O  O208  1  0.35375081  0.68542123  0.37405907  1
  O  O209  1  0.34691821  0.66692378  0.87712132  1
  O  O210  1  0.70124143  0.00186584  0.38445985  1
  O  O211  1  0.70297507  0.00590592  0.86187268  1
  O  O212  1  0.70220612  0.33228068  0.37919070  1
  O  O213  1  0.70058353  0.33230634  0.86466987  1
  O  O214  1  0.68627992  0.67833328  0.38235182  1
  O  O215  1  0.69863719  0.67257890  0.86657290  1
  O  O216  1  0.06618380  0.08830499  0.01375038  1
  O  O217  1  0.06767209  0.08723164  0.50758870  1
  O  O218  1  0.06453612  0.43356585  0.02339741  1
  O  O219  1  0.07804159  0.41680531  0.52320075  1
  O  O220  1  0.07920289  0.76513618  0.02654790  1
  O  O221  1  0.07508010  0.75422748  0.50524789  1
  O  O222  1  0.39967457  0.09852928  0.02132661  1
  O  O223  1  0.41005439  0.09517130  0.52532596  1
  O  O224  1  0.39568670  0.42412781  0.00731947  1
  O  O225  1  0.40574677  0.42898297  0.53256253  1
  O  O226  1  0.40171981  0.76556753  0.03028320  1
  O  O227  1  0.42138062  0.75052669  0.53133136  1
  O  O228  1  0.73420901  0.10431039  0.02475727  1
  O  O229  1  0.73724613  0.09403196  0.53001817  1
  O  O230  1  0.75081468  0.42863698  0.02158101  1
  O  O231  1  0.72862812  0.42330905  0.52532791  1
  O  O232  1  0.74582687  0.75343534  0.02191530  1
  O  O233  1  0.73147142  0.76744161  0.52052078  1
  O  O234  1  0.09262567  0.27339088  0.02240711  1
  O  O235  1  0.09522669  0.27014084  0.51843949  1
  O  O236  1  0.10282211  0.59160112  0.02859966  1
  O  O237  1  0.08641419  0.59357333  0.51353465  1
  O  O238  1  0.09379134  0.92969641  0.01840812  1
  O  O239  1  0.08721827  0.92972244  0.50636618  1
  O  O240  1  0.42322633  0.26314641  0.02871820  1
  O  O241  1  0.43507554  0.26549016  0.52745206  1
  O  O242  1  0.43392998  0.60113668  0.03140978  1
  O  O243  1  0.43744496  0.58666914  0.53518253  1
  O  O244  1  0.41824299  0.92779211  0.01410091  1
  O  O245  1  0.43078669  0.93638038  0.52399815  1
  O  O246  1  0.76688912  0.26533791  0.02410363  1
  O  O247  1  0.75152514  0.25428257  0.52636655  1
  O  O248  1  0.78041063  0.59530495  0.02472439  1
  O  O249  1  0.74834925  0.58939939  0.51963283  1
  O  O250  1  0.77321210  0.93850402  0.01269944  1
  O  O251  1  0.76252609  0.93133364  0.52832489  1
  O  O252  1  0.23226103  0.06681591  0.28185167  1
  O  O253  1  0.24730065  0.06886789  0.76000284  1
  O  O254  1  0.22724039  0.38800919  0.26747709  1
  O  O255  1  0.23191414  0.40725631  0.78081718  1
  O  O256  1  0.23815625  0.74754894  0.26386497  1
  O  O257  1  0.23361862  0.74089115  0.77296845  1
  O  O258  1  0.57389429  0.07549351  0.26786106  1
  O  O259  1  0.57868856  0.06982110  0.75775436  1
  O  O260  1  0.57701215  0.39419810  0.27610360  1
  O  O261  1  0.57504516  0.39894072  0.76277915  1
  O  O262  1  0.56948172  0.74610764  0.27109103  1
  O  O263  1  0.57307739  0.73756405  0.76130194  1
  O  O264  1  0.89603607  0.06577166  0.27356681  1
  O  O265  1  0.88888732  0.06836944  0.76467687  1
  O  O266  1  0.89503614  0.39943581  0.26728580  1
  O  O267  1  0.90498974  0.40466736  0.78349843  1
  O  O268  1  0.90334560  0.74404449  0.26169317  1
  O  O269  1  0.89217624  0.73898263  0.77264921  1
  O  O270  1  0.28269167  0.22237110  0.26534602  1
  O  O271  1  0.25546272  0.24501947  0.76978010  1
  O  O272  1  0.26896760  0.56181710  0.28184145  1
  O  O273  1  0.26074429  0.56325415  0.77616315  1
  O  O274  1  0.26192903  0.90378863  0.26570973  1
  O  O275  1  0.26223126  0.90418119  0.76428960  1
  O  O276  1  0.60104027  0.24173125  0.27306469  1
  O  O277  1  0.60088863  0.23927301  0.75684012  1
  O  O278  1  0.59601426  0.56733304  0.27185155  1
  O  O279  1  0.59979310  0.57787130  0.76098582  1
  O  O280  1  0.59452559  0.89703610  0.28002226  1
  O  O281  1  0.60222838  0.90612870  0.76248353  1
  O  O282  1  0.92124306  0.24005636  0.26613896  1
  O  O283  1  0.91482306  0.23989580  0.76595563  1
  O  O284  1  0.92825361  0.56236811  0.25360235  1
  O  O285  1  0.92718447  0.57510279  0.78221480  1
  O  O286  1  0.92306845  0.91076169  0.27413993  1
  O  O287  1  0.91494780  0.90667380  0.76274063  1
  O  O288  1  0.27452391  0.23915609  0.47404527  1
  O  O289  1  0.25920588  0.24539732  0.98130152  1
  O  O290  1  0.27216408  0.56176918  0.48621019  1
  O  O291  1  0.25744057  0.56191391  0.97062988  1
  O  O292  1  0.26602154  0.91493141  0.47051501  1
  O  O293  1  0.26320776  0.90480357  0.98552596  1
  O  O294  1  0.58889244  0.24161424  0.47573350  1
  O  O295  1  0.58984081  0.23833816  0.99112035  1
  O  O296  1  0.59832411  0.56565542  0.49006427  1
  O  O297  1  0.59806480  0.56892625  0.98294389  1
  O  O298  1  0.60549812  0.90368655  0.47853142  1
  O  O299  1  0.59162775  0.91322320  0.98744460  1
  O  O300  1  0.91885504  0.24518395  0.47676425  1
  O  O301  1  0.92784569  0.24853553  0.97355879  1
  O  O302  1  0.92167147  0.58381864  0.49203404  1
  O  O303  1  0.93661362  0.56052525  0.98065080  1
  O  O304  1  0.91929734  0.91023918  0.47281797  1
  O  O305  1  0.92943985  0.90732055  0.98813552  1
  O  O306  1  0.24305611  0.07155067  0.47226339  1
  O  O307  1  0.24467015  0.07218428  0.98460072  1
  O  O308  1  0.24666014  0.39723643  0.47244820  1
  O  O309  1  0.23127676  0.40021645  0.97048346  1
  O  O310  1  0.24962739  0.75161144  0.48089544  1
  O  O311  1  0.22690442  0.73743461  0.98321678  1
  O  O312  1  0.57137591  0.07061755  0.48572339  1
  O  O313  1  0.56889063  0.07983130  0.98311448  1
  O  O314  1  0.56560039  0.39772520  0.47832006  1
  O  O315  1  0.57540743  0.40208826  0.98987897  1
  O  O316  1  0.58175990  0.74335942  0.48422180  1
  O  O317  1  0.56947784  0.73822287  0.99331431  1
  O  O318  1  0.89498292  0.06902925  0.47612089  1
  O  O319  1  0.90064414  0.06329717  0.98248526  1
  O  O320  1  0.90465778  0.40023669  0.47664572  1
  O  O321  1  0.90312545  0.40310625  0.96823798  1
  O  O322  1  0.90538910  0.74534299  0.48113198  1
  O  O323  1  0.90178220  0.73280991  0.97345911  1
  O  O324  1  0.09866368  0.26868184  0.22442401  1
  O  O325  1  0.09723664  0.26938871  0.73481031  1
  O  O326  1  0.09877663  0.59800497  0.21959047  1
  O  O327  1  0.10077514  0.58994395  0.73667569  1
  O  O328  1  0.09514927  0.93264082  0.23885125  1
  O  O329  1  0.09291488  0.92234877  0.73744579  1
  O  O330  1  0.44252301  0.27356336  0.22691775  1
  O  O331  1  0.43153953  0.26475011  0.72418385  1
  O  O332  1  0.43913426  0.60431958  0.22448728  1
  O  O333  1  0.43021067  0.59502144  0.71791883  1
  O  O334  1  0.42557952  0.92317060  0.23321720  1
  O  O335  1  0.43764995  0.92826273  0.72218103  1
  O  O336  1  0.76715656  0.26073028  0.22559763  1
  O  O337  1  0.75622077  0.25757227  0.72283742  1
  O  O338  1  0.77245454  0.59274848  0.22292423  1
  O  O339  1  0.75508373  0.59698030  0.73199332  1
  O  O340  1  0.77069993  0.93178522  0.23754469  1
  O  O341  1  0.76118794  0.93048047  0.71468065  1
  O  O342  1  0.06707596  0.08976058  0.23612982  1
  O  O343  1  0.06857704  0.09083771  0.73710672  1
  O  O344  1  0.06646187  0.43305693  0.21857011  1
  O  O345  1  0.07496702  0.43157754  0.73731512  1
  O  O346  1  0.08114899  0.76197865  0.23029568  1
  O  O347  1  0.07694283  0.76618249  0.73853161  1
  O  O348  1  0.39855545  0.10329185  0.22325243  1
  O  O349  1  0.41138902  0.08229245  0.72927274  1
  O  O350  1  0.39479621  0.43512031  0.25710177  1
  O  O351  1  0.40166100  0.43041358  0.72001970  1
  O  O352  1  0.40287660  0.76947541  0.22485086  1
  O  O353  1  0.41946811  0.76198374  0.72696300  1
  O  O354  1  0.74171036  0.09972313  0.23163178  1
  O  O355  1  0.73409344  0.09321131  0.71334931  1
  O  O356  1  0.74371032  0.42156578  0.22774593  1
  O  O357  1  0.73165278  0.42562425  0.72511059  1
  O  O358  1  0.74479179  0.76138009  0.24166771  1
  O  O359  1  0.73159528  0.76701817  0.72240585  1
