# generated using pymatgen
data_BaLaInIrO6
_symmetry_space_group_name_H-M   'P 1'
_cell_length_a   17.55404150
_cell_length_b   17.57542604
_cell_length_c   16.50752558
_cell_angle_alpha   90.04602202
_cell_angle_beta   90.01167439
_cell_angle_gamma   89.86917307
_symmetry_Int_Tables_number   1
_chemical_formula_structural   BaLaInIrO6
_chemical_formula_sum   'Ba36 La36 In36 Ir36 O216'
_cell_volume   5092.88277417
_cell_formula_units_Z   36
loop_
 _symmetry_equiv_pos_site_id
 _symmetry_equiv_pos_as_xyz
  1  'x, y, z'
loop_
 _atom_site_type_symbol
 _atom_site_label
 _atom_site_symmetry_multiplicity
 _atom_site_fract_x
 _atom_site_fract_y
 _atom_site_fract_z
 _atom_site_occupancy
  Ba  Ba0  1  -0.00339043  0.15989996  0.37622269  1
  Ba  Ba1  1  0.67058607  0.83962185  0.12737303  1
  Ba  Ba2  1  0.67285181  0.17119154  0.12790403  1
  Ba  Ba3  1  0.66754861  0.49095371  0.37240811  1
  Ba  Ba4  1  0.83327777  0.00654269  0.12647748  1
  Ba  Ba5  1  0.66343273  0.82194849  0.87745726  1
  Ba  Ba6  1  1.00307678  0.84583288  0.12816560  1
  Ba  Ba7  1  0.50408086  0.99343664  0.37709333  1
  Ba  Ba8  1  0.82922337  0.32595736  0.87511567  1
  Ba  Ba9  1  0.49883057  0.67259617  0.62310664  1
  Ba  Ba10  1  0.50485366  0.99124888  0.87467159  1
  Ba  Ba11  1  -0.00630679  0.81939050  0.37557684  1
  Ba  Ba12  1  0.84002960  0.32313806  0.37549907  1
  Ba  Ba13  1  0.67122203  0.50311658  0.12494382  1
  Ba  Ba14  1  0.16499586  0.32652982  0.37558943  1
  Ba  Ba15  1  0.33234139  0.82249741  0.87484506  1
  Ba  Ba16  1  0.50007209  0.65868899  0.87298500  1
  Ba  Ba17  1  0.33460894  0.15927247  0.87434019  1
  Ba  Ba18  1  0.83300471  0.66236349  0.87603073  1
  Ba  Ba19  1  0.32969858  0.48540282  0.37726978  1
  Ba  Ba20  1  1.00401929  0.50688555  0.61626098  1
  Ba  Ba21  1  0.33194016  0.50427006  0.62129865  1
  Ba  Ba22  1  0.83407812  0.33902775  0.12692896  1
  Ba  Ba23  1  0.83254144  0.67012502  0.12814219  1
  Ba  Ba24  1  0.33235661  0.16216895  0.37848772  1
  Ba  Ba25  1  0.00148773  0.48818586  0.37159027  1
  Ba  Ba26  1  0.16622746  0.00838107  0.62798143  1
  Ba  Ba27  1  0.83703085  0.99188765  0.37168128  1
  Ba  Ba28  1  0.99864564  0.50549954  0.12716364  1
  Ba  Ba29  1  0.66826665  0.50966252  0.62064024  1
  Ba  Ba30  1  0.83219080  0.99125501  0.87766214  1
  Ba  Ba31  1  -0.00726336  0.82277217  0.87402794  1
  Ba  Ba32  1  0.50176534  0.32956452  0.87355218  1
  Ba  Ba33  1  0.66837305  0.82533517  0.37423466  1
  Ba  Ba34  1  0.33411661  0.84603129  0.62678856  1
  Ba  Ba35  1  0.33452074  0.84459165  0.12330168  1
  La  La36  1  -0.00459019  0.48651456  0.87214809  1
  La  La37  1  0.66888581  0.85229515  0.62471851  1
  La  La38  1  0.83101166  0.01853430  0.62469328  1
  La  La39  1  0.15752193  0.67709076  0.12797623  1
  La  La40  1  0.49460669  0.01825357  0.62675308  1
  La  La41  1  0.33833610  0.17977706  0.62687791  1
  La  La42  1  0.49946832  0.68135931  0.12647118  1
  La  La43  1  0.17292106  0.32564932  0.87106866  1
  La  La44  1  0.49919680  0.34978627  0.62805526  1
  La  La45  1  0.83059568  0.35096162  0.62348711  1
  La  La46  1  0.50226974  0.34010328  0.13158434  1
  La  La47  1  0.17262999  0.33746407  0.61729765  1
  La  La48  1  0.17441995  0.98273327  0.87724970  1
  La  La49  1  0.32570564  0.81598986  0.38094383  1
  La  La50  1  0.82659918  0.68481334  0.62179238  1
  La  La51  1  0.50096587  0.65137141  0.37191761  1
  La  La52  1  0.67391451  0.18702544  0.62761590  1
  La  La53  1  -0.00572485  0.15433375  0.87392302  1
  La  La54  1  0.33553816  0.51042297  0.12690577  1
  La  La55  1  0.33793270  0.18404011  0.12905409  1
  La  La56  1  0.50383440  0.32485079  0.37968053  1
  La  La57  1  0.83681105  0.64835794  0.36998309  1
  La  La58  1  1.00062068  0.18221063  0.12858137  1
  La  La59  1  0.15723753  0.67742076  0.62215385  1
  La  La60  1  0.17022448  0.64546343  0.87691137  1
  La  La61  1  0.33862165  0.49814492  0.86681508  1
  La  La62  1  0.66150518  0.15406487  0.87501776  1
  La  La63  1  1.00221671  0.84739686  0.62646630  1
  La  La64  1  0.16267909  0.34701934  0.12576174  1
  La  La65  1  0.49710627  0.01557270  0.12160441  1
  La  La66  1  0.99851595  0.18264156  0.62763976  1
  La  La67  1  0.17269579  0.98725407  0.37195841  1
  La  La68  1  0.66703945  0.15440010  0.37561168  1
  La  La69  1  0.16485306  0.64569760  0.37360471  1
  La  La70  1  0.16243762  0.02081183  0.12435155  1
  La  La71  1  0.66636299  0.49452448  0.87971874  1
  In  In72  1  0.66669829  0.66395078  0.25097665  1
  In  In73  1  0.32841943  0.66413372  0.74802354  1
  In  In74  1  -0.00214648  0.00301640  0.75046316  1
  In  In75  1  -0.00114706  0.33235368  0.50143679  1
  In  In76  1  0.33115280  0.00266923  0.00186480  1
  In  In77  1  0.66545266  0.66873321  0.49585874  1
  In  In78  1  0.50179071  0.17311207  0.00025587  1
  In  In79  1  0.16597625  0.17094309  -0.00224635  1
  In  In80  1  -0.00196633  0.00276484  0.50059524  1
  In  In81  1  0.16219753  0.83050042  0.49796070  1
  In  In82  1  0.66664153  0.66583040  0.74755646  1
  In  In83  1  0.49765577  0.83437278  0.49841967  1
  In  In84  1  0.32999579  0.66520771  0.50077961  1
  In  In85  1  0.50073823  0.49782094  0.49710454  1
  In  In86  1  0.16240652  0.82833951  0.75078372  1
  In  In87  1  0.33441004  0.00160220  0.49910454  1
  In  In88  1  0.33155478  0.66193459  0.00019126  1
  In  In89  1  0.50182993  0.83379333  0.74607981  1
  In  In90  1  0.16547032  0.82974687  -0.00022329  1
  In  In91  1  0.83459475  0.50047013  -0.00287032  1
  In  In92  1  0.16385385  0.16887186  0.75105280  1
  In  In93  1  0.33452814  0.00192088  0.24953505  1
  In  In94  1  0.33105765  0.66441490  0.24767076  1
  In  In95  1  0.49613687  0.83518125  0.25143263  1
  In  In96  1  0.33277881  0.33905139  -0.00000140  1
  In  In97  1  0.16516187  0.16450558  0.50197443  1
  In  In98  1  0.66743767  0.33205265  0.00154111  1
  In  In99  1  0.33321334  0.00287066  0.75195419  1
  In  In100  1  -0.00392299  0.66136062  0.74787046  1
  In  In101  1  0.16702779  0.83230716  0.25234750  1
  In  In102  1  0.00249728  0.33255590  -0.00404329  1
  In  In103  1  0.66646611  -0.00158383  0.25295369  1
  In  In104  1  0.83133553  0.83566579  0.74892869  1
  In  In105  1  0.83504091  0.83133605  0.00351133  1
  In  In106  1  0.66626663  -0.00036227  0.00184186  1
  In  In107  1  0.50123664  0.17064528  0.25426496  1
  Ir  Ir108  1  0.83590218  0.50052055  0.50101574  1
  Ir  Ir109  1  0.67038097  0.33124196  0.49962888  1
  Ir  Ir110  1  0.83406118  0.49808708  0.74672705  1
  Ir  Ir111  1  0.66862961  0.33194301  0.25768480  1
  Ir  Ir112  1  0.16174795  0.49351318  0.74932371  1
  Ir  Ir113  1  0.83262228  0.17277903  0.75147914  1
  Ir  Ir114  1  0.83011683  0.16798648  0.50476398  1
  Ir  Ir115  1  0.66906166  0.00592956  0.50628015  1
  Ir  Ir116  1  0.00084645  0.66150642  0.25002322  1
  Ir  Ir117  1  0.00311404  0.00851485  0.00478785  1
  Ir  Ir118  1  0.33128069  0.33392573  0.24923621  1
  Ir  Ir119  1  0.00446950  0.00759776  0.24675133  1
  Ir  Ir120  1  0.49783429  0.49357973  0.24463632  1
  Ir  Ir121  1  0.83761777  0.83155305  0.25321736  1
  Ir  Ir122  1  0.00544689  0.66186201  0.00177431  1
  Ir  Ir123  1  0.66228043  0.66197786  0.00130637  1
  Ir  Ir124  1  0.50798741  0.17410608  0.50611231  1
  Ir  Ir125  1  0.16954994  0.49490192  0.24704974  1
  Ir  Ir126  1  0.16739204  0.49686272  0.50091249  1
  Ir  Ir127  1  0.83433051  0.83347031  0.49886381  1
  Ir  Ir128  1  -0.00769359  0.66299837  0.49793010  1
  Ir  Ir129  1  -0.00033582  0.33650150  0.74953854  1
  Ir  Ir130  1  0.66687051  0.00898394  0.74356897  1
  Ir  Ir131  1  0.83555219  0.49522767  0.25173994  1
  Ir  Ir132  1  0.00229527  0.33207177  0.24772168  1
  Ir  Ir133  1  0.50684594  0.17486245  0.74532537  1
  Ir  Ir134  1  0.49922430  0.49988746  0.00482305  1
  Ir  Ir135  1  0.33798422  0.33036519  0.50216179  1
  Ir  Ir136  1  0.33384563  0.33609589  0.74894618  1
  Ir  Ir137  1  0.66863876  0.33651264  0.74483600  1
  Ir  Ir138  1  0.83579551  0.16860158  0.25061802  1
  Ir  Ir139  1  0.50199521  0.49420995  0.75221443  1
  Ir  Ir140  1  0.16755271  0.16915847  0.24912877  1
  Ir  Ir141  1  0.16571782  0.49690766  -0.00193957  1
  Ir  Ir142  1  0.50175994  0.83116394  0.00289788  1
  Ir  Ir143  1  0.83666579  0.16645372  -0.00248746  1
  O  O144  1  0.30154819  0.32694266  0.12989508  1
  O  O145  1  0.30874571  0.32259573  0.62553120  1
  O  O146  1  0.29479759  0.64685717  0.12290546  1
  O  O147  1  0.29266544  0.65642902  0.62542172  1
  O  O148  1  0.29511805  0.99973087  0.12643358  1
  O  O149  1  0.31837694  1.01995671  0.62555263  1
  O  O150  1  0.64028952  0.32886763  0.13646300  1
  O  O151  1  0.63890456  0.32407707  0.62100167  1
  O  O152  1  0.63849693  0.66121275  0.12252443  1
  O  O153  1  0.65074988  0.66022384  0.62110013  1
  O  O154  1  0.63563466  1.00746661  0.12760211  1
  O  O155  1  0.63573533  1.00042798  0.62481315  1
  O  O156  1  0.98458429  0.32972890  0.12764321  1
  O  O157  1  0.96645622  0.32617516  0.63193436  1
  O  O158  1  0.98139249  0.65708048  0.12576353  1
  O  O159  1  0.96155739  0.65527680  0.61466920  1
  O  O160  1  0.97963509  1.01234100  0.12640928  1
  O  O161  1  0.96130860  0.99318854  0.62497628  1
  O  O162  1  0.19899891  0.16092683  0.13075620  1
  O  O163  1  0.20150055  0.17169824  0.62822441  1
  O  O164  1  0.19788042  0.48592791  0.12099484  1
  O  O165  1  0.18394058  0.47661815  0.62619739  1
  O  O166  1  0.18358006  0.81488328  0.12701809  1
  O  O167  1  0.18706980  0.81038540  0.62248656  1
  O  O168  1  0.52370970  0.17733918  0.12856011  1
  O  O169  1  0.53850043  0.16470608  0.62565228  1
  O  O170  1  0.52181652  0.47922241  0.12489436  1
  O  O171  1  0.51911505  0.48802039  0.63034108  1
  O  O172  1  0.52107976  0.81872959  0.12018356  1
  O  O173  1  0.53738870  0.82579095  0.62098038  1
  O  O174  1  0.86606559  0.16638330  0.12159160  1
  O  O175  1  0.86176233  0.16180769  0.62836390  1
  O  O176  1  0.84857598  0.49658881  0.13009987  1
  O  O177  1  0.85722710  0.48734340  0.62471907  1
  O  O178  1  0.85433906  0.82879265  0.13396312  1
  O  O179  1  0.86321194  0.82625811  0.61559785  1
  O  O180  1  0.14572599  0.17530455  0.36810261  1
  O  O181  1  0.12784612  0.19313511  0.87369342  1
  O  O182  1  0.14758040  0.50716526  0.37292717  1
  O  O183  1  0.13288516  0.50525771  0.87540035  1
  O  O184  1  0.13692824  0.85360569  0.37357321  1
  O  O185  1  0.13682135  0.84851433  0.87732190  1
  O  O186  1  0.48219371  0.18686002  0.38683241  1
  O  O187  1  0.48341075  0.17699901  0.86449153  1
  O  O188  1  0.47840384  0.49900027  0.36370076  1
  O  O189  1  0.47364987  0.50048094  0.87986408  1
  O  O190  1  0.45738493  0.84353032  0.37393170  1
  O  O191  1  0.48544222  0.83560696  0.88357416  1
  O  O192  1  0.80332781  0.17083263  0.38055933  1
  O  O193  1  0.80112292  0.17195662  0.87412362  1
  O  O194  1  0.81508361  0.50714152  0.37874040  1
  O  O195  1  0.80321117  0.50268241  0.86455452  1
  O  O196  1  0.81758886  0.83352919  0.37576461  1
  O  O197  1  0.81771989  0.82730544  0.87752043  1
  O  O198  1  0.03190427  0.00809289  0.36750644  1
  O  O199  1  0.03285622  0.01634978  0.88425665  1
  O  O200  1  0.01338741  0.32778526  0.37022026  1
  O  O201  1  0.03465415  0.34448906  0.86807160  1
  O  O202  1  0.02686602  0.66213388  0.37364779  1
  O  O203  1  0.03184565  0.66391595  0.88101026  1
  O  O204  1  0.35682539  0.01394435  0.37456451  1
  O  O205  1  0.35739471  0.00770633  0.87698399  1
  O  O206  1  0.36591627  0.33338463  0.37628159  1
  O  O207  1  0.34995353  0.35452327  0.86953392  1
  O  O208  1  0.36637198  0.67075363  0.37123653  1
  O  O209  1  0.34867663  0.64511167  0.87475398  1
  O  O210  1  0.68975796  0.01505794  0.38692035  1
  O  O211  1  0.68467799  0.01608029  0.86432910  1
  O  O212  1  0.69466822  0.33625223  0.37937971  1
  O  O213  1  0.68111759  0.35423521  0.86434758  1
  O  O214  1  0.70208492  0.66517121  0.37378636  1
  O  O215  1  0.68114927  0.65604815  0.87990342  1
  O  O216  1  0.06491080  0.10297616  0.02692547  1
  O  O217  1  0.06249602  0.10186820  0.52995599  1
  O  O218  1  0.07676396  0.43034747  0.01752418  1
  O  O219  1  0.08255256  0.42039837  0.51303111  1
  O  O220  1  0.07215683  0.74961373  0.02499724  1
  O  O221  1  0.05760937  0.75335116  0.52522206  1
  O  O222  1  0.40556840  0.09946750  0.03222572  1
  O  O223  1  0.41560114  0.11025035  0.52947777  1
  O  O224  1  0.40035023  0.43980856  0.02079519  1
  O  O225  1  0.41240399  0.41524736  0.51847461  1
  O  O226  1  0.41153946  0.75688743  0.01693159  1
  O  O227  1  0.39509085  0.76672570  0.51308845  1
  O  O228  1  0.74962107  0.09514904  0.01006581  1
  O  O229  1  0.73564025  0.10230357  0.53053834  1
  O  O230  1  0.74047915  0.42474179  0.00513677  1
  O  O231  1  0.74645066  0.42182252  0.52400852  1
  O  O232  1  0.73421768  0.74857834  0.01548469  1
  O  O233  1  0.74083550  0.77021372  0.52526188  1
  O  O234  1  0.09557281  0.26418880  0.03302408  1
  O  O235  1  0.09158193  0.25994685  0.53099198  1
  O  O236  1  0.10546845  0.59645886  0.02036401  1
  O  O237  1  0.09661776  0.59812245  0.51577631  1
  O  O238  1  0.09474505  0.94205154  0.02617274  1
  O  O239  1  0.08322749  0.92022334  0.52833049  1
  O  O240  1  0.42987742  0.27114527  0.02752760  1
  O  O241  1  0.43765805  0.26666922  0.52949793  1
  O  O242  1  0.43238203  0.59031131  0.03299351  1
  O  O243  1  0.42252243  0.58737672  0.51198744  1
  O  O244  1  0.43839657  0.92698265  0.02507748  1
  O  O245  1  0.43854186  0.94082025  0.52883466  1
  O  O246  1  0.76548078  0.25331747  0.01635423  1
  O  O247  1  0.76336891  0.26314789  0.53090725  1
  O  O248  1  0.75210477  0.59205314  0.01309376  1
  O  O249  1  0.77240694  0.59475937  0.51701925  1
  O  O250  1  0.75728331  0.92323622  0.01535846  1
  O  O251  1  0.76443553  0.93375407  0.53072751  1
  O  O252  1  0.22457190  0.07147613  0.26904751  1
  O  O253  1  0.23032127  0.07219072  0.78056635  1
  O  O254  1  0.23497954  0.39869167  0.26200500  1
  O  O255  1  0.23060541  0.39761547  0.76681428  1
  O  O256  1  0.23355581  0.73101385  0.28030224  1
  O  O257  1  0.22543823  0.72524246  0.77809914  1
  O  O258  1  0.58304166  0.08570347  0.27774429  1
  O  O259  1  0.57645292  0.08326088  0.76887899  1
  O  O260  1  0.56640266  0.39617389  0.27180266  1
  O  O261  1  0.56990548  0.39867493  0.75629264  1
  O  O262  1  0.56415560  0.72792638  0.26920424  1
  O  O263  1  0.57581519  0.74067463  0.76802308  1
  O  O264  1  0.90915254  0.07827523  0.26716497  1
  O  O265  1  0.90106654  0.08422935  0.77306181  1
  O  O266  1  0.91066152  0.40522237  0.26627270  1
  O  O267  1  0.90443547  0.40430957  0.77073080  1
  O  O268  1  0.90502193  0.72940845  0.27280467  1
  O  O269  1  0.89938521  0.73195093  0.75234207  1
  O  O270  1  0.26542213  0.23531365  0.26360507  1
  O  O271  1  0.26179647  0.24959798  0.77053771  1
  O  O272  1  0.25878319  0.56266614  0.26362645  1
  O  O273  1  0.25489977  0.55604067  0.77204361  1
  O  O274  1  0.26624714  0.90184083  0.28017787  1
  O  O275  1  0.25454175  0.90926695  0.76794762  1
  O  O276  1  0.59791730  0.24751914  0.28664794  1
  O  O277  1  0.60759687  0.23773238  0.76593254  1
  O  O278  1  0.58392228  0.56632563  0.26439342  1
  O  O279  1  0.59645522  0.55809938  0.77166402  1
  O  O280  1  0.59440590  0.90453660  0.26890505  1
  O  O281  1  0.60468657  0.91525120  0.75913355  1
  O  O282  1  0.93301138  0.23737702  0.25708637  1
  O  O283  1  0.93468890  0.23742195  0.77278880  1
  O  O284  1  0.92293227  0.57276499  0.27202171  1
  O  O285  1  0.92876651  0.55946732  0.77324144  1
  O  O286  1  0.93558267  0.91192353  0.26568905  1
  O  O287  1  0.92201805  0.91092882  0.76636717  1
  O  O288  1  0.26455992  0.24395943  0.49186510  1
  O  O289  1  0.26097016  0.24428849  0.98064821  1
  O  O290  1  0.24978941  0.57073140  0.47880486  1
  O  O291  1  0.26100960  0.55530873  0.97477227  1
  O  O292  1  0.26325620  0.90172561  0.47627381  1
  O  O293  1  0.25684107  0.90736558  0.97920188  1
  O  O294  1  0.60611377  0.23666949  0.47874116  1
  O  O295  1  0.60173951  0.23914836  0.97044618  1
  O  O296  1  0.58908168  0.57388558  0.47485127  1
  O  O297  1  0.59523368  0.56442187  0.98136639  1
  O  O298  1  0.60633026  0.91273636  0.48925079  1
  O  O299  1  0.59044712  0.90154744  0.98915509  1
  O  O300  1  0.92202376  0.23510161  0.49359614  1
  O  O301  1  0.93015658  0.23346511  0.97735496  1
  O  O302  1  0.92384652  0.57217784  0.47169517  1
  O  O303  1  0.93680496  0.57137974  0.97633705  1
  O  O304  1  0.92157630  0.90340499  0.48287590  1
  O  O305  1  0.93458451  0.91785729  0.99011791  1
  O  O306  1  0.22898575  0.06643026  0.47480156  1
  O  O307  1  0.22465485  0.06835851  0.97856482  1
  O  O308  1  0.23847134  0.39930163  0.48910321  1
  O  O309  1  0.22518656  0.40032736  0.97987414  1
  O  O310  1  0.22873894  0.73109287  0.46563981  1
  O  O311  1  0.23115353  0.72670392  0.97596075  1
  O  O312  1  0.57833473  0.08124222  0.48213291  1
  O  O313  1  0.57810690  0.07989568  0.98055238  1
  O  O314  1  0.57329180  0.39449099  0.48105296  1
  O  O315  1  0.56879680  0.41094830  0.98770021  1
  O  O316  1  0.56526955  0.73511241  0.46405657  1
  O  O317  1  0.56698856  0.73002922  0.99105132  1
  O  O318  1  0.89406283  0.07496963  0.49012068  1
  O  O319  1  0.91264455  0.08015759  0.97351667  1
  O  O320  1  0.90551748  0.40968131  0.49135917  1
  O  O321  1  0.91576614  0.41263221  0.97350352  1
  O  O322  1  0.89278526  0.72908976  0.47856042  1
  O  O323  1  0.91532353  0.73281507  0.99062824  1
  O  O324  1  0.09773521  0.26323124  0.22199178  1
  O  O325  1  0.09220104  0.27384956  0.72094632  1
  O  O326  1  0.10245481  0.59425522  0.23104116  1
  O  O327  1  0.10104771  0.59074090  0.72735563  1
  O  O328  1  0.09874439  0.94259781  0.22613076  1
  O  O329  1  0.08427302  0.92173958  0.72569273  1
  O  O330  1  0.42698583  0.27141313  0.23078142  1
  O  O331  1  0.43133901  0.26643281  0.71979594  1
  O  O332  1  0.42968315  0.58376648  0.21801738  1
  O  O333  1  0.42724747  0.57826865  0.73792008  1
  O  O334  1  0.43668394  0.93969916  0.21501258  1
  O  O335  1  0.43712664  0.93651556  0.72646928  1
  O  O336  1  0.76169282  0.26082189  0.23629970  1
  O  O337  1  0.76401737  0.26745065  0.72194374  1
  O  O338  1  0.76207699  0.58237525  0.24081630  1
  O  O339  1  0.77268606  0.59331124  0.72457664  1
  O  O340  1  0.76554013  0.92102175  0.23980347  1
  O  O341  1  0.75687858  0.93944063  0.71762906  1
  O  O342  1  0.07174355  0.10437738  0.22165565  1
  O  O343  1  0.05946849  0.10687451  0.72968012  1
  O  O344  1  0.07868626  0.42114883  0.22720884  1
  O  O345  1  0.06208027  0.43254639  0.73634271  1
  O  O346  1  0.07194114  0.74812231  0.23324164  1
  O  O347  1  0.06507622  0.75529341  0.71606920  1
  O  O348  1  0.40347207  0.10405795  0.22201238  1
  O  O349  1  0.41495857  0.10858346  0.72384203  1
  O  O350  1  0.40148890  0.42559758  0.21935492  1
  O  O351  1  0.40860623  0.42310716  0.72879995  1
  O  O352  1  0.40919391  0.75170686  0.21885169  1
  O  O353  1  0.40519633  0.75697895  0.73492312  1
  O  O354  1  0.74836397  0.09580456  0.24392048  1
  O  O355  1  0.73714559  0.10644381  0.72386738  1
  O  O356  1  0.74381935  0.42092562  0.23419371  1
  O  O357  1  0.74294332  0.42473016  0.72098701  1
  O  O358  1  0.74995494  0.75885747  0.23812023  1
  O  O359  1  0.73767431  0.76550586  0.71758550  1
