# generated using pymatgen
data_BaLaInIrO6
_symmetry_space_group_name_H-M   'P 1'
_cell_length_a   17.54312516
_cell_length_b   17.57817977
_cell_length_c   16.51707475
_cell_angle_alpha   89.99022427
_cell_angle_beta   89.99664013
_cell_angle_gamma   89.97083511
_symmetry_Int_Tables_number   1
_chemical_formula_structural   BaLaInIrO6
_chemical_formula_sum   'Ba36 La36 In36 Ir36 O216'
_cell_volume   5093.47213219
_cell_formula_units_Z   36
loop_
 _symmetry_equiv_pos_site_id
 _symmetry_equiv_pos_as_xyz
  1  'x, y, z'
loop_
 _atom_site_type_symbol
 _atom_site_label
 _atom_site_symmetry_multiplicity
 _atom_site_fract_x
 _atom_site_fract_y
 _atom_site_fract_z
 _atom_site_occupancy
  Ba  Ba0  1  0.66634245  0.50770251  0.12627243  1
  Ba  Ba1  1  0.16849801  0.99196922  0.37690410  1
  Ba  Ba2  1  0.66870426  0.17746985  0.12131099  1
  Ba  Ba3  1  0.83593626  0.65825919  0.38062592  1
  Ba  Ba4  1  0.16140504  0.67880722  0.62415390  1
  Ba  Ba5  1  0.49932529  0.67408678  0.12653168  1
  Ba  Ba6  1  0.32908266  0.82477695  0.37215224  1
  Ba  Ba7  1  -0.00187884  0.82448393  0.87806396  1
  Ba  Ba8  1  0.16462699  0.32329301  0.87085643  1
  Ba  Ba9  1  0.16438523  0.00878534  0.62113118  1
  Ba  Ba10  1  0.66891755  0.17392070  0.62198583  1
  Ba  Ba11  1  0.83455289  0.67546056  0.62688503  1
  Ba  Ba12  1  0.00005056  0.48682245  0.37794777  1
  Ba  Ba13  1  1.00176982  0.84596361  0.62867661  1
  Ba  Ba14  1  0.32921047  0.15641688  0.87248085  1
  Ba  Ba15  1  0.00162018  0.16002436  0.87702570  1
  Ba  Ba16  1  0.49915998  0.65936158  0.87653916  1
  Ba  Ba17  1  0.49528892  0.68275158  0.62846704  1
  Ba  Ba18  1  0.83873145  0.32368826  0.87484416  1
  Ba  Ba19  1  0.66873389  0.15959037  0.37152541  1
  Ba  Ba20  1  0.66383299  0.82437003  0.87408759  1
  Ba  Ba21  1  0.50102119  0.99185795  0.87544510  1
  Ba  Ba22  1  0.50151880  0.34024851  0.13064155  1
  Ba  Ba23  1  0.16355965  0.34341760  0.12135269  1
  Ba  Ba24  1  0.33218181  0.15669785  0.37007853  1
  Ba  Ba25  1  0.17066812  0.65422708  0.37405322  1
  Ba  Ba26  1  0.83712932  0.65492111  0.87102137  1
  Ba  Ba27  1  0.33010461  0.49283578  0.37999947  1
  Ba  Ba28  1  0.66858621  0.84111374  0.62553232  1
  Ba  Ba29  1  -0.00021192  0.48626563  0.87071729  1
  Ba  Ba30  1  0.33221602  0.84112727  0.12697136  1
  Ba  Ba31  1  0.49671352  0.65647811  0.37710859  1
  Ba  Ba32  1  1.00194732  0.18416942  0.12602890  1
  Ba  Ba33  1  0.66951741  0.49503988  0.87729637  1
  Ba  Ba34  1  0.16841654  0.65162106  0.87652306  1
  Ba  Ba35  1  1.00379840  0.84557651  0.12696520  1
  La  La36  1  1.00452705  0.51331232  0.62872064  1
  La  La37  1  0.17049258  0.99042506  0.87537975  1
  La  La38  1  -0.00107429  0.15500912  0.37424553  1
  La  La39  1  0.82775535  0.67822260  0.12088745  1
  La  La40  1  -0.00267980  0.81957617  0.38119387  1
  La  La41  1  0.83725514  0.99085012  0.37615912  1
  La  La42  1  0.82948614  0.34997606  0.12355400  1
  La  La43  1  0.16810969  0.32266630  0.37045881  1
  La  La44  1  0.83773169  0.99193212  0.87710756  1
  La  La45  1  0.33985561  0.51365281  0.12931648  1
  La  La46  1  0.16228746  0.01575590  0.12871310  1
  La  La47  1  0.50466290  0.32653526  0.37860432  1
  La  La48  1  0.67079010  0.51359390  0.62869326  1
  La  La49  1  0.66129123  0.81737700  0.37475841  1
  La  La50  1  0.33138304  0.81979268  0.87004748  1
  La  La51  1  0.49713094  0.00890728  0.62158554  1
  La  La52  1  0.33041785  0.84632286  0.62032887  1
  La  La53  1  0.16247221  0.68085133  0.12508851  1
  La  La54  1  0.83225722  0.00411921  0.62804514  1
  La  La55  1  0.66481015  0.15518493  0.87396187  1
  La  La56  1  0.83180190  0.01761306  0.12227567  1
  La  La57  1  1.00283370  0.50959273  0.12600345  1
  La  La58  1  0.84161248  0.31871464  0.37095158  1
  La  La59  1  0.50188778  0.97959971  0.37217782  1
  La  La60  1  0.32294758  0.48443145  0.88127974  1
  La  La61  1  0.49403653  0.01229180  0.12990800  1
  La  La62  1  0.33907548  0.18133245  0.12064941  1
  La  La63  1  0.66189906  0.48379518  0.37935358  1
  La  La64  1  0.83106773  0.34386806  0.62532776  1
  La  La65  1  0.16172229  0.34693044  0.62353860  1
  La  La66  1  0.50826424  0.32114358  0.88148338  1
  La  La67  1  0.49715383  0.34763053  0.62437735  1
  La  La68  1  0.33722465  0.18159745  0.62334009  1
  La  La69  1  1.00122366  0.17953684  0.62326916  1
  La  La70  1  0.66705190  0.84619974  0.12254209  1
  La  La71  1  0.33306014  0.51913783  0.62932490  1
  In  In72  1  0.49759888  0.49794829  0.00066328  1
  In  In73  1  0.66561046  0.00217580  -0.00025920  1
  In  In74  1  0.00105700  0.66402327  0.49955361  1
  In  In75  1  0.83344511  0.50268514  0.25416573  1
  In  In76  1  -0.00066852  0.66612897  0.25047105  1
  In  In77  1  0.16442718  0.83697963  0.25120309  1
  In  In78  1  0.83479661  0.83574742  0.00421060  1
  In  In79  1  0.66600070  0.33087132  0.74813039  1
  In  In80  1  0.66713518  0.00178284  0.49683193  1
  In  In81  1  0.49604412  0.49682398  0.75334636  1
  In  In82  1  0.33263031  -0.00163636  -0.00046801  1
  In  In83  1  0.50044231  0.49917174  0.25373782  1
  In  In84  1  0.83241989  0.83696482  0.25038379  1
  In  In85  1  0.16844576  0.16393511  0.74596101  1
  In  In86  1  0.33000253  0.66696671  0.00142461  1
  In  In87  1  0.49972552  0.16509285  0.49764743  1
  In  In88  1  0.66603407  0.66411705  0.49941528  1
  In  In89  1  0.49866413  0.16592172  0.25162927  1
  In  In90  1  0.33556747  0.33401596  0.74770799  1
  In  In91  1  0.83516417  0.16574747  0.74879700  1
  In  In92  1  0.83541209  0.49599253  0.74813500  1
  In  In93  1  0.66516909  0.66710089  0.00065285  1
  In  In94  1  0.33125707  0.33503223  0.25121090  1
  In  In95  1  0.16803097  0.16788065  0.49892887  1
  In  In96  1  0.66474895  0.66644990  0.75042693  1
  In  In97  1  0.49971367  0.50024590  0.50391408  1
  In  In98  1  0.49738685  0.83621673  0.00135283  1
  In  In99  1  0.33068562  0.67134394  0.50143068  1
  In  In100  1  0.16673993  0.16669816  -0.00007758  1
  In  In101  1  0.50084702  0.16636753  0.74812094  1
  In  In102  1  0.83151327  0.83786636  0.49989616  1
  In  In103  1  0.66734350  0.00055684  0.24925594  1
  In  In104  1  0.00319384  0.66644234  0.75327714  1
  In  In105  1  0.67229698  0.33148466  0.25158267  1
  In  In106  1  0.16609429  0.83368293  -0.00181109  1
  In  In107  1  0.83333033  0.83517769  0.75146723  1
  Ir  Ir108  1  0.16746766  0.49557515  0.00318009  1
  Ir  Ir109  1  0.16674146  0.49276815  0.50137538  1
  Ir  Ir110  1  0.83424892  0.16917145  0.00208963  1
  Ir  Ir111  1  -0.00224946  0.65896108  0.00418100  1
  Ir  Ir112  1  0.33041677  0.33397653  0.50123798  1
  Ir  Ir113  1  0.16739238  0.49800570  0.24680955  1
  Ir  Ir114  1  0.16870866  0.83920739  0.74913231  1
  Ir  Ir115  1  0.83307008  0.49091856  0.50102039  1
  Ir  Ir116  1  0.00084639  0.00281976  0.75170144  1
  Ir  Ir117  1  0.83964700  0.16823168  0.24933529  1
  Ir  Ir118  1  0.49406245  0.84126521  0.74420272  1
  Ir  Ir119  1  0.33113197  0.00130751  0.24952850  1
  Ir  Ir120  1  -0.00058989  0.00593089  0.25109406  1
  Ir  Ir121  1  0.32894533  0.67131189  0.74871098  1
  Ir  Ir122  1  0.00267298  0.33246539  0.25253814  1
  Ir  Ir123  1  0.67149292  0.33186459  -0.00133595  1
  Ir  Ir124  1  0.50124904  0.83051893  0.25457509  1
  Ir  Ir125  1  0.00034219  0.00470550  0.00288644  1
  Ir  Ir126  1  0.49867885  0.83756469  0.49916874  1
  Ir  Ir127  1  0.00061376  0.33036750  0.74327030  1
  Ir  Ir128  1  -0.00213653  0.00435057  0.49622451  1
  Ir  Ir129  1  0.49975554  0.17055605  -0.00176845  1
  Ir  Ir130  1  0.66706552  0.67006547  0.25102369  1
  Ir  Ir131  1  0.32939973  0.66474689  0.25001937  1
  Ir  Ir132  1  0.00022948  0.33169333  0.50017274  1
  Ir  Ir133  1  0.66523448  0.00178455  0.74819574  1
  Ir  Ir134  1  0.16975369  0.49680095  0.74989530  1
  Ir  Ir135  1  0.33220950  -0.00265045  0.74484620  1
  Ir  Ir136  1  -0.00334835  0.33515265  0.00283735  1
  Ir  Ir137  1  0.16393411  0.83916659  0.50116469  1
  Ir  Ir138  1  0.83967613  0.16793587  0.49668917  1
  Ir  Ir139  1  0.33435260  -0.00052589  0.49922669  1
  Ir  Ir140  1  0.16508446  0.16706840  0.25060920  1
  Ir  Ir141  1  0.83977851  0.49655488  0.00347159  1
  Ir  Ir142  1  0.33383280  0.33248602  0.00099303  1
  Ir  Ir143  1  0.67163056  0.33112277  0.50095529  1
  O  O144  1  0.31063952  0.32037745  0.11989221  1
  O  O145  1  0.29612002  0.32135887  0.61679749  1
  O  O146  1  0.30119952  0.65676392  0.13108596  1
  O  O147  1  0.30907209  0.66694943  0.62978945  1
  O  O148  1  0.29961589  0.99851828  0.13106462  1
  O  O149  1  0.31174424  0.98372685  0.62154252  1
  O  O150  1  0.65532506  0.33393355  0.11869958  1
  O  O151  1  0.63493193  0.32738185  0.61737987  1
  O  O152  1  0.65066068  0.66352191  0.13413080  1
  O  O153  1  0.64286101  0.65125980  0.62310973  1
  O  O154  1  0.62953893  0.99574368  0.12628186  1
  O  O155  1  0.63568066  1.00058216  0.62740577  1
  O  O156  1  0.96877883  0.33866613  0.12801349  1
  O  O157  1  0.96881948  0.32165228  0.62035823  1
  O  O158  1  0.96689443  0.65300601  0.12206384  1
  O  O159  1  0.99065716  0.65554945  0.62412991  1
  O  O160  1  0.96800804  1.00077068  0.12700312  1
  O  O161  1  0.96846363  1.00005361  0.62425199  1
  O  O162  1  0.19625642  0.15944219  0.13022287  1
  O  O163  1  0.20138590  0.16299884  0.62122568  1
  O  O164  1  0.20022313  0.49451795  0.12564137  1
  O  O165  1  0.19731673  0.48474168  0.62548161  1
  O  O166  1  0.18043185  0.83359887  0.12447105  1
  O  O167  1  0.19464593  0.83706896  0.62490219  1
  O  O168  1  0.51800302  0.15543977  0.11822078  1
  O  O169  1  0.51960839  0.14743829  0.62202662  1
  O  O170  1  0.51641587  0.49460606  0.12832360  1
  O  O171  1  0.53508141  0.48260271  0.62483490  1
  O  O172  1  0.52925747  0.83304238  0.13648483  1
  O  O173  1  0.51917464  0.84802386  0.61991771  1
  O  O174  1  0.85873930  0.15475723  0.12558665  1
  O  O175  1  0.86717179  0.15021909  0.61579173  1
  O  O176  1  0.86289471  0.48928113  0.12405739  1
  O  O177  1  0.86781982  0.47986220  0.61636451  1
  O  O178  1  0.85899803  0.81330852  0.12788121  1
  O  O179  1  0.85264566  0.85382599  0.62569967  1
  O  O180  1  0.13527167  0.17623285  0.37218085  1
  O  O181  1  0.15295194  0.16176470  0.87257383  1
  O  O182  1  0.14543034  0.49789301  0.37592359  1
  O  O183  1  0.14687593  0.49653428  0.87558801  1
  O  O184  1  0.13559494  0.83823211  0.37989531  1
  O  O185  1  0.14766028  0.85027686  0.86902127  1
  O  O186  1  0.47780985  0.19096981  0.37702352  1
  O  O187  1  0.47739092  0.18284729  0.87795051  1
  O  O188  1  0.48056022  0.49168951  0.37961555  1
  O  O189  1  0.45892083  0.49600284  0.87688045  1
  O  O190  1  0.47547396  0.83863129  0.37792865  1
  O  O191  1  0.46583041  0.84104437  0.86336970  1
  O  O192  1  0.81724002  0.18290323  0.37330862  1
  O  O193  1  0.80551170  0.16976672  0.88097484  1
  O  O194  1  0.80009836  0.49772380  0.38310686  1
  O  O195  1  0.82348985  0.49577729  0.88208716  1
  O  O196  1  0.79619234  0.85400125  0.37307993  1
  O  O197  1  0.81597332  0.85423690  0.87883383  1
  O  O198  1  0.02387169  0.01994832  0.37365061  1
  O  O199  1  0.03318266  0.00653547  0.87788298  1
  O  O200  1  0.03285665  0.33129589  0.37713009  1
  O  O201  1  0.01838850  0.33148598  0.86933225  1
  O  O202  1  0.02366335  0.67341571  0.37689402  1
  O  O203  1  0.01815592  0.65804229  0.88494418  1
  O  O204  1  0.36516684  0.00343190  0.37589129  1
  O  O205  1  0.35170152  0.00156797  0.86379762  1
  O  O206  1  0.36599424  0.33833504  0.38296053  1
  O  O207  1  0.36562851  0.34257286  0.87956803  1
  O  O208  1  0.34471843  0.66531406  0.37218350  1
  O  O209  1  0.34544015  0.67714576  0.86831788  1
  O  O210  1  0.70171230  0.00497900  0.37139080  1
  O  O211  1  0.69729646  0.01126133  0.86962485  1
  O  O212  1  0.70500069  0.33930827  0.38296912  1
  O  O213  1  0.68888403  0.33249681  0.87989944  1
  O  O214  1  0.68686793  0.68039860  0.36941434  1
  O  O215  1  0.68855259  0.66811687  0.87597818  1
  O  O216  1  0.07148246  0.09029092  0.02603392  1
  O  O217  1  0.06226259  0.10114206  0.51766050  1
  O  O218  1  0.06571956  0.43051916  0.02395482  1
  O  O219  1  0.06980881  0.42302937  0.52930065  1
  O  O220  1  0.06759711  0.74840230  0.02059730  1
  O  O221  1  0.07573622  0.76960974  0.51318152  1
  O  O222  1  0.40608633  0.10186107  0.02061351  1
  O  O223  1  0.39865633  0.09147056  0.52548868  1
  O  O224  1  0.39374992  0.42590148  0.02392201  1
  O  O225  1  0.39900507  0.42183500  0.53271613  1
  O  O226  1  0.39713148  0.76811973  0.00291002  1
  O  O227  1  0.40321426  0.77250435  0.52166640  1
  O  O228  1  0.74671746  0.09736106  0.01779668  1
  O  O229  1  0.74977668  0.10059863  0.51409912  1
  O  O230  1  0.74620100  0.42386049  0.02365777  1
  O  O231  1  0.73872272  0.42343623  0.52971076  1
  O  O232  1  0.73818782  0.76251185  0.03202736  1
  O  O233  1  0.73948627  0.75847601  0.50916658  1
  O  O234  1  0.08730021  0.26403376  0.01034077  1
  O  O235  1  0.09315471  0.26625771  0.52676722  1
  O  O236  1  0.09515758  0.58858254  0.03391439  1
  O  O237  1  0.09240920  0.57742210  0.52201720  1
  O  O238  1  0.09524913  0.93837714  0.02039655  1
  O  O239  1  0.08854255  0.93093075  0.51732854  1
  O  O240  1  0.42587171  0.26108520  0.02401468  1
  O  O241  1  0.42238033  0.26560951  0.52915710  1
  O  O242  1  0.41601111  0.58812495  0.02556364  1
  O  O243  1  0.41803662  0.58943688  0.52517999  1
  O  O244  1  0.43272436  0.93798796  0.02916404  1
  O  O245  1  0.43383683  0.93631084  0.51561778  1
  O  O246  1  0.76911462  0.26514303  0.02553814  1
  O  O247  1  0.77286138  0.26490724  0.52202924  1
  O  O248  1  0.77528190  0.59075205  0.02218407  1
  O  O249  1  0.76331364  0.57794645  0.52505537  1
  O  O250  1  0.76396232  0.93464989  0.02934352  1
  O  O251  1  0.76935206  0.94298598  0.51932651  1
  O  O252  1  0.23368805  0.07023291  0.26524287  1
  O  O253  1  0.23600797  0.05768999  0.76740507  1
  O  O254  1  0.22961111  0.40385592  0.27296109  1
  O  O255  1  0.24214237  0.41089895  0.76884768  1
  O  O256  1  0.24164803  0.73722809  0.25922361  1
  O  O257  1  0.23905004  0.74838152  0.77419318  1
  O  O258  1  0.56199202  0.06354586  0.27239054  1
  O  O259  1  0.57829312  0.07204056  0.77081677  1
  O  O260  1  0.57886388  0.40514171  0.28351187  1
  O  O261  1  0.55857754  0.38901796  0.77002828  1
  O  O262  1  0.57072372  0.73778880  0.27612308  1
  O  O263  1  0.56192814  0.75110667  0.76079460  1
  O  O264  1  0.90441339  0.07255336  0.27471815  1
  O  O265  1  0.90449189  0.06624592  0.77331442  1
  O  O266  1  0.90772629  0.39472224  0.27257038  1
  O  O267  1  0.90795645  0.39508476  0.75475100  1
  O  O268  1  0.91363490  0.75113984  0.28099862  1
  O  O269  1  0.91345137  0.74474071  0.76453198  1
  O  O270  1  0.24835259  0.24262893  0.27373867  1
  O  O271  1  0.26576234  0.23737589  0.75802081  1
  O  O272  1  0.26289177  0.56591380  0.26304818  1
  O  O273  1  0.26667321  0.56584410  0.76947135  1
  O  O274  1  0.26097882  0.91351552  0.26863205  1
  O  O275  1  0.26922934  0.90088328  0.76487271  1
  O  O276  1  0.59157445  0.24393520  0.26349028  1
  O  O277  1  0.60161226  0.23065513  0.77576482  1
  O  O278  1  0.60678969  0.57167737  0.27588941  1
  O  O279  1  0.58826402  0.57090106  0.76612692  1
  O  O280  1  0.59313504  0.89799548  0.27871086  1
  O  O281  1  0.59035157  0.90948591  0.76628931  1
  O  O282  1  0.93567156  0.23691905  0.27750878  1
  O  O283  1  0.93802992  0.23415468  0.75339723  1
  O  O284  1  0.93212824  0.56669825  0.26308277  1
  O  O285  1  0.93265206  0.56597327  0.75111153  1
  O  O286  1  0.93177565  0.91699180  0.28068729  1
  O  O287  1  0.92961599  0.91886272  0.77498708  1
  O  O288  1  0.25939544  0.24807975  0.47203580  1
  O  O289  1  0.26737573  0.23971315  0.98769151  1
  O  O290  1  0.25409221  0.56750348  0.49569387  1
  O  O291  1  0.26024817  0.55986063  0.98178970  1
  O  O292  1  0.26386887  0.90652290  0.48616971  1
  O  O293  1  0.26589960  0.90007456  0.96902036  1
  O  O294  1  0.59804510  0.24600712  0.47735419  1
  O  O295  1  0.59878224  0.23979363  0.97238476  1
  O  O296  1  0.60206635  0.56390684  0.47569951  1
  O  O297  1  0.59236286  0.57117648  0.98727678  1
  O  O298  1  0.59330722  0.90139293  0.47134386  1
  O  O299  1  0.59477358  0.90717581  0.98481594  1
  O  O300  1  0.93646922  0.23472831  0.47500154  1
  O  O301  1  0.92622310  0.23918657  0.98572809  1
  O  O302  1  0.92085738  0.56347821  0.48732335  1
  O  O303  1  0.93629240  0.55905359  0.99141181  1
  O  O304  1  0.93118893  0.91438403  0.46526950  1
  O  O305  1  0.92891581  0.91843154  0.98422575  1
  O  O306  1  0.24585746  0.07111427  0.48183167  1
  O  O307  1  0.23091465  0.06201712  0.98651362  1
  O  O308  1  0.23227119  0.39769281  0.47784040  1
  O  O309  1  0.24140817  0.40384486  0.97473573  1
  O  O310  1  0.23485777  0.74969566  0.48722729  1
  O  O311  1  0.22781262  0.72977684  0.99605814  1
  O  O312  1  0.56557952  0.06431211  0.47121582  1
  O  O313  1  0.57754200  0.08797535  0.97278765  1
  O  O314  1  0.57894978  0.39719993  0.47550462  1
  O  O315  1  0.57477360  0.39559163  0.97887650  1
  O  O316  1  0.56739766  0.74678438  0.48310422  1
  O  O317  1  0.57063585  0.74288293  0.98849015  1
  O  O318  1  0.90615718  0.07446577  0.46661032  1
  O  O319  1  0.89944403  0.07033896  0.98040548  1
  O  O320  1  0.90063041  0.39411154  0.47606878  1
  O  O321  1  0.90204458  0.39935330  0.99309823  1
  O  O322  1  0.91473395  0.75069169  0.48065567  1
  O  O323  1  0.90761442  0.72900021  0.98702792  1
  O  O324  1  0.09767151  0.26403288  0.23650021  1
  O  O325  1  0.09354229  0.26449917  0.71872783  1
  O  O326  1  0.10014421  0.58791934  0.21912988  1
  O  O327  1  0.09739104  0.58349985  0.73195105  1
  O  O328  1  0.09152386  0.93949493  0.22858078  1
  O  O329  1  0.09971168  0.93586557  0.73727684  1
  O  O330  1  0.41349544  0.24929303  0.22585029  1
  O  O331  1  0.43067617  0.26177652  0.71567661  1
  O  O332  1  0.41762965  0.59352711  0.23496768  1
  O  O333  1  0.41425403  0.59642113  0.72741915  1
  O  O334  1  0.43250594  0.93448548  0.23475370  1
  O  O335  1  0.42859099  0.93538744  0.71987049  1
  O  O336  1  0.77757528  0.26423975  0.23142516  1
  O  O337  1  0.76803507  0.26204359  0.72247252  1
  O  O338  1  0.76537773  0.60925890  0.23170304  1
  O  O339  1  0.75626200  0.58309569  0.72651048  1
  O  O340  1  0.76074194  0.92977811  0.21021813  1
  O  O341  1  0.75786314  0.93776316  0.73098972  1
  O  O342  1  0.07504827  0.09459054  0.22661921  1
  O  O343  1  0.06357994  0.09676015  0.72227817  1
  O  O344  1  0.06886881  0.43094989  0.22727883  1
  O  O345  1  0.07343728  0.42634763  0.72028564  1
  O  O346  1  0.08042065  0.75227160  0.22604163  1
  O  O347  1  0.08210207  0.76539539  0.73900394  1
  O  O348  1  0.39968991  0.08919305  0.22095142  1
  O  O349  1  0.39641198  0.09223919  0.72198237  1
  O  O350  1  0.39925329  0.43006497  0.22791649  1
  O  O351  1  0.40128844  0.42924912  0.71190460  1
  O  O352  1  0.40278291  0.75641651  0.23320409  1
  O  O353  1  0.39389655  0.77462246  0.72689022  1
  O  O354  1  0.74993809  0.09750712  0.22856223  1
  O  O355  1  0.73888508  0.08866935  0.72899789  1
  O  O356  1  0.74658269  0.42484469  0.23305503  1
  O  O357  1  0.73838526  0.42441166  0.72017480  1
  O  O358  1  0.72504827  0.76924538  0.23108632  1
  O  O359  1  0.74143136  0.75911808  0.73302235  1
