# generated using pymatgen
data_BaLaInIrO6
_symmetry_space_group_name_H-M   'P 1'
_cell_length_a   17.53226470
_cell_length_b   17.56215260
_cell_length_c   16.49308240
_cell_angle_alpha   89.99656548
_cell_angle_beta   90.00625795
_cell_angle_gamma   89.97511227
_symmetry_Int_Tables_number   1
_chemical_formula_structural   BaLaInIrO6
_chemical_formula_sum   'Ba36 La36 In36 Ir36 O216'
_cell_volume   5078.29060377
_cell_formula_units_Z   36
loop_
 _symmetry_equiv_pos_site_id
 _symmetry_equiv_pos_as_xyz
  1  'x, y, z'
loop_
 _atom_site_type_symbol
 _atom_site_label
 _atom_site_symmetry_multiplicity
 _atom_site_fract_x
 _atom_site_fract_y
 _atom_site_fract_z
 _atom_site_occupancy
  Ba  Ba0  1  0.16964646  0.32548451  0.37284426  1
  Ba  Ba1  1  -0.00314636  0.82212577  0.37725887  1
  Ba  Ba2  1  0.16008782  0.34547034  0.12686601  1
  Ba  Ba3  1  1.00463211  0.17218973  0.62542489  1
  Ba  Ba4  1  0.50009883  0.32776808  0.37248832  1
  Ba  Ba5  1  0.83595602  0.65288864  0.87474945  1
  Ba  Ba6  1  0.83604132  0.32599863  0.37516041  1
  Ba  Ba7  1  0.32958415  0.82700246  0.87500238  1
  Ba  Ba8  1  0.67292918  0.17735776  0.12917662  1
  Ba  Ba9  1  1.00205507  0.83700820  0.62600070  1
  Ba  Ba10  1  0.49538020  0.67792179  0.62215896  1
  Ba  Ba11  1  0.50022285  0.99481988  0.37605026  1
  Ba  Ba12  1  -0.00056614  0.82274357  0.87586974  1
  Ba  Ba13  1  0.82872545  0.67989616  0.12111582  1
  Ba  Ba14  1  0.33422690  0.49102306  0.37528953  1
  Ba  Ba15  1  0.66537491  0.82662195  0.37268016  1
  Ba  Ba16  1  1.00321059  0.17771220  0.12420892  1
  Ba  Ba17  1  0.66860304  0.84378604  0.12315622  1
  Ba  Ba18  1  0.49951513  0.68275282  0.12504175  1
  Ba  Ba19  1  0.16842056  0.67315658  0.62218321  1
  Ba  Ba20  1  0.17047925  0.00161037  0.62715034  1
  Ba  Ba21  1  0.99998065  0.51222021  0.12673148  1
  Ba  Ba22  1  0.66900707  0.17821482  0.62687480  1
  Ba  Ba23  1  0.33480291  0.17421424  0.62727808  1
  Ba  Ba24  1  0.33218356  0.83930592  0.62028548  1
  Ba  Ba25  1  0.49835955  0.34145535  0.62214534  1
  Ba  Ba26  1  0.16444335  0.65942835  0.86924790  1
  Ba  Ba27  1  0.32877309  0.50487936  0.12906765  1
  Ba  Ba28  1  0.33391284  0.17048139  0.12382432  1
  Ba  Ba29  1  0.16583886  0.00677228  0.12311548  1
  Ba  Ba30  1  0.33401390  0.50534319  0.62074515  1
  Ba  Ba31  1  0.16491761  0.65942502  0.37808917  1
  Ba  Ba32  1  -0.00314770  0.49443993  0.87495072  1
  Ba  Ba33  1  0.16443026  0.99442835  0.87460580  1
  Ba  Ba34  1  0.33120531  0.84363230  0.12900130  1
  Ba  Ba35  1  0.16536391  0.34141502  0.62277376  1
  La  La36  1  0.83853711  0.31987212  0.87487849  1
  La  La37  1  0.49577949  0.34623898  0.12481074  1
  La  La38  1  0.84335599  0.64885161  0.37079530  1
  La  La39  1  0.67303007  0.51939546  0.12456056  1
  La  La40  1  0.82470070  0.01133236  0.62485650  1
  La  La41  1  0.66121022  0.48544079  0.36816967  1
  La  La42  1  0.49459628  0.65151045  0.87602570  1
  La  La43  1  0.82749335  0.34909906  0.62795767  1
  La  La44  1  0.49648597  0.00998273  0.13156400  1
  La  La45  1  0.49225426  0.65670386  0.37063315  1
  La  La46  1  0.83033573  0.01286579  0.12430461  1
  La  La47  1  0.49276094  0.01479020  0.62417012  1
  La  La48  1  0.67073248  0.84743100  0.62451248  1
  La  La49  1  0.50124697  0.98569282  0.88123831  1
  La  La50  1  -0.00027611  0.14887356  0.87597351  1
  La  La51  1  0.00261318  0.15038764  0.37279476  1
  La  La52  1  0.17379145  0.99226967  0.38149709  1
  La  La53  1  0.32817227  0.82193370  0.37591998  1
  La  La54  1  0.66267087  0.15161136  0.37714728  1
  La  La55  1  0.66410814  0.48090884  0.87802086  1
  La  La56  1  -0.00172723  0.48525160  0.37224937  1
  La  La57  1  0.33382166  0.15175977  0.87566152  1
  La  La58  1  0.82863882  0.68172479  0.62761311  1
  La  La59  1  0.50411177  0.31859392  0.87410088  1
  La  La60  1  0.66264250  0.14992234  0.87461845  1
  La  La61  1  0.82955714  0.35370644  0.12502045  1
  La  La62  1  0.83845317  0.98077138  0.87935264  1
  La  La63  1  0.65815146  0.81462152  0.87965899  1
  La  La64  1  0.32354998  0.48487555  0.86819855  1
  La  La65  1  0.66833754  0.51381261  0.62264225  1
  La  La66  1  1.00432202  0.51351344  0.62189629  1
  La  La67  1  0.83817653  0.98867728  0.36703539  1
  La  La68  1  0.33159998  0.16026824  0.38056912  1
  La  La69  1  1.00352919  0.84082058  0.12476104  1
  La  La70  1  0.15782071  0.67691833  0.12014580  1
  La  La71  1  0.16481959  0.32073229  0.87384523  1
  In  In72  1  0.16409155  0.83510921  0.25300619  1
  In  In73  1  -0.00394033  -0.00120151  0.49821372  1
  In  In74  1  0.50244833  0.49697101  0.75200859  1
  In  In75  1  0.67022305  0.67158505  0.25261946  1
  In  In76  1  0.50311410  0.50180134  0.24441758  1
  In  In77  1  0.33503985  0.33082499  -0.00051836  1
  In  In78  1  0.32857139  0.66769662  0.24793060  1
  In  In79  1  0.16469168  0.49928780  -0.00358704  1
  In  In80  1  0.49940451  0.49965226  0.00058583  1
  In  In81  1  0.50781552  0.16668587  0.00387130  1
  In  In82  1  0.83415470  0.16779573  0.49743293  1
  In  In83  1  0.16597222  0.83399318  -0.00126742  1
  In  In84  1  0.66887371  0.66741251  0.49656471  1
  In  In85  1  -0.00019541  0.33311993  0.74814360  1
  In  In86  1  0.50286936  0.83372595  0.74823574  1
  In  In87  1  0.83155632  0.16845261  -0.00060323  1
  In  In88  1  0.83440935  0.17029720  0.25174102  1
  In  In89  1  0.16730190  0.16616311  0.75215115  1
  In  In90  1  -0.00104307  0.33457078  -0.00035512  1
  In  In91  1  0.83332744  0.50058816  0.50072149  1
  In  In92  1  0.66436869  -0.00231068  0.75280824  1
  In  In93  1  -0.00684239  -0.00340576  0.74918799  1
  In  In94  1  0.50632226  0.49985429  0.49942380  1
  In  In95  1  0.66457974  0.66262225  0.75153676  1
  In  In96  1  0.83085016  0.83178618  0.49691904  1
  In  In97  1  0.66743023  -0.00169899  0.24853274  1
  In  In98  1  0.16826413  0.16678692  0.00180350  1
  In  In99  1  0.33149752  0.32920182  0.24911856  1
  In  In100  1  0.83231925  0.16581829  0.75251847  1
  In  In101  1  0.33714557  -0.00152232  0.75144065  1
  In  In102  1  -0.00386714  0.66454469  0.74901558  1
  In  In103  1  0.33102434  0.66435628  0.00027442  1
  In  In104  1  0.33342607  0.66588161  0.49846522  1
  In  In105  1  0.16584237  0.16652306  0.50114489  1
  In  In106  1  0.50300536  0.17032713  0.49961387  1
  In  In107  1  0.33615473  0.66826609  0.74955477  1
  Ir  Ir108  1  0.67104362  0.33445121  0.50206900  1
  Ir  Ir109  1  0.83053201  0.83423351  0.00075830  1
  Ir  Ir110  1  0.67108314  0.33435449  0.75217718  1
  Ir  Ir111  1  -0.00405413  0.66584751  0.24985490  1
  Ir  Ir112  1  0.16453295  0.83285132  0.74716580  1
  Ir  Ir113  1  -0.00734580  0.66778808  0.00447566  1
  Ir  Ir114  1  0.50410410  0.16671495  0.25124222  1
  Ir  Ir115  1  -0.00218016  0.33296950  0.49769854  1
  Ir  Ir116  1  0.83190369  0.49823325  0.24737204  1
  Ir  Ir117  1  0.33818717  -0.00048194  0.49647426  1
  Ir  Ir118  1  0.33553126  0.00466065  0.25364198  1
  Ir  Ir119  1  0.00050764  -0.00142004  0.24759549  1
  Ir  Ir120  1  0.50234688  0.83684796  0.49468627  1
  Ir  Ir121  1  0.16105642  0.50326794  0.25354889  1
  Ir  Ir122  1  0.66468961  -0.00187972  0.50265834  1
  Ir  Ir123  1  0.50203256  0.83806168  0.00475721  1
  Ir  Ir124  1  0.83089316  0.49628867  0.74854049  1
  Ir  Ir125  1  0.66793774  0.33360108  0.24701369  1
  Ir  Ir126  1  0.33250213  0.33291676  0.50137463  1
  Ir  Ir127  1  -0.00731508  -0.00438945  0.00301518  1
  Ir  Ir128  1  0.33837163  0.33301041  0.75118340  1
  Ir  Ir129  1  -0.00260090  0.66147293  0.49400584  1
  Ir  Ir130  1  0.66879617  -0.00186728  -0.00088019  1
  Ir  Ir131  1  0.49698646  0.83817029  0.25252593  1
  Ir  Ir132  1  0.50114212  0.16918497  0.75561903  1
  Ir  Ir133  1  0.83812801  0.83532720  0.24565166  1
  Ir  Ir134  1  0.82590974  0.49985408  -0.00152791  1
  Ir  Ir135  1  0.82806840  0.83243106  0.74917681  1
  Ir  Ir136  1  0.66979601  0.33436203  -0.00049163  1
  Ir  Ir137  1  -0.00045021  0.33286717  0.25437193  1
  Ir  Ir138  1  0.16469454  0.49687038  0.74343671  1
  Ir  Ir139  1  0.16193233  0.49785881  0.49992940  1
  Ir  Ir140  1  0.66707172  0.66763140  -0.00340486  1
  Ir  Ir141  1  0.16414999  0.83491626  0.49965088  1
  Ir  Ir142  1  0.33952885  0.00021516  0.00552520  1
  Ir  Ir143  1  0.16440013  0.16153240  0.25299014  1
  O  O144  1  0.30809752  0.32319114  0.12555672  1
  O  O145  1  0.31376908  0.32876587  0.62616579  1
  O  O146  1  0.29537625  0.66435609  0.12560963  1
  O  O147  1  0.32109508  0.66414184  0.62278510  1
  O  O148  1  0.31573875  1.00085784  0.13023083  1
  O  O149  1  0.32517460  0.99907941  0.61817796  1
  O  O150  1  0.63525389  0.32854216  0.12237735  1
  O  O151  1  0.64590510  0.33063859  0.62585803  1
  O  O152  1  0.65068717  0.66150912  0.11924765  1
  O  O153  1  0.64443905  0.65154036  0.62489987  1
  O  O154  1  0.63553940  0.99829493  0.11838884  1
  O  O155  1  0.62981518  0.99097511  0.62253823  1
  O  O156  1  0.96757543  0.33006221  0.13400058  1
  O  O157  1  0.96576251  0.32495130  0.61741941  1
  O  O158  1  0.97560489  0.67382082  0.12935539  1
  O  O159  1  0.96797749  0.65691615  0.61543803  1
  O  O160  1  0.96443492  0.98898898  0.12630913  1
  O  O161  1  0.95984284  0.99843127  0.62383451  1
  O  O162  1  0.18236116  0.16170977  0.13285781  1
  O  O163  1  0.18369114  0.15855010  0.62587607  1
  O  O164  1  0.17758574  0.50901665  0.13346051  1
  O  O165  1  0.18542382  0.49910213  0.62232719  1
  O  O166  1  0.17694982  0.81973597  0.12700448  1
  O  O167  1  0.18248841  0.83087253  0.62330033  1
  O  O168  1  0.52704940  0.15007117  0.13141352  1
  O  O169  1  0.51879136  0.15572376  0.63214249  1
  O  O170  1  0.54053862  0.48694329  0.12169441  1
  O  O171  1  0.53356955  0.49631739  0.62585295  1
  O  O172  1  0.52142382  0.84014022  0.12878983  1
  O  O173  1  0.53442967  0.83212357  0.61485407  1
  O  O174  1  0.85259121  0.15237511  0.12492122  1
  O  O175  1  0.85367296  0.14853329  0.62386453  1
  O  O176  1  0.85221501  0.48891415  0.12221626  1
  O  O177  1  0.86406168  0.48508726  0.62962777  1
  O  O178  1  0.86666918  0.83366797  0.12275031  1
  O  O179  1  0.85198235  0.82454812  0.62935404  1
  O  O180  1  0.13996837  0.16072928  0.37155465  1
  O  O181  1  0.13501283  0.17427578  0.87798879  1
  O  O182  1  0.13253147  0.50021943  0.37824240  1
  O  O183  1  0.14685272  0.49634457  0.86048366  1
  O  O184  1  0.14507380  0.85015415  0.38053887  1
  O  O185  1  0.15086965  0.83702916  0.86831083  1
  O  O186  1  0.47184736  0.17132467  0.37048829  1
  O  O187  1  0.47483463  0.17905186  0.87552180  1
  O  O188  1  0.49354152  0.51063390  0.37211938  1
  O  O189  1  0.46628199  0.50378517  0.87677877  1
  O  O190  1  0.46672475  0.84262633  0.37328301  1
  O  O191  1  0.48386584  0.84892374  0.88563676  1
  O  O192  1  0.79381147  0.17424337  0.37477303  1
  O  O193  1  0.79197019  0.18450853  0.87761540  1
  O  O194  1  0.80194845  0.50559676  0.36919833  1
  O  O195  1  0.79804681  0.50100175  0.87331459  1
  O  O196  1  0.81425078  0.84616908  0.36527973  1
  O  O197  1  0.79678455  0.84272001  0.87444119  1
  O  O198  1  0.03376600  0.00407742  0.36491334  1
  O  O199  1  0.01175395  -0.00210099  0.88406171  1
  O  O200  1  0.02254208  0.34873668  0.37702999  1
  O  O201  1  0.02964733  0.34551359  0.87341337  1
  O  O202  1  0.01714201  0.66167064  0.37005512  1
  O  O203  1  0.00820747  0.66336922  0.88256251  1
  O  O204  1  0.35436296  0.02012028  0.37372796  1
  O  O205  1  0.36619707  0.00192020  0.88437581  1
  O  O206  1  0.34654221  0.32921666  0.38015920  1
  O  O207  1  0.36897559  0.34594950  0.86872936  1
  O  O208  1  0.35889919  0.67960894  0.37410892  1
  O  O209  1  0.36269254  0.67526035  0.87569935  1
  O  O210  1  0.69800657  0.00425760  0.38170363  1
  O  O211  1  0.70103182  0.00541776  0.88101083  1
  O  O212  1  0.69164077  0.34906669  0.37409720  1
  O  O213  1  0.70360040  0.34279496  0.87551778  1
  O  O214  1  0.71027590  0.67419396  0.37398093  1
  O  O215  1  0.69025198  0.67826109  0.87875287  1
  O  O216  1  0.06478965  0.08429072  0.01091611  1
  O  O217  1  0.07104995  0.09176861  0.50539046  1
  O  O218  1  0.06932885  0.43155990  0.01790890  1
  O  O219  1  0.06259562  0.43125675  0.51989377  1
  O  O220  1  0.06134007  0.75840111  0.02336379  1
  O  O221  1  0.07412692  0.75799464  0.51567053  1
  O  O222  1  0.41477109  0.08564057  0.01703833  1
  O  O223  1  0.41269114  0.08689257  0.51515685  1
  O  O224  1  0.41339223  0.42009663  0.03124171  1
  O  O225  1  0.40676697  0.42066255  0.51089156  1
  O  O226  1  0.41145290  0.77101270  0.01866673  1
  O  O227  1  0.41066815  0.77263561  0.50479110  1
  O  O228  1  0.73753634  0.08712020  0.01948410  1
  O  O229  1  0.73920245  0.08296520  0.52278335  1
  O  O230  1  0.72846771  0.43483932  0.02192985  1
  O  O231  1  0.73777668  0.42775385  0.52966954  1
  O  O232  1  0.73469554  0.76706329  0.01066206  1
  O  O233  1  0.73498559  0.76518716  0.52991653  1
  O  O234  1  0.09559848  0.26208593  0.01471391  1
  O  O235  1  0.08759646  0.26506383  0.51057958  1
  O  O236  1  0.08956424  0.60459852  0.01948149  1
  O  O237  1  0.08629468  0.58605173  0.52304493  1
  O  O238  1  0.07853612  0.91997652  0.02354273  1
  O  O239  1  0.09215350  0.92243074  0.51639215  1
  O  O240  1  0.44331664  0.26613465  0.01802127  1
  O  O241  1  0.42023423  0.25928621  0.51363939  1
  O  O242  1  0.43499611  0.60154351  0.01452172  1
  O  O243  1  0.43523241  0.59823605  0.49974967  1
  O  O244  1  0.44017316  0.93586435  0.02509451  1
  O  O245  1  0.43632661  0.93244556  0.52225645  1
  O  O246  1  0.76640438  0.27554125  0.02592143  1
  O  O247  1  0.76541175  0.26964857  0.52526757  1
  O  O248  1  0.75550332  0.59199354  0.02088074  1
  O  O249  1  0.77494808  0.60160844  0.52698560  1
  O  O250  1  0.76605504  0.93287499  0.02454862  1
  O  O251  1  0.75196291  0.92713369  0.53182043  1
  O  O252  1  0.23413012  0.06930979  0.27748309  1
  O  O253  1  0.25340325  0.08075756  0.77852073  1
  O  O254  1  0.23532340  0.41563876  0.26446691  1
  O  O255  1  0.23982192  0.40004751  0.77273259  1
  O  O256  1  0.24589504  0.75230108  0.27972278  1
  O  O257  1  0.23679631  0.74586456  0.76068708  1
  O  O258  1  0.57897418  0.08184866  0.27479215  1
  O  O259  1  0.56696668  0.07399042  0.78108517  1
  O  O260  1  0.58167421  0.40351885  0.26598613  1
  O  O261  1  0.57644049  0.39676251  0.78102757  1
  O  O262  1  0.56406633  0.74243365  0.27444764  1
  O  O263  1  0.56931008  0.73438686  0.78230607  1
  O  O264  1  0.91153117  0.06937462  0.27482592  1
  O  O265  1  0.89929465  0.06867827  0.78789577  1
  O  O266  1  0.90846181  0.40906164  0.27114264  1
  O  O267  1  0.89114830  0.39865540  0.76934397  1
  O  O268  1  0.89991125  0.73431386  0.27206321  1
  O  O269  1  0.89668508  0.73913152  0.75911363  1
  O  O270  1  0.26105477  0.22494321  0.27562099  1
  O  O271  1  0.27213233  0.24299277  0.78083465  1
  O  O272  1  0.24907785  0.57227633  0.27166101  1
  O  O273  1  0.26024645  0.56323153  0.76663287  1
  O  O274  1  0.26269842  0.91700636  0.27958338  1
  O  O275  1  0.25190632  0.90905688  0.75736323  1
  O  O276  1  0.60156451  0.23540596  0.27644032  1
  O  O277  1  0.60213049  0.23666817  0.78002003  1
  O  O278  1  0.60508352  0.57092726  0.26565167  1
  O  O279  1  0.60664518  0.55946092  0.77901741  1
  O  O280  1  0.58821075  0.90771615  0.26527724  1
  O  O281  1  0.60528562  0.89627335  0.77420372  1
  O  O282  1  0.93683120  0.23719876  0.27681318  1
  O  O283  1  0.92975961  0.23490748  0.78157332  1
  O  O284  1  0.92518424  0.56884003  0.27640971  1
  O  O285  1  0.92356483  0.56383357  0.75734445  1
  O  O286  1  0.92895038  0.90850660  0.26946958  1
  O  O287  1  0.91408673  0.90305112  0.77395567  1
  O  O288  1  0.26427657  0.23856364  0.48118432  1
  O  O289  1  0.26771393  0.23421196  0.96694184  1
  O  O290  1  0.25023080  0.57113836  0.48267766  1
  O  O291  1  0.26521875  0.56180129  0.97296337  1
  O  O292  1  0.25995264  0.90930547  0.47236013  1
  O  O293  1  0.26079228  0.91705393  0.99237423  1
  O  O294  1  0.60567431  0.23873378  0.47669755  1
  O  O295  1  0.61020484  0.23659440  0.97361737  1
  O  O296  1  0.61548711  0.56024655  0.47960109  1
  O  O297  1  0.60276371  0.57288559  0.97400719  1
  O  O298  1  0.59551691  0.90636349  0.48146764  1
  O  O299  1  0.59958384  0.90673583  0.97375506  1
  O  O300  1  0.93751985  0.23714719  0.47139554  1
  O  O301  1  0.92861418  0.23631951  0.96820985  1
  O  O302  1  0.93234035  0.56895087  0.47047333  1
  O  O303  1  0.92054942  0.57052967  0.98729044  1
  O  O304  1  0.91384780  0.91391411  0.47340685  1
  O  O305  1  0.92121813  0.90434052  0.98181346  1
  O  O306  1  0.24726624  0.07096761  0.47410781  1
  O  O307  1  0.25324613  0.07503811  0.98203272  1
  O  O308  1  0.23864104  0.40916726  0.48223177  1
  O  O309  1  0.23892163  0.40211395  0.96658050  1
  O  O310  1  0.24302335  0.75265377  0.48002372  1
  O  O311  1  0.23196709  0.73554760  0.98742018  1
  O  O312  1  0.58260150  0.07651743  0.48024565  1
  O  O313  1  0.57866453  0.06807398  0.96959441  1
  O  O314  1  0.58274800  0.40206029  0.48072560  1
  O  O315  1  0.57632422  0.39712783  0.97013441  1
  O  O316  1  0.56368249  0.73877187  0.46899541  1
  O  O317  1  0.57163913  0.74025210  0.97422277  1
  O  O318  1  0.90630032  0.07598271  0.45628096  1
  O  O319  1  0.90158798  0.06502521  0.97935196  1
  O  O320  1  0.91039065  0.40591949  0.48302070  1
  O  O321  1  0.88840188  0.40193605  0.98246519  1
  O  O322  1  0.90148250  0.72833809  0.47656824  1
  O  O323  1  0.89951736  0.74083851  0.98181890  1
  O  O324  1  0.09298157  0.25972934  0.23595515  1
  O  O325  1  0.10126539  0.26760539  0.74087129  1
  O  O326  1  0.09364646  0.60191498  0.23027066  1
  O  O327  1  0.09025155  0.58532788  0.72584984  1
  O  O328  1  0.08286564  0.92300189  0.22227421  1
  O  O329  1  0.08927537  0.91815243  0.73525184  1
  O  O330  1  0.43733097  0.25591441  0.22511032  1
  O  O331  1  0.43670175  0.26708042  0.73903768  1
  O  O332  1  0.42836380  0.59821437  0.23892421  1
  O  O333  1  0.43868160  0.59989464  0.74537063  1
  O  O334  1  0.43100831  0.93623698  0.23043703  1
  O  O335  1  0.44452938  0.94295867  0.73781514  1
  O  O336  1  0.76446691  0.27166698  0.22445011  1
  O  O337  1  0.76798679  0.27302080  0.72923495  1
  O  O338  1  0.76357305  0.58667436  0.22806523  1
  O  O339  1  0.76800279  0.59120644  0.72090106  1
  O  O340  1  0.77379949  0.93050767  0.22651863  1
  O  O341  1  0.76363777  0.92587515  0.72256260  1
  O  O342  1  0.06741389  0.09310152  0.23220143  1
  O  O343  1  0.06812606  0.09059336  0.74940598  1
  O  O344  1  0.06638302  0.43209082  0.24103301  1
  O  O345  1  0.06770433  0.43482474  0.71850754  1
  O  O346  1  0.06450581  0.75755931  0.23027125  1
  O  O347  1  0.07746838  0.75580160  0.73762437  1
  O  O348  1  0.41500256  0.09234525  0.22826035  1
  O  O349  1  0.41157122  0.10129057  0.74199527  1
  O  O350  1  0.41603486  0.41639493  0.23105772  1
  O  O351  1  0.40340129  0.42404867  0.73084999  1
  O  O352  1  0.40757164  0.77016286  0.24085150  1
  O  O353  1  0.40531883  0.76975677  0.73556893  1
  O  O354  1  0.74716073  0.08593489  0.23483511  1
  O  O355  1  0.73749431  0.08985472  0.73359875  1
  O  O356  1  0.73594248  0.42965584  0.21864632  1
  O  O357  1  0.73286914  0.43248835  0.72552818  1
  O  O358  1  0.74713584  0.76747456  0.22967938  1
  O  O359  1  0.73599720  0.76479747  0.72543697  1
