# generated using pymatgen
data_BaLaInIrO6
_symmetry_space_group_name_H-M   'P 1'
_cell_length_a   17.50140947
_cell_length_b   17.52505411
_cell_length_c   16.48084108
_cell_angle_alpha   90.00225595
_cell_angle_beta   89.98422796
_cell_angle_gamma   90.05608612
_symmetry_Int_Tables_number   1
_chemical_formula_structural   BaLaInIrO6
_chemical_formula_sum   'Ba36 La36 In36 Ir36 O216'
_cell_volume   5054.88803175
_cell_formula_units_Z   36
loop_
 _symmetry_equiv_pos_site_id
 _symmetry_equiv_pos_as_xyz
  1  'x, y, z'
loop_
 _atom_site_type_symbol
 _atom_site_label
 _atom_site_symmetry_multiplicity
 _atom_site_fract_x
 _atom_site_fract_y
 _atom_site_fract_z
 _atom_site_occupancy
  Ba  Ba0  1  -0.00563926  0.48743863  0.87784050  1
  Ba  Ba1  1  0.66703648  0.15515206  0.87385452  1
  Ba  Ba2  1  0.16791039  0.32643057  0.37771683  1
  Ba  Ba3  1  0.33116869  0.49105673  0.37387188  1
  Ba  Ba4  1  0.83488250  0.67418730  0.12359470  1
  Ba  Ba5  1  0.99834120  0.50996603  0.62657250  1
  Ba  Ba6  1  0.67048677  0.83980874  0.12506684  1
  Ba  Ba7  1  0.16482325  0.33820387  0.12969683  1
  Ba  Ba8  1  0.33710935  0.49516428  0.87830147  1
  Ba  Ba9  1  0.49499073  0.67051042  0.12773046  1
  Ba  Ba10  1  0.49965202  0.00845211  0.62533422  1
  Ba  Ba11  1  0.33301869  0.82714337  0.87251388  1
  Ba  Ba12  1  1.00157498  0.84119192  0.12271782  1
  Ba  Ba13  1  0.83972525  0.99386321  0.37462756  1
  Ba  Ba14  1  0.67114635  0.17841977  0.63033061  1
  Ba  Ba15  1  0.83398316  0.65636920  0.36775752  1
  Ba  Ba16  1  0.50658873  0.98769564  0.87304500  1
  Ba  Ba17  1  0.66288471  0.82094793  0.87170694  1
  Ba  Ba18  1  0.16694933  0.67340298  0.11888408  1
  Ba  Ba19  1  0.33324972  0.17877716  0.12910892  1
  Ba  Ba20  1  0.50034258  0.64889536  0.37910505  1
  Ba  Ba21  1  0.83452709  0.67225912  0.62202821  1
  Ba  Ba22  1  0.50132174  0.98906148  0.37726650  1
  Ba  Ba23  1  0.99963457  0.17326720  0.13208995  1
  Ba  Ba24  1  0.33272190  0.50851300  0.62370704  1
  Ba  Ba25  1  0.83462157  0.99051507  0.87124003  1
  Ba  Ba26  1  0.49875305  0.33921715  0.12520567  1
  Ba  Ba27  1  -0.00285321  0.49335231  0.37663354  1
  Ba  Ba28  1  0.66643504  0.49391753  0.37632300  1
  Ba  Ba29  1  0.16925164  0.99374556  0.37230418  1
  Ba  Ba30  1  0.83166954  0.65363503  0.87495671  1
  Ba  Ba31  1  0.50012410  0.34004243  0.62934617  1
  Ba  Ba32  1  0.99775585  0.17722471  0.62729603  1
  Ba  Ba33  1  -0.00059099  0.82404805  0.36999044  1
  Ba  Ba34  1  0.33182899  0.84245286  0.62514967  1
  Ba  Ba35  1  0.33293581  0.50457439  0.12587765  1
  La  La36  1  0.67018721  0.84853910  0.62394762  1
  La  La37  1  0.16739770  0.31905305  0.87977650  1
  La  La38  1  0.17033618  0.64956065  0.87210842  1
  La  La39  1  0.00095273  0.15713668  0.37522174  1
  La  La40  1  0.32794051  0.81762299  0.37835516  1
  La  La41  1  0.67466532  0.18066585  0.12263296  1
  La  La42  1  0.50164424  0.32017331  0.87760757  1
  La  La43  1  0.17047946  0.65233819  0.37270545  1
  La  La44  1  0.16150789  0.01600256  0.62018103  1
  La  La45  1  0.49767641  0.66133610  0.87241577  1
  La  La46  1  0.82761028  0.01727963  0.62680448  1
  La  La47  1  0.17154321  0.99379901  0.87979177  1
  La  La48  1  1.00344805  0.84573616  0.62034777  1
  La  La49  1  0.34159080  0.18028816  0.61814759  1
  La  La50  1  0.84166407  0.32704957  0.37501158  1
  La  La51  1  0.49876025  0.32737159  0.37451966  1
  La  La52  1  0.82564127  0.34971275  0.63192841  1
  La  La53  1  0.15946250  0.34723145  0.62907920  1
  La  La54  1  -0.00687442  0.15451997  0.87946277  1
  La  La55  1  0.83165796  0.01488498  0.12226110  1
  La  La56  1  0.49589688  0.00971431  0.12253718  1
  La  La57  1  0.49605393  0.67682452  0.62061068  1
  La  La58  1  0.66125588  0.48883398  0.87745752  1
  La  La59  1  0.83121488  0.35000163  0.12147712  1
  La  La60  1  0.16522659  0.01662095  0.12334822  1
  La  La61  1  0.34110528  0.84556369  0.12982805  1
  La  La62  1  0.33146451  0.15713211  0.37324583  1
  La  La63  1  -0.00871101  0.81746050  0.87514817  1
  La  La64  1  0.66275520  0.15122886  0.37565292  1
  La  La65  1  0.33238685  0.16360313  0.87128666  1
  La  La66  1  0.66232204  0.81764240  0.37507437  1
  La  La67  1  0.66751685  0.51484789  0.12531022  1
  La  La68  1  1.00807128  0.51450757  0.12749919  1
  La  La69  1  0.15738183  0.68116939  0.62320831  1
  La  La70  1  0.67085899  0.51019193  0.62414233  1
  La  La71  1  0.83582154  0.32006603  0.87382526  1
  In  In72  1  0.66528266  -0.00070039  0.24939373  1
  In  In73  1  0.66410004  0.66642864  0.25052863  1
  In  In74  1  0.33413081  0.66511857  0.25109341  1
  In  In75  1  0.66612638  0.66773417  0.50343702  1
  In  In76  1  0.00338058  -0.00094584  0.24762317  1
  In  In77  1  0.00158752  -0.00174991  0.74945721  1
  In  In78  1  0.16115808  0.83593780  0.75174998  1
  In  In79  1  0.33366302  0.00372511  0.00198912  1
  In  In80  1  0.50250138  0.16753104  0.49807749  1
  In  In81  1  0.50284782  0.16790098  0.25101569  1
  In  In82  1  0.16482829  0.16970345  0.74979838  1
  In  In83  1  0.83323249  0.49858497  0.49930656  1
  In  In84  1  0.32998576  0.33816733  0.75120501  1
  In  In85  1  0.49945796  0.82968820  0.00156328  1
  In  In86  1  0.33048235  0.00433730  0.75081901  1
  In  In87  1  0.66857398  0.33388477  0.49721824  1
  In  In88  1  0.33172304  -0.00110257  0.50019378  1
  In  In89  1  0.66651346  -0.00271926  -0.00031607  1
  In  In90  1  0.83278412  0.17252601  0.50077286  1
  In  In91  1  0.16473848  0.49332779  -0.00059605  1
  In  In92  1  0.49979655  0.83151247  0.74417358  1
  In  In93  1  0.50200009  0.49693187  0.00058624  1
  In  In94  1  0.33185808  0.66826590  -0.00221734  1
  In  In95  1  -0.00080717  0.66521159  -0.00289577  1
  In  In96  1  0.83408833  0.82979861  0.74677205  1
  In  In97  1  0.50168067  0.16613225  0.00182986  1
  In  In98  1  -0.00128666  0.67001648  0.49643351  1
  In  In99  1  0.83323865  0.83667218  0.24928747  1
  In  In100  1  0.00032469  0.33322358  0.25032154  1
  In  In101  1  -0.00072355  0.00160692  0.50030351  1
  In  In102  1  0.66747346  0.66381526  -0.00235653  1
  In  In103  1  0.83180238  0.17121098  0.25226166  1
  In  In104  1  0.33006553  0.66580835  0.74443139  1
  In  In105  1  0.49966844  0.16810584  0.74818866  1
  In  In106  1  0.16449242  0.83512163  -0.00288326  1
  In  In107  1  0.16592486  0.50139192  0.50197122  1
  Ir  Ir108  1  0.50639606  0.49978143  0.74627468  1
  Ir  Ir109  1  0.33315386  0.33042165  0.00064101  1
  Ir  Ir110  1  0.66802724  0.33840017  0.75745056  1
  Ir  Ir111  1  0.00496854  0.66476522  0.24838053  1
  Ir  Ir112  1  0.83557227  0.16923995  -0.00047349  1
  Ir  Ir113  1  0.33353458  -0.00206416  0.25068639  1
  Ir  Ir114  1  0.17089003  0.16737457  0.25190652  1
  Ir  Ir115  1  0.67120380  -0.00318092  0.50102845  1
  Ir  Ir116  1  0.83061766  0.49846374  0.75522027  1
  Ir  Ir117  1  0.83216256  0.83576358  0.50144274  1
  Ir  Ir118  1  0.49754978  0.49395155  0.50217920  1
  Ir  Ir119  1  0.33444737  0.33511714  0.25202888  1
  Ir  Ir120  1  0.50250245  0.49145731  0.25404427  1
  Ir  Ir121  1  0.67269347  0.33586973  0.24722893  1
  Ir  Ir122  1  0.16510795  0.49924022  0.25037785  1
  Ir  Ir123  1  0.00041743  0.33148239  0.50418377  1
  Ir  Ir124  1  0.83440175  0.49582157  0.24355487  1
  Ir  Ir125  1  0.83560374  0.17050680  0.75544455  1
  Ir  Ir126  1  0.16741357  0.83179312  0.49633047  1
  Ir  Ir127  1  0.50124485  0.83149010  0.49741759  1
  Ir  Ir128  1  0.67101336  -0.00058300  0.74449159  1
  Ir  Ir129  1  -0.00248890  0.33483470  0.75219683  1
  Ir  Ir130  1  0.16109281  0.49829908  0.75071274  1
  Ir  Ir131  1  0.00045970  0.66495467  0.74791742  1
  Ir  Ir132  1  0.17059817  0.17184363  0.49957827  1
  Ir  Ir133  1  -0.00340618  0.33073182  -0.00155744  1
  Ir  Ir134  1  0.17210656  0.83200963  0.25190283  1
  Ir  Ir135  1  0.49705247  0.83430885  0.25589453  1
  Ir  Ir136  1  0.33134336  0.66791638  0.49988077  1
  Ir  Ir137  1  0.67002469  0.33386256  0.00077928  1
  Ir  Ir138  1  0.83201898  0.49393869  0.00119308  1
  Ir  Ir139  1  0.15970275  0.17006373  0.00032551  1
  Ir  Ir140  1  0.66484872  0.65801603  0.74662978  1
  Ir  Ir141  1  0.33130286  0.33340817  0.49905180  1
  Ir  Ir142  1  0.00046637  0.00490670  -0.00104754  1
  Ir  Ir143  1  0.83642658  0.83634651  -0.00293438  1
  O  O144  1  0.31137358  0.33501809  0.12658042  1
  O  O145  1  0.29933086  0.32317285  0.61971438  1
  O  O146  1  0.31819653  0.66221403  0.12724249  1
  O  O147  1  0.29567580  0.66359347  0.61744269  1
  O  O148  1  0.29974967  0.98702058  0.13347150  1
  O  O149  1  0.29400568  1.00002507  0.62279291  1
  O  O150  1  0.64654998  0.32026845  0.12452780  1
  O  O151  1  0.65086269  0.33502919  0.63688527  1
  O  O152  1  0.64961490  0.65582268  0.12540886  1
  O  O153  1  0.63526919  0.65321686  0.62855023  1
  O  O154  1  0.63074987  0.99735962  0.12614219  1
  O  O155  1  0.64928346  0.99051921  0.62101620  1
  O  O156  1  0.96781243  0.32564010  0.11858792  1
  O  O157  1  0.96573309  0.33189696  0.62925213  1
  O  O158  1  0.98535699  0.65653841  0.12832611  1
  O  O159  1  0.98545713  0.66697102  0.62850936  1
  O  O160  1  0.96855831  1.00285467  0.11730112  1
  O  O161  1  0.96216934  0.99223725  0.62353379  1
  O  O162  1  0.18802945  0.15768336  0.12631473  1
  O  O163  1  0.20293924  0.16637055  0.61944282  1
  O  O164  1  0.18091923  0.49677755  0.13087497  1
  O  O165  1  0.18120131  0.48845045  0.63162060  1
  O  O166  1  0.20224060  0.82765151  0.13283247  1
  O  O167  1  0.18470054  0.81716045  0.61569336  1
  O  O168  1  0.53739238  0.16586711  0.12826835  1
  O  O169  1  0.52194705  0.17562533  0.62267081  1
  O  O170  1  0.52842288  0.49358836  0.13276760  1
  O  O171  1  0.53198508  0.49234441  0.62401873  1
  O  O172  1  0.51825804  0.83023162  0.13868450  1
  O  O173  1  0.53477981  0.82135743  0.61634283  1
  O  O174  1  0.85099302  0.16091791  0.11904004  1
  O  O175  1  0.84839383  0.16059536  0.63391571  1
  O  O176  1  0.86792783  0.48893337  0.12117134  1
  O  O177  1  0.85014302  0.48848474  0.63457327  1
  O  O178  1  0.85078725  0.83206837  0.11563207  1
  O  O179  1  0.86524585  0.82968728  0.61966053  1
  O  O180  1  0.13782063  0.17098681  0.37642599  1
  O  O181  1  0.12814730  0.18034781  0.88127322  1
  O  O182  1  0.14719767  0.50565628  0.37126325  1
  O  O183  1  0.14230894  0.50524167  0.86870531  1
  O  O184  1  0.14664573  0.83776535  0.37447996  1
  O  O185  1  0.12038824  0.85909852  0.87304850  1
  O  O186  1  0.46856322  0.18170861  0.37435051  1
  O  O187  1  0.47164217  0.17950214  0.87485502  1
  O  O188  1  0.47884680  0.48383045  0.37792404  1
  O  O189  1  0.49260754  0.51569232  0.86578260  1
  O  O190  1  0.46569165  0.83640338  0.37676210  1
  O  O191  1  0.48600042  0.82036151  0.87053238  1
  O  O192  1  0.79540446  0.18735266  0.37663919  1
  O  O193  1  0.81475399  0.18052361  0.87755020  1
  O  O194  1  0.81852106  0.49148167  0.36571902  1
  O  O195  1  0.79969237  0.49563556  0.87933689  1
  O  O196  1  0.79900098  0.84076628  0.38376022  1
  O  O197  1  0.81668284  0.83571830  0.87760519  1
  O  O198  1  0.02053416  0.01629569  0.37528684  1
  O  O199  1  0.03200093  0.01555219  0.87874875  1
  O  O200  1  0.01839106  0.33896419  0.38405710  1
  O  O201  1  0.02931413  0.33406944  0.87508509  1
  O  O202  1  0.03215641  0.66555058  0.36837706  1
  O  O203  1  0.02981471  0.67138025  0.86643002  1
  O  O204  1  0.35221774  0.01182135  0.37049931  1
  O  O205  1  0.35897483  0.02721997  0.87887694  1
  O  O206  1  0.36308252  0.33538168  0.37595698  1
  O  O207  1  0.36133708  0.33113892  0.88176157  1
  O  O208  1  0.35369606  0.67634016  0.38011953  1
  O  O209  1  0.36366231  0.66819513  0.86794330  1
  O  O210  1  0.69094887  0.00509986  0.38248902  1
  O  O211  1  0.68561486  -0.00296296  0.86489708  1
  O  O212  1  0.70607069  0.34428243  0.36502592  1
  O  O213  1  0.70023560  0.34834136  0.87983830  1
  O  O214  1  0.68113001  0.67157507  0.37705227  1
  O  O215  1  0.68124101  0.65363261  0.86653220  1
  O  O216  1  0.06530942  0.10097074  0.01961694  1
  O  O217  1  0.08437691  0.09722050  0.52283917  1
  O  O218  1  0.06118504  0.42275541  0.02426773  1
  O  O219  1  0.07271170  0.41944897  0.52343491  1
  O  O220  1  0.06875477  0.76332395  0.00808488  1
  O  O221  1  0.07138918  0.76787370  0.52033797  1
  O  O222  1  0.41299743  0.08951505  0.03660343  1
  O  O223  1  0.40283857  0.09724256  0.51723013  1
  O  O224  1  0.40522670  0.42028734  0.01383485  1
  O  O225  1  0.40355802  0.42466867  0.51977245  1
  O  O226  1  0.39496044  0.77030547  0.02500959  1
  O  O227  1  0.40998563  0.75863021  0.52144968  1
  O  O228  1  0.74409361  0.09824965  0.02473955  1
  O  O229  1  0.74173873  0.08691930  0.52008824  1
  O  O230  1  0.73835511  0.42651275  0.03021700  1
  O  O231  1  0.73656928  0.42877480  0.52734747  1
  O  O232  1  0.74651491  0.76235366  0.00889843  1
  O  O233  1  0.73651694  0.77074002  0.52385565  1
  O  O234  1  0.09380891  0.26793584  0.01392938  1
  O  O235  1  0.09936401  0.26552700  0.52741092  1
  O  O236  1  0.08395838  0.58233128  0.01470391  1
  O  O237  1  0.10139503  0.60335538  0.51538482  1
  O  O238  1  0.09457861  0.94298536  0.02657149  1
  O  O239  1  0.10065514  0.92626002  0.52260147  1
  O  O240  1  0.42286562  0.26193917  0.01503083  1
  O  O241  1  0.41825986  0.26267059  0.51725891  1
  O  O242  1  0.43211941  0.59338950  0.00348346  1
  O  O243  1  0.42700061  0.59631950  0.52470628  1
  O  O244  1  0.42678858  0.92769520  0.03175610  1
  O  O245  1  0.42956182  0.92000393  0.51692206  1
  O  O246  1  0.76578488  0.26412341  0.02541424  1
  O  O247  1  0.76957614  0.27131776  0.52768528  1
  O  O248  1  0.76286956  0.58257336  0.02226048  1
  O  O249  1  0.75162123  0.58624934  0.52117857  1
  O  O250  1  0.77358191  0.93417001  0.01956428  1
  O  O251  1  0.76522097  0.92869474  0.53175183  1
  O  O252  1  0.25008298  0.08145734  0.27358929  1
  O  O253  1  0.23771147  0.08159143  0.78941892  1
  O  O254  1  0.23882395  0.40858286  0.26872320  1
  O  O255  1  0.22474805  0.40235449  0.77001248  1
  O  O256  1  0.23713751  0.74114818  0.28227485  1
  O  O257  1  0.22795367  0.73398689  0.76884385  1
  O  O258  1  0.57970384  0.07998519  0.28298759  1
  O  O259  1  0.58133186  0.07272358  0.76017204  1
  O  O260  1  0.57314781  0.39675318  0.27395703  1
  O  O261  1  0.57230377  0.40507151  0.78188904  1
  O  O262  1  0.56605705  0.74468609  0.27610747  1
  O  O263  1  0.57015805  0.72076191  0.76264649  1
  O  O264  1  0.91492709  0.08383616  0.26380088  1
  O  O265  1  0.91106802  0.08328711  0.77079869  1
  O  O266  1  0.89588767  0.39911317  0.26052746  1
  O  O267  1  0.89721670  0.39982676  0.77494091  1
  O  O268  1  0.91550924  0.73607855  0.26192755  1
  O  O269  1  0.91055479  0.73400700  0.76902262  1
  O  O270  1  0.26500329  0.24049113  0.27665068  1
  O  O271  1  0.25338857  0.24623459  0.78575659  1
  O  O272  1  0.24936859  0.57658654  0.27137573  1
  O  O273  1  0.25175664  0.56856309  0.76869641  1
  O  O274  1  0.26796705  0.89839948  0.27625741  1
  O  O275  1  0.24788669  0.91694587  0.77686324  1
  O  O276  1  0.60916014  0.24301553  0.27485552  1
  O  O277  1  0.59246090  0.25347763  0.78000035  1
  O  O278  1  0.59103584  0.56333443  0.26277805  1
  O  O279  1  0.60859304  0.55569004  0.76009384  1
  O  O280  1  0.59402007  0.89730081  0.27865103  1
  O  O281  1  0.60277588  0.90529077  0.75063895  1
  O  O282  1  0.92757272  0.24232839  0.28575102  1
  O  O283  1  0.92848423  0.24231363  0.78210816  1
  O  O284  1  0.93366510  0.56589224  0.25805207  1
  O  O285  1  0.92667162  0.56999859  0.76917362  1
  O  O286  1  0.92813141  0.90753375  0.26423196  1
  O  O287  1  0.93430926  0.89893805  0.77165775  1
  O  O288  1  0.26664549  0.23773018  0.47315281  1
  O  O289  1  0.25882953  0.23554408  0.97415540  1
  O  O290  1  0.25936041  0.58133063  0.47724061  1
  O  O291  1  0.25074916  0.57639489  0.97781557  1
  O  O292  1  0.26209427  0.89738971  0.47589088  1
  O  O293  1  0.25252564  0.91618877  0.97530482  1
  O  O294  1  0.59750707  0.24145265  0.46442429  1
  O  O295  1  0.59788740  0.24695321  0.97900596  1
  O  O296  1  0.58543187  0.56567829  0.49165561  1
  O  O297  1  0.60917856  0.55410932  0.99090006  1
  O  O298  1  0.60248900  0.89815043  0.48005535  1
  O  O299  1  0.59601885  0.90015402  0.98555924  1
  O  O300  1  0.93657131  0.24070916  0.47585028  1
  O  O301  1  0.92882452  0.23925564  0.97042346  1
  O  O302  1  0.92336251  0.57638816  0.48735226  1
  O  O303  1  0.91955017  0.56719081  0.98692919  1
  O  O304  1  0.92473321  0.90171630  0.48341179  1
  O  O305  1  0.93525476  0.90599787  0.97396600  1
  O  O306  1  0.24016860  0.08433787  0.47689563  1
  O  O307  1  0.22599943  0.07607397  0.98684628  1
  O  O308  1  0.24294354  0.40586149  0.49001709  1
  O  O309  1  0.23758313  0.39499226  0.97817744  1
  O  O310  1  0.23450693  0.73551997  0.47126913  1
  O  O311  1  0.23047871  0.73667882  0.96452008  1
  O  O312  1  0.58369918  0.07206337  0.48116122  1
  O  O313  1  0.57590632  0.07432181  0.98087600  1
  O  O314  1  0.56392941  0.40047848  0.48105499  1
  O  O315  1  0.57560313  0.39866619  0.97109040  1
  O  O316  1  0.57237715  0.74439708  0.47814236  1
  O  O317  1  0.56423174  0.72418142  0.98152332  1
  O  O318  1  0.91239727  0.08528834  0.48054052  1
  O  O319  1  0.90688830  0.07729706  0.97446702  1
  O  O320  1  0.90293570  0.39450935  0.48708002  1
  O  O321  1  0.89658641  0.39409736  0.97971503  1
  O  O322  1  0.89964972  0.74535726  0.47801579  1
  O  O323  1  0.90706232  0.74539973  0.97718860  1
  O  O324  1  0.09354049  0.25166320  0.23895977  1
  O  O325  1  0.09252292  0.27005547  0.72842644  1
  O  O326  1  0.09398604  0.58872189  0.22746840  1
  O  O327  1  0.09941973  0.59939869  0.72796075  1
  O  O328  1  0.10673133  0.92600346  0.22455838  1
  O  O329  1  0.09090649  0.92544226  0.70300245  1
  O  O330  1  0.42505228  0.26531542  0.23922714  1
  O  O331  1  0.41724202  0.25987636  0.73300763  1
  O  O332  1  0.42877462  0.58101151  0.24342323  1
  O  O333  1  0.44085076  0.59214955  0.72262167  1
  O  O334  1  0.42668956  0.92866011  0.22457573  1
  O  O335  1  0.42280223  0.92461291  0.73412155  1
  O  O336  1  0.76591845  0.27302864  0.22046738  1
  O  O337  1  0.76735876  0.27138835  0.73820986  1
  O  O338  1  0.76115868  0.58336680  0.22869048  1
  O  O339  1  0.75918542  0.58926133  0.72560110  1
  O  O340  1  0.76785438  0.93913667  0.22273888  1
  O  O341  1  0.76340629  0.92924379  0.72054047  1
  O  O342  1  0.08883151  0.08838575  0.23007086  1
  O  O343  1  0.08122256  0.08773537  0.72160851  1
  O  O344  1  0.07022359  0.43078004  0.22952732  1
  O  O345  1  0.06968876  0.42379921  0.72708900  1
  O  O346  1  0.07767361  0.75904687  0.22914335  1
  O  O347  1  0.06363299  0.75975323  0.72479654  1
  O  O348  1  0.40933261  0.08363472  0.22851109  1
  O  O349  1  0.39775059  0.10306355  0.72114616  1
  O  O350  1  0.40838603  0.42419818  0.23428734  1
  O  O351  1  0.41164801  0.43331649  0.73766972  1
  O  O352  1  0.39943361  0.77199013  0.23929998  1
  O  O353  1  0.41355964  0.74865649  0.71351951  1
  O  O354  1  0.73485408  0.10293517  0.22569653  1
  O  O355  1  0.74787232  0.09041779  0.72954444  1
  O  O356  1  0.73908461  0.43031675  0.21530871  1
  O  O357  1  0.73654544  0.43137831  0.73030308  1
  O  O358  1  0.73927542  0.76229921  0.24631968  1
  O  O359  1  0.72911877  0.75666484  0.72495334  1
