# generated using pymatgen
data_BaLaInIrO6
_symmetry_space_group_name_H-M   'P 1'
_cell_length_a   17.51050127
_cell_length_b   17.52918168
_cell_length_c   16.48354559
_cell_angle_alpha   90.02437510
_cell_angle_beta   90.03114353
_cell_angle_gamma   89.99473651
_symmetry_Int_Tables_number   1
_chemical_formula_structural   BaLaInIrO6
_chemical_formula_sum   'Ba36 La36 In36 Ir36 O216'
_cell_volume   5059.53668884
_cell_formula_units_Z   36
loop_
 _symmetry_equiv_pos_site_id
 _symmetry_equiv_pos_as_xyz
  1  'x, y, z'
loop_
 _atom_site_type_symbol
 _atom_site_label
 _atom_site_symmetry_multiplicity
 _atom_site_fract_x
 _atom_site_fract_y
 _atom_site_fract_z
 _atom_site_occupancy
  Ba  Ba0  1  0.99579984  0.83904459  0.12644126  1
  Ba  Ba1  1  0.00157800  0.82690318  0.37538303  1
  Ba  Ba2  1  0.49889249  0.33882128  0.12781657  1
  Ba  Ba3  1  0.33688994  0.17939537  0.12809173  1
  Ba  Ba4  1  0.66908124  0.17782188  0.12406117  1
  Ba  Ba5  1  0.49970658  0.01610235  0.12490688  1
  Ba  Ba6  1  0.16400161  0.00985866  0.62240619  1
  Ba  Ba7  1  0.32848534  0.82238111  0.37416002  1
  Ba  Ba8  1  0.16576701  0.65479834  0.86847796  1
  Ba  Ba9  1  0.16386412  0.67598521  0.62662677  1
  Ba  Ba10  1  0.66388085  0.50311287  0.12798749  1
  Ba  Ba11  1  0.16740249  0.99145160  0.37774698  1
  Ba  Ba12  1  0.50046799  0.67216153  0.62774683  1
  Ba  Ba13  1  0.50337371  0.31802126  0.37631362  1
  Ba  Ba14  1  0.83101787  0.68413021  0.62438267  1
  Ba  Ba15  1  0.32964688  0.17292280  0.62285911  1
  Ba  Ba16  1  1.00348084  0.17339973  0.12535861  1
  Ba  Ba17  1  0.66477493  0.15864913  0.37288620  1
  Ba  Ba18  1  0.83565608  0.98953608  0.87863185  1
  Ba  Ba19  1  1.00613359  0.17808905  0.62507324  1
  Ba  Ba20  1  -0.00226702  0.49545640  0.37705671  1
  Ba  Ba21  1  0.16265757  0.32641962  0.87789297  1
  Ba  Ba22  1  0.83049932  0.34331558  0.12552202  1
  Ba  Ba23  1  0.66359388  0.48805855  0.37775711  1
  Ba  Ba24  1  1.00330942  0.50393040  0.12367795  1
  Ba  Ba25  1  -0.00355554  0.82203930  0.87321956  1
  Ba  Ba26  1  0.66797208  0.15683246  0.87398577  1
  Ba  Ba27  1  0.33904070  0.84653900  0.12563061  1
  Ba  Ba28  1  0.83077355  0.66298370  0.37478791  1
  Ba  Ba29  1  0.83274903  0.65850214  0.87103614  1
  Ba  Ba30  1  0.67137213  0.83848259  0.12588204  1
  Ba  Ba31  1  0.66861019  0.84125692  0.62402789  1
  Ba  Ba32  1  0.16495320  0.34056505  0.12709142  1
  Ba  Ba33  1  0.66536550  0.49327621  0.87343604  1
  Ba  Ba34  1  -0.00305536  0.49473764  0.87266188  1
  Ba  Ba35  1  0.50219024  0.33638539  0.62592442  1
  La  La36  1  0.83204430  0.32036006  0.36879229  1
  La  La37  1  0.84145096  0.66130037  0.11794429  1
  La  La38  1  0.83316552  0.00886429  0.62640553  1
  La  La39  1  0.82696171  0.01642723  0.12953465  1
  La  La40  1  0.84210651  0.32121968  0.87411024  1
  La  La41  1  0.83791331  0.98536572  0.37407707  1
  La  La42  1  0.33312202  0.15511782  0.37521224  1
  La  La43  1  0.16876466  0.65596050  0.37126551  1
  La  La44  1  0.50509869  0.65325982  0.87274251  1
  La  La45  1  0.50431949  0.31734372  0.87948611  1
  La  La46  1  -0.00349672  0.15185876  0.37525375  1
  La  La47  1  0.50930733  0.98398180  0.87523534  1
  La  La48  1  0.66329349  0.81603171  0.37794368  1
  La  La49  1  0.34241070  0.50984256  0.12154786  1
  La  La50  1  0.50106918  0.98998312  0.37324051  1
  La  La51  1  0.16344924  0.67983379  0.12337259  1
  La  La52  1  0.33419587  0.15622604  0.87767737  1
  La  La53  1  -0.00707944  0.15143152  0.87242770  1
  La  La54  1  0.32521840  0.48479825  0.86847861  1
  La  La55  1  0.49161716  0.67817974  0.12731301  1
  La  La56  1  0.50795419  0.64899399  0.37831920  1
  La  La57  1  0.32769880  0.81617805  0.87537018  1
  La  La58  1  0.99982745  0.51768967  0.62519531  1
  La  La59  1  0.66698454  0.81750494  0.87168490  1
  La  La60  1  0.16582322  0.01494814  0.13216080  1
  La  La61  1  0.15825881  0.35038172  0.62580310  1
  La  La62  1  0.16974045  0.31584009  0.37492491  1
  La  La63  1  0.67090465  0.18395205  0.62207843  1
  La  La64  1  0.49482517  0.01545380  0.62469991  1
  La  La65  1  0.82578078  0.35450499  0.62326856  1
  La  La66  1  1.00163149  0.84900913  0.62528857  1
  La  La67  1  0.33988070  0.84845975  0.62546408  1
  La  La68  1  0.33043056  0.48295088  0.37858008  1
  La  La69  1  0.33345509  0.51540443  0.62532870  1
  La  La70  1  0.16916321  0.98950379  0.87817582  1
  La  La71  1  0.66961458  0.52175498  0.62640729  1
  In  In72  1  0.49654517  0.49437081  0.75037143  1
  In  In73  1  0.83442052  0.16860658  0.74385933  1
  In  In74  1  0.16661389  0.83501938  0.24826704  1
  In  In75  1  0.17128623  0.50167230  0.00058277  1
  In  In76  1  0.66771800  -0.00082943  0.25368202  1
  In  In77  1  0.50041923  0.16530519  0.74941385  1
  In  In78  1  0.33537375  0.00041417  0.75500797  1
  In  In79  1  0.49769589  0.49769589  -0.00215176  1
  In  In80  1  0.66858330  -0.00335922  -0.00054716  1
  In  In81  1  0.16550066  0.16944558  0.75408489  1
  In  In82  1  0.16781495  0.83302252  0.75122298  1
  In  In83  1  0.50001080  0.83248793  0.50227549  1
  In  In84  1  0.00214928  0.66627966  -0.00247764  1
  In  In85  1  0.33079727  0.33057364  0.50572486  1
  In  In86  1  0.83272988  0.83236707  0.24843509  1
  In  In87  1  0.00133708  0.33416793  0.25317832  1
  In  In88  1  0.17117695  0.49939109  0.25038785  1
  In  In89  1  0.33312556  0.66292612  0.25385679  1
  In  In90  1  0.66386103  0.66481343  0.24768404  1
  In  In91  1  0.00125284  0.33325526  -0.00003390  1
  In  In92  1  0.66841863  0.33601929  0.75254271  1
  In  In93  1  0.49971201  0.83243850  0.25390100  1
  In  In94  1  0.83417175  0.16638566  0.49917273  1
  In  In95  1  0.66347949  0.66454370  -0.00003599  1
  In  In96  1  0.49893043  0.49544160  0.50363942  1
  In  In97  1  0.33245209  0.33247455  -0.00056832  1
  In  In98  1  0.50033614  0.83132318  -0.00214780  1
  In  In99  1  0.00294607  -0.00556517  0.00319181  1
  In  In100  1  0.83237146  0.50074675  0.25196351  1
  In  In101  1  -0.00223425  0.67063965  0.49830378  1
  In  In102  1  0.33405040  0.00026405  0.50059116  1
  In  In103  1  0.66568048  -0.00138177  0.74560839  1
  In  In104  1  -0.00121160  0.33552045  0.49905415  1
  In  In105  1  0.83595275  0.16739957  -0.00105495  1
  In  In106  1  0.16836413  0.83048273  0.50238655  1
  In  In107  1  0.33735450  0.00198771  0.00005916  1
  Ir  Ir108  1  0.49681535  0.16784661  0.25330701  1
  Ir  Ir109  1  -0.00345164  0.66559987  0.74610599  1
  Ir  Ir110  1  0.83075663  0.84024914  0.50173994  1
  Ir  Ir111  1  0.33377848  0.66297665  0.50238756  1
  Ir  Ir112  1  0.83641021  0.83598709  0.74757293  1
  Ir  Ir113  1  0.16659129  0.49870760  0.74447697  1
  Ir  Ir114  1  0.83206529  0.50079265  0.74685464  1
  Ir  Ir115  1  0.33058154  0.33362691  0.74928331  1
  Ir  Ir116  1  0.66950794  0.33423235  -0.00110910  1
  Ir  Ir117  1  0.66782961  0.66669561  0.50110792  1
  Ir  Ir118  1  0.49978564  0.17122743  -0.00017380  1
  Ir  Ir119  1  0.83022295  0.49849434  -0.00401761  1
  Ir  Ir120  1  0.16708473  0.50152997  0.50171868  1
  Ir  Ir121  1  0.16505852  0.16847005  0.49759508  1
  Ir  Ir122  1  0.33530438  0.66636904  0.74979083  1
  Ir  Ir123  1  0.33449058  0.00601004  0.25087387  1
  Ir  Ir124  1  0.00040287  -0.00133062  0.74842703  1
  Ir  Ir125  1  0.49747392  0.83074103  0.75035498  1
  Ir  Ir126  1  -0.00372194  0.00119629  0.49831281  1
  Ir  Ir127  1  0.66701911  0.66976064  0.74847155  1
  Ir  Ir128  1  -0.00333815  0.33752917  0.74591083  1
  Ir  Ir129  1  -0.00176630  0.00295286  0.25140239  1
  Ir  Ir130  1  0.00260173  0.66745164  0.24809145  1
  Ir  Ir131  1  0.33317961  0.66621337  -0.00286155  1
  Ir  Ir132  1  0.82898514  0.49965292  0.50258801  1
  Ir  Ir133  1  0.33336466  0.33241609  0.25581533  1
  Ir  Ir134  1  0.16944818  0.16477914  0.25301151  1
  Ir  Ir135  1  0.66861489  0.33331689  0.50037991  1
  Ir  Ir136  1  0.83248966  0.82931354  -0.00076245  1
  Ir  Ir137  1  0.16713980  0.16210652  0.00018743  1
  Ir  Ir138  1  0.49591165  0.49677793  0.25066849  1
  Ir  Ir139  1  0.17145462  0.83313852  -0.00043294  1
  Ir  Ir140  1  0.66498998  0.33221191  0.25092155  1
  Ir  Ir141  1  0.83388644  0.16739471  0.25377363  1
  Ir  Ir142  1  0.66667692  0.00082121  0.50001533  1
  Ir  Ir143  1  0.50527984  0.16365365  0.49850592  1
  O  O144  1  0.31565123  0.33291239  0.13407278  1
  O  O145  1  0.29361587  0.32550215  0.63117956  1
  O  O146  1  0.30071369  0.65279422  0.11628294  1
  O  O147  1  0.30881286  0.65202762  0.62644590  1
  O  O148  1  0.30538479  1.00646269  0.12915294  1
  O  O149  1  0.31318045  0.98936519  0.62860913  1
  O  O150  1  0.64636277  0.33746035  0.12378053  1
  O  O151  1  0.65144695  0.32717530  0.61991297  1
  O  O152  1  0.62812722  0.66930221  0.12415903  1
  O  O153  1  0.65125550  0.67060620  0.62425607  1
  O  O154  1  0.64827190  0.99492466  0.12651667  1
  O  O155  1  0.63078542  0.99371220  0.61687659  1
  O  O156  1  0.98174613  0.32926319  0.12686468  1
  O  O157  1  0.96695426  0.33348243  0.62698807  1
  O  O158  1  0.97658314  0.66520720  0.12705363  1
  O  O159  1  0.97992659  0.65792474  0.62649300  1
  O  O160  1  0.96711392  1.00086752  0.13216878  1
  O  O161  1  0.96910686  0.99223317  0.62333307  1
  O  O162  1  0.19270604  0.15127452  0.12674648  1
  O  O163  1  0.17959823  0.16412498  0.62054956  1
  O  O164  1  0.20833370  0.49917721  0.12646677  1
  O  O165  1  0.19722996  0.48921669  0.62268980  1
  O  O166  1  0.19186298  0.81880378  0.11947688  1
  O  O167  1  0.20359862  0.83225863  0.62810040  1
  O  O168  1  0.52015620  0.17074204  0.12466301  1
  O  O169  1  0.53602617  0.15555008  0.61766511  1
  O  O170  1  0.51285871  0.49583198  0.13094679  1
  O  O171  1  0.53287914  0.49353800  0.62755119  1
  O  O172  1  0.52054672  0.81674691  0.12611540  1
  O  O173  1  0.52038580  0.82402065  0.63191659  1
  O  O174  1  0.85356802  0.15942597  0.13299908  1
  O  O175  1  0.86028135  0.14633640  0.62104583  1
  O  O176  1  0.84974181  0.49910976  0.11689609  1
  O  O177  1  0.86056505  0.48996254  0.62501283  1
  O  O178  1  0.84315094  0.80526014  0.11963539  1
  O  O179  1  0.86457269  0.83933111  0.62408026  1
  O  O180  1  0.13562768  0.17489734  0.37491199  1
  O  O181  1  0.13008393  0.16631599  0.88276619  1
  O  O182  1  0.14731903  0.51632261  0.38345222  1
  O  O183  1  0.14942235  0.50247073  0.86355315  1
  O  O184  1  0.15198582  0.83009964  0.37472145  1
  O  O185  1  0.14574627  0.84551254  0.88092505  1
  O  O186  1  0.47046761  0.16426527  0.37600796  1
  O  O187  1  0.47397799  0.17924293  0.87854754  1
  O  O188  1  0.46998325  0.50667306  0.37306067  1
  O  O189  1  0.46269615  0.51305160  0.87259234  1
  O  O190  1  0.47400371  0.85316162  0.37926079  1
  O  O191  1  0.46396030  0.84340627  0.86645969  1
  O  O192  1  0.81225318  0.17657564  0.37248653  1
  O  O193  1  0.81723631  0.17874314  0.86992820  1
  O  O194  1  0.81161276  0.50877524  0.38348903  1
  O  O195  1  0.81137531  0.50328625  0.87005598  1
  O  O196  1  0.80338283  0.84920852  0.38189185  1
  O  O197  1  0.80659369  0.83823479  0.87300537  1
  O  O198  1  0.02150032  0.01164509  0.37469991  1
  O  O199  1  0.03059777  0.00166807  0.87011284  1
  O  O200  1  0.03652785  0.34172905  0.37812031  1
  O  O201  1  0.01355214  0.34258927  0.86381813  1
  O  O202  1  0.03032173  0.66770911  0.37032797  1
  O  O203  1  0.01357677  0.66353183  0.86704243  1
  O  O204  1  0.36271226  0.01217971  0.37241175  1
  O  O205  1  0.37471073  0.01928024  0.87579388  1
  O  O206  1  0.35291493  0.34054449  0.37615683  1
  O  O207  1  0.36642159  0.34570541  0.86691838  1
  O  O208  1  0.36912439  0.66768092  0.38489756  1
  O  O209  1  0.36772423  0.67874278  0.87333706  1
  O  O210  1  0.70224303  0.00605576  0.38312811  1
  O  O211  1  0.68606891  0.00138027  0.87179415  1
  O  O212  1  0.69506938  0.33051154  0.37570719  1
  O  O213  1  0.70145893  0.33311004  0.88003048  1
  O  O214  1  0.68028934  0.66031068  0.38244969  1
  O  O215  1  0.68258396  0.66944503  0.86736133  1
  O  O216  1  0.08682672  0.08455573  0.02576167  1
  O  O217  1  0.06505091  0.09889886  0.50782574  1
  O  O218  1  0.07855880  0.42398997  0.00997801  1
  O  O219  1  0.07326884  0.43527630  0.52981140  1
  O  O220  1  0.08209672  0.76138870  0.01784851  1
  O  O221  1  0.06684712  0.76619052  0.52842076  1
  O  O222  1  0.40592978  0.10697992  0.01250062  1
  O  O223  1  0.41641539  0.09357213  0.51715485  1
  O  O224  1  0.39989426  0.43292283  0.02011647  1
  O  O225  1  0.39557141  0.43180243  0.52183626  1
  O  O226  1  0.40217287  0.75417984  0.01806684  1
  O  O227  1  0.39401562  0.76047808  0.52585760  1
  O  O228  1  0.75169823  0.08452764  0.02085173  1
  O  O229  1  0.73042319  0.09486559  0.52632388  1
  O  O230  1  0.73573205  0.42931370  0.01399914  1
  O  O231  1  0.73341533  0.43099324  0.52825374  1
  O  O232  1  0.73696487  0.76501773  0.00021691  1
  O  O233  1  0.73560145  0.76799845  0.50566951  1
  O  O234  1  0.09793796  0.24961858  0.01877954  1
  O  O235  1  0.10441912  0.26689646  0.51907420  1
  O  O236  1  0.10081875  0.59904595  0.02234347  1
  O  O237  1  0.09541458  0.59004244  0.51836804  1
  O  O238  1  0.10807763  0.92847582  0.02449536  1
  O  O239  1  0.08251706  0.92669379  0.52054799  1
  O  O240  1  0.43398570  0.26538684  0.00657953  1
  O  O241  1  0.43075234  0.25253975  0.51689774  1
  O  O242  1  0.42423519  0.60082177  0.02769965  1
  O  O243  1  0.42270605  0.59335025  0.52191948  1
  O  O244  1  0.43099768  0.92892005  0.01366646  1
  O  O245  1  0.43291740  0.93031858  0.52960955  1
  O  O246  1  0.75838969  0.26398331  0.01504860  1
  O  O247  1  0.76397388  0.26772961  0.52189659  1
  O  O248  1  0.76300833  0.59353662  0.01932731  1
  O  O249  1  0.75548529  0.58940268  0.52970727  1
  O  O250  1  0.77252870  0.92362593  0.02619966  1
  O  O251  1  0.76558939  0.93929555  0.52511479  1
  O  O252  1  0.24340382  0.07698620  0.27514524  1
  O  O253  1  0.23892676  0.07573893  0.78427670  1
  O  O254  1  0.24143623  0.39818924  0.28231312  1
  O  O255  1  0.23849267  0.40615298  0.76875633  1
  O  O256  1  0.23221035  0.72943681  0.26500612  1
  O  O257  1  0.24807048  0.73937417  0.77193230  1
  O  O258  1  0.56346115  0.07276470  0.27394075  1
  O  O259  1  0.56131674  0.05935352  0.76798318  1
  O  O260  1  0.56953634  0.40386340  0.26916517  1
  O  O261  1  0.56624073  0.39854014  0.77993511  1
  O  O262  1  0.56787778  0.73356637  0.28652217  1
  O  O263  1  0.56860897  0.73751923  0.77750525  1
  O  O264  1  0.90286572  0.07307467  0.27839995  1
  O  O265  1  0.91326742  0.07130826  0.76953016  1
  O  O266  1  0.89948087  0.40254553  0.27753090  1
  O  O267  1  0.89378044  0.39895383  0.76393132  1
  O  O268  1  0.91164609  0.73841695  0.26323490  1
  O  O269  1  0.90577018  0.73875882  0.76424945  1
  O  O270  1  0.26404975  0.23603748  0.28170430  1
  O  O271  1  0.26745294  0.23929815  0.77949673  1
  O  O272  1  0.26600284  0.56807376  0.28754798  1
  O  O273  1  0.26729438  0.56550652  0.76576416  1
  O  O274  1  0.26291690  0.91676143  0.26167514  1
  O  O275  1  0.26198195  0.90705828  0.78611839  1
  O  O276  1  0.59244821  0.23653837  0.26264640  1
  O  O277  1  0.59667240  0.23701941  0.75816926  1
  O  O278  1  0.58310656  0.56941167  0.27126844  1
  O  O279  1  0.59235014  0.58076609  0.76067456  1
  O  O280  1  0.59781542  0.90428640  0.28333698  1
  O  O281  1  0.59197001  0.89475386  0.77465071  1
  O  O282  1  0.92637825  0.23534837  0.27953109  1
  O  O283  1  0.93491516  0.24219418  0.77240502  1
  O  O284  1  0.93158527  0.57957955  0.26182918  1
  O  O285  1  0.92942102  0.56679347  0.75564208  1
  O  O286  1  0.92698115  0.91445202  0.27220441  1
  O  O287  1  0.93314406  0.90150487  0.75863028  1
  O  O288  1  0.25747896  0.23610458  0.47143419  1
  O  O289  1  0.26071740  0.23107554  0.97529150  1
  O  O290  1  0.26923716  0.56295815  0.48160569  1
  O  O291  1  0.27278279  0.57310436  0.96958655  1
  O  O292  1  0.26215834  0.90571520  0.48619169  1
  O  O293  1  0.26223465  0.90348576  0.97409766  1
  O  O294  1  0.60308126  0.23446604  0.48923003  1
  O  O295  1  0.59456074  0.24333678  0.97687124  1
  O  O296  1  0.59132297  0.57894327  0.49003142  1
  O  O297  1  0.58389010  0.57659991  0.97393833  1
  O  O298  1  0.60323137  0.90784240  0.47371407  1
  O  O299  1  0.59656370  0.90187171  0.96673313  1
  O  O300  1  0.93233309  0.23617994  0.47018180  1
  O  O301  1  0.92939570  0.24177712  0.96825670  1
  O  O302  1  0.92244966  0.56964323  0.49316827  1
  O  O303  1  0.91865211  0.57125874  0.98871628  1
  O  O304  1  0.92447717  0.90900545  0.48145040  1
  O  O305  1  0.92534206  0.89856451  0.98909486  1
  O  O306  1  0.24238299  0.08359148  0.47927644  1
  O  O307  1  0.23760850  0.07259286  0.97116052  1
  O  O308  1  0.22992109  0.40595255  0.47760549  1
  O  O309  1  0.24751993  0.41172005  0.97102137  1
  O  O310  1  0.23786878  0.72246823  0.47741228  1
  O  O311  1  0.24218262  0.74010313  0.97163465  1
  O  O312  1  0.56926196  0.06369715  0.47492381  1
  O  O313  1  0.56442991  0.07588893  0.97815769  1
  O  O314  1  0.57712417  0.40105691  0.48329838  1
  O  O315  1  0.57334045  0.39888638  0.97572457  1
  O  O316  1  0.57512650  0.73685239  0.47434894  1
  O  O317  1  0.56935469  0.73772151  0.96287319  1
  O  O318  1  0.90403428  0.06728857  0.47136639  1
  O  O319  1  0.92268783  0.08060432  0.97728021  1
  O  O320  1  0.89123537  0.40299273  0.48116534  1
  O  O321  1  0.89612141  0.40534276  0.97501843  1
  O  O322  1  0.90065526  0.74906124  0.48260168  1
  O  O323  1  0.90122142  0.73748741  0.98655365  1
  O  O324  1  0.10027658  0.25363532  0.24018665  1
  O  O325  1  0.09507988  0.27392576  0.72766032  1
  O  O326  1  0.10012729  0.60367935  0.22921458  1
  O  O327  1  0.08743620  0.58708081  0.72153943  1
  O  O328  1  0.09155275  0.93408946  0.22594952  1
  O  O329  1  0.08710824  0.92529889  0.72740481  1
  O  O330  1  0.42620256  0.26225647  0.23836701  1
  O  O331  1  0.42074091  0.26515201  0.73587266  1
  O  O332  1  0.42933919  0.58851187  0.22533911  1
  O  O333  1  0.41988814  0.59227528  0.73031973  1
  O  O334  1  0.42504543  0.93692438  0.23647772  1
  O  O335  1  0.43453187  0.92392456  0.72332365  1
  O  O336  1  0.76521831  0.26417099  0.23954003  1
  O  O337  1  0.76737677  0.26910503  0.72048814  1
  O  O338  1  0.76437477  0.59878496  0.22362894  1
  O  O339  1  0.75802526  0.59388057  0.72313862  1
  O  O340  1  0.77345683  0.93715516  0.23163541  1
  O  O341  1  0.77061236  0.92965880  0.72537217  1
  O  O342  1  0.07763081  0.09036823  0.23060955  1
  O  O343  1  0.06791247  0.09146514  0.73920257  1
  O  O344  1  0.07769079  0.42817592  0.23580375  1
  O  O345  1  0.06866327  0.43119496  0.71668641  1
  O  O346  1  0.07231836  0.75501590  0.22888185  1
  O  O347  1  0.06568127  0.76000252  0.72886901  1
  O  O348  1  0.40038490  0.10238943  0.24261550  1
  O  O349  1  0.40902817  0.09321111  0.72252478  1
  O  O350  1  0.39442673  0.43312557  0.23559806  1
  O  O351  1  0.39208698  0.42837948  0.72156737  1
  O  O352  1  0.40860206  0.75209827  0.22891556  1
  O  O353  1  0.39675298  0.76767630  0.73025035  1
  O  O354  1  0.74623987  0.09526385  0.23285096  1
  O  O355  1  0.73504116  0.09665800  0.71743754  1
  O  O356  1  0.73491366  0.42231847  0.24151740  1
  O  O357  1  0.73683117  0.43702105  0.72149274  1
  O  O358  1  0.73144293  0.76611483  0.25668222  1
  O  O359  1  0.73749993  0.76966639  0.74218309  1
