# generated using pymatgen
data_BaLaInIrO6
_symmetry_space_group_name_H-M   'P 1'
_cell_length_a   17.52515025
_cell_length_b   17.57092535
_cell_length_c   16.52025674
_cell_angle_alpha   90.08706939
_cell_angle_beta   90.00352534
_cell_angle_gamma   89.99800876
_symmetry_Int_Tables_number   1
_chemical_formula_structural   BaLaInIrO6
_chemical_formula_sum   'Ba36 La36 In36 Ir36 O216'
_cell_volume   5087.12809451
_cell_formula_units_Z   36
loop_
 _symmetry_equiv_pos_site_id
 _symmetry_equiv_pos_as_xyz
  1  'x, y, z'
loop_
 _atom_site_type_symbol
 _atom_site_label
 _atom_site_symmetry_multiplicity
 _atom_site_fract_x
 _atom_site_fract_y
 _atom_site_fract_z
 _atom_site_occupancy
  Ba  Ba0  1  0.16651294  0.65979256  0.87470428  1
  Ba  Ba1  1  0.66370747  0.17758213  0.12826642  1
  Ba  Ba2  1  0.50350314  0.65788252  0.37174928  1
  Ba  Ba3  1  0.33407762  0.49111784  0.87457501  1
  Ba  Ba4  1  0.49634067  0.67580513  0.62766257  1
  Ba  Ba5  1  0.33271249  0.83898096  0.62795728  1
  Ba  Ba6  1  0.99216258  0.50489905  0.12344530  1
  Ba  Ba7  1  0.83359588  0.65776408  0.37632025  1
  Ba  Ba8  1  0.83444158  0.32065288  0.37127071  1
  Ba  Ba9  1  1.00516093  0.50597340  0.62122848  1
  Ba  Ba10  1  0.83264649  0.00611673  0.62594466  1
  Ba  Ba11  1  0.33690190  0.18024366  0.12340387  1
  Ba  Ba12  1  0.49993881  0.65780046  0.88050637  1
  Ba  Ba13  1  0.16611626  0.99322517  0.87395943  1
  Ba  Ba14  1  0.16946161  0.34205699  0.12712393  1
  Ba  Ba15  1  0.65974528  0.49195810  0.88359862  1
  Ba  Ba16  1  0.83327530  0.98896894  0.37283369  1
  Ba  Ba17  1  0.83637757  0.65123301  0.87565969  1
  Ba  Ba18  1  -0.00228965  0.82176936  0.87660386  1
  Ba  Ba19  1  0.33850733  0.84528438  0.12321356  1
  Ba  Ba20  1  0.16517719  0.67160605  0.62992895  1
  Ba  Ba21  1  0.66540175  0.15311656  0.36717484  1
  Ba  Ba22  1  -0.00132026  0.82381315  0.37680672  1
  Ba  Ba23  1  0.16194824  0.00528205  0.62514013  1
  Ba  Ba24  1  0.82701305  0.67899117  0.12692994  1
  Ba  Ba25  1  0.49778083  0.01311157  0.12565647  1
  Ba  Ba26  1  0.50278999  0.67896569  0.12503845  1
  Ba  Ba27  1  1.00061160  0.83926566  0.62927953  1
  Ba  Ba28  1  0.83287075  0.32584223  0.87548952  1
  Ba  Ba29  1  1.00038259  0.16962596  0.62600304  1
  Ba  Ba30  1  0.49769392  0.00983472  0.62712202  1
  Ba  Ba31  1  0.50647236  0.32658463  0.87317708  1
  Ba  Ba32  1  0.49885773  0.99522393  0.87827391  1
  Ba  Ba33  1  0.16994234  0.33839046  0.62449723  1
  Ba  Ba34  1  0.33674324  0.50801021  0.62592680  1
  Ba  Ba35  1  0.66500068  0.84595172  0.12290622  1
  La  La36  1  0.16546525  0.01585349  0.12411659  1
  La  La37  1  0.33316377  0.48390592  0.37234252  1
  La  La38  1  0.17127618  0.97994827  0.37379974  1
  La  La39  1  0.50876047  0.31761756  0.37257952  1
  La  La40  1  0.66985135  0.51624493  0.12975392  1
  La  La41  1  -0.00466652  0.14870229  0.37747994  1
  La  La42  1  0.16564877  0.31959859  0.37637418  1
  La  La43  1  0.66317936  0.15554998  0.87763965  1
  La  La44  1  0.82381689  0.34976760  0.12776504  1
  La  La45  1  0.33297439  0.15557940  0.87514210  1
  La  La46  1  0.49014473  0.35047168  0.12398941  1
  La  La47  1  0.67009213  0.51105020  0.62891335  1
  La  La48  1  0.83145031  0.34876512  0.62204022  1
  La  La49  1  -0.00394812  0.15181474  0.87182882  1
  La  La50  1  0.49743625  0.34710710  0.62540435  1
  La  La51  1  1.00565639  0.18220735  0.12539576  1
  La  La52  1  0.16801872  0.33081850  0.87330000  1
  La  La53  1  0.67515361  0.84673796  0.62578897  1
  La  La54  1  0.65927997  0.82149396  0.36838529  1
  La  La55  1  0.82570054  0.01566370  0.12726814  1
  La  La56  1  0.50681854  0.98263380  0.37197112  1
  La  La57  1  0.83070789  0.68221479  0.62672647  1
  La  La58  1  0.16312705  0.68154721  0.12538892  1
  La  La59  1  0.00058078  0.48522713  0.37687565  1
  La  La60  1  0.32605315  0.82124804  0.87562869  1
  La  La61  1  0.16951227  0.65246699  0.37274580  1
  La  La62  1  0.66098700  0.48269654  0.37089163  1
  La  La63  1  0.83903248  0.98599785  0.87886350  1
  La  La64  1  0.33495501  0.14925032  0.37164869  1
  La  La65  1  0.67635825  0.18365451  0.62345388  1
  La  La66  1  0.33271481  0.81704983  0.37432283  1
  La  La67  1  0.66317111  0.82124759  0.87631072  1
  La  La68  1  0.33750410  0.17953417  0.62748931  1
  La  La69  1  0.00370292  0.49368456  0.86677678  1
  La  La70  1  0.33871227  0.51841896  0.12407208  1
  La  La71  1  1.00135955  0.84480152  0.12975005  1
  In  In72  1  -0.00380861  0.00165496  0.00564993  1
  In  In73  1  -0.00258596  0.66476268  0.74925742  1
  In  In74  1  0.50151265  0.16640209  0.50159119  1
  In  In75  1  0.33529482  0.66564963  0.75170671  1
  In  In76  1  0.50254461  0.49852258  0.49709030  1
  In  In77  1  -0.00191077  0.66612672  0.00427654  1
  In  In78  1  0.66618180  0.66600371  0.75012818  1
  In  In79  1  0.00124298  -0.00263385  0.49913174  1
  In  In80  1  0.16968354  0.16450400  0.49666604  1
  In  In81  1  0.33403439  0.66399718  0.49756090  1
  In  In82  1  0.66673259  0.66355185  0.50074646  1
  In  In83  1  0.66808883  0.66788395  -0.00004771  1
  In  In84  1  0.00044872  0.66559599  0.25137026  1
  In  In85  1  0.16822323  0.49648561  0.49555132  1
  In  In86  1  0.50043404  0.17090863  -0.00070355  1
  In  In87  1  0.83279584  0.17016422  -0.00159767  1
  In  In88  1  0.50070139  0.83408176  0.50331346  1
  In  In89  1  0.16657646  0.50062685  0.00340856  1
  In  In90  1  0.16627991  0.17147706  0.00005451  1
  In  In91  1  0.83261450  0.16658515  0.49823499  1
  In  In92  1  0.83182334  0.83192973  0.49722904  1
  In  In93  1  -0.00276145  0.33336852  -0.00021677  1
  In  In94  1  0.66582434  0.00245365  0.75309045  1
  In  In95  1  0.16778079  0.16502366  0.25135908  1
  In  In96  1  0.49889190  0.83791759  -0.00261174  1
  In  In97  1  0.00045123  0.32937393  0.50046984  1
  In  In98  1  0.16642490  0.82795555  0.49981378  1
  In  In99  1  0.83158079  0.49989726  0.25686488  1
  In  In100  1  0.16821120  0.49956294  0.24670477  1
  In  In101  1  0.16660827  0.83813933  0.00391312  1
  In  In102  1  0.16879720  0.49730529  0.74873816  1
  In  In103  1  0.66355188  0.00042270  0.49902844  1
  In  In104  1  0.66945802  0.33301413  0.75231593  1
  In  In105  1  0.33247744  0.00070387  0.75029170  1
  In  In106  1  0.33507067  -0.00029877  0.49792555  1
  In  In107  1  0.16632699  0.16874940  0.75146751  1
  Ir  Ir108  1  0.83210424  0.16873114  0.74984130  1
  Ir  Ir109  1  0.49653872  0.83581977  0.24812799  1
  Ir  Ir110  1  0.33552530  0.33468648  -0.00182797  1
  Ir  Ir111  1  0.67301703  0.00357866  0.00001388  1
  Ir  Ir112  1  0.33846283  0.33489524  0.25371503  1
  Ir  Ir113  1  -0.00316966  0.33166591  0.75064819  1
  Ir  Ir114  1  0.33513800  -0.00063816  0.25068892  1
  Ir  Ir115  1  0.34072350  0.33043095  0.49567670  1
  Ir  Ir116  1  -0.00085330  -0.00149352  0.24459505  1
  Ir  Ir117  1  0.33397885  0.66650696  0.00297230  1
  Ir  Ir118  1  0.49593447  0.16974535  0.25048010  1
  Ir  Ir119  1  0.50154141  0.83528945  0.75480935  1
  Ir  Ir120  1  0.83211934  0.83685199  0.00147450  1
  Ir  Ir121  1  -0.00299612  0.33060881  0.24753429  1
  Ir  Ir122  1  0.66165743  0.33333268  0.24833101  1
  Ir  Ir123  1  0.66644515  0.66885327  0.25065446  1
  Ir  Ir124  1  0.33155700  0.00283359  0.00058805  1
  Ir  Ir125  1  0.83167657  0.49851267  0.50388475  1
  Ir  Ir126  1  0.83904500  0.16542974  0.24693606  1
  Ir  Ir127  1  0.33959051  0.32966693  0.75217342  1
  Ir  Ir128  1  0.66363655  0.33532485  0.00665752  1
  Ir  Ir129  1  -0.00213767  0.66257085  0.49941568  1
  Ir  Ir130  1  0.49961143  0.49723383  0.00505491  1
  Ir  Ir131  1  0.49860328  0.49943161  0.24760227  1
  Ir  Ir132  1  0.50334433  0.49514141  0.75238996  1
  Ir  Ir133  1  0.83060202  0.83480400  0.75352655  1
  Ir  Ir134  1  0.83513646  0.49494237  0.74768619  1
  Ir  Ir135  1  0.66593543  0.33474601  0.49848525  1
  Ir  Ir136  1  0.82809018  0.49371830  -0.00160191  1
  Ir  Ir137  1  -0.00389778  -0.00107212  0.75469322  1
  Ir  Ir138  1  0.83111071  0.83539539  0.24665262  1
  Ir  Ir139  1  0.66680113  -0.00025164  0.24466314  1
  Ir  Ir140  1  0.16504336  0.83505237  0.75440065  1
  Ir  Ir141  1  0.16973980  0.83486470  0.24736101  1
  Ir  Ir142  1  0.50403775  0.17011710  0.74980161  1
  Ir  Ir143  1  0.33515994  0.66634010  0.24870366  1
  O  O144  1  0.31652821  0.33284101  0.12608642  1
  O  O145  1  0.31725337  0.31687908  0.62288868  1
  O  O146  1  0.30352371  0.65715579  0.12646555  1
  O  O147  1  0.31819112  0.66775067  0.62534297  1
  O  O148  1  0.30190161  0.99818207  0.12535065  1
  O  O149  1  0.31352485  1.00025205  0.62486017  1
  O  O150  1  0.62991075  0.33157654  0.12799346  1
  O  O151  1  0.63740760  0.32423604  0.61892014  1
  O  O152  1  0.65422302  0.65672234  0.12899182  1
  O  O153  1  0.64444253  0.64634441  0.62737402  1
  O  O154  1  0.64741663  1.00067740  0.12197735  1
  O  O155  1  0.64591669  0.98341632  0.62877789  1
  O  O156  1  0.96184895  0.31828342  0.13053163  1
  O  O157  1  0.96699498  0.32522807  0.63024808  1
  O  O158  1  0.97380610  0.65945350  0.12812892  1
  O  O159  1  0.96652738  0.65955604  0.62032917  1
  O  O160  1  0.96159529  0.98630394  0.13011657  1
  O  O161  1  0.98418909  0.99898070  0.63416635  1
  O  O162  1  0.18842842  0.15705987  0.12792582  1
  O  O163  1  0.19948502  0.16514875  0.62503628  1
  O  O164  1  0.20477026  0.49198148  0.12675521  1
  O  O165  1  0.18641064  0.49245483  0.62095163  1
  O  O166  1  0.19244576  0.82315080  0.13072168  1
  O  O167  1  0.18064802  0.83614632  0.63338739  1
  O  O168  1  0.51254283  0.16748752  0.12990854  1
  O  O169  1  0.53773146  0.16721550  0.63071608  1
  O  O170  1  0.53068110  0.49025849  0.12753815  1
  O  O171  1  0.52885982  0.48828895  0.62983980  1
  O  O172  1  0.51405415  0.83837046  0.12798333  1
  O  O173  1  0.53538543  0.83470444  0.63481398  1
  O  O174  1  0.86788116  0.15693947  0.12719295  1
  O  O175  1  0.85132904  0.16566650  0.63152607  1
  O  O176  1  0.83881076  0.49430135  0.12164825  1
  O  O177  1  0.85915648  0.48532691  0.62658007  1
  O  O178  1  0.86333162  0.83464108  0.12361750  1
  O  O179  1  0.84896645  0.82911847  0.63400545  1
  O  O180  1  0.13317123  0.18172338  0.36932738  1
  O  O181  1  0.13283756  0.18707971  0.87601739  1
  O  O182  1  0.13498682  0.51169783  0.36915939  1
  O  O183  1  0.14082101  0.49105553  0.87595879  1
  O  O184  1  0.14767411  0.84125453  0.36397985  1
  O  O185  1  0.14929503  0.83391885  0.87466281  1
  O  O186  1  0.47059435  0.18114011  0.37040037  1
  O  O187  1  0.47094983  0.17237807  0.86951650  1
  O  O188  1  0.47005322  0.49962619  0.36590377  1
  O  O189  1  0.48219441  0.49809706  0.87900767  1
  O  O190  1  0.47183359  0.83954087  0.36553981  1
  O  O191  1  0.46556852  0.83696237  0.87224411  1
  O  O192  1  0.81483461  0.16658421  0.36528360  1
  O  O193  1  0.79948400  0.17245744  0.86814837  1
  O  O194  1  0.79726585  0.49989609  0.38477665  1
  O  O195  1  0.80843074  0.49166974  0.87131496  1
  O  O196  1  0.79952997  0.83325443  0.36576543  1
  O  O197  1  0.80050481  0.84517831  0.87908712  1
  O  O198  1  0.03315461  0.00950898  0.36120637  1
  O  O199  1  0.01297132  0.00580708  0.87460244  1
  O  O200  1  0.02486086  0.34337666  0.36539671  1
  O  O201  1  0.02548362  0.34643771  0.87006029  1
  O  O202  1  0.02938570  0.66885343  0.37901288  1
  O  O203  1  0.01031941  0.65841864  0.87788768  1
  O  O204  1  0.36910231  0.01118159  0.36646817  1
  O  O205  1  0.35114976  0.01332209  0.88063000  1
  O  O206  1  0.37288927  0.34424051  0.37462409  1
  O  O207  1  0.36227492  0.33636707  0.87635593  1
  O  O208  1  0.35597502  0.67843376  0.36543496  1
  O  O209  1  0.35111632  0.67930615  0.88206556  1
  O  O210  1  0.68370137  -0.00131344  0.36278650  1
  O  O211  1  0.70224282  0.01554498  0.88008999  1
  O  O212  1  0.68744493  0.34630215  0.37276139  1
  O  O213  1  0.68354140  0.33834063  0.88496495  1
  O  O214  1  0.68365319  0.67975421  0.37063373  1
  O  O215  1  0.68631941  0.67541245  0.87394700  1
  O  O216  1  0.06743028  0.09756992  0.02467247  1
  O  O217  1  0.07039131  0.09686594  0.50671764  1
  O  O218  1  0.06802712  0.42901148  0.01437451  1
  O  O219  1  0.06765579  0.42887396  0.49867569  1
  O  O220  1  0.07019310  0.76627743  0.02976107  1
  O  O221  1  0.06583724  0.75302443  0.51905243  1
  O  O222  1  0.40122645  0.09597185  0.00961224  1
  O  O223  1  0.39339802  0.11162750  0.51676711  1
  O  O224  1  0.40292284  0.42985376  0.02836124  1
  O  O225  1  0.40704213  0.42075139  0.51842357  1
  O  O226  1  0.40599908  0.75455626  0.01375388  1
  O  O227  1  0.39970587  0.76795381  0.50295935  1
  O  O228  1  0.74028234  0.09389847  0.02255510  1
  O  O229  1  0.73076658  0.10227290  0.52120597  1
  O  O230  1  0.72887180  0.42967404  0.03197457  1
  O  O231  1  0.73422823  0.43177263  0.52866558  1
  O  O232  1  0.74206187  0.76873208  0.01248527  1
  O  O233  1  0.74279757  0.75497051  0.53355786  1
  O  O234  1  0.08889344  0.25942247  0.02928651  1
  O  O235  1  0.10684301  0.26920204  0.50380226  1
  O  O236  1  0.10331715  0.60288882  0.02740989  1
  O  O237  1  0.08986204  0.59791937  0.51079396  1
  O  O238  1  0.09424126  0.93270828  0.03379883  1
  O  O239  1  0.10083522  0.92820718  0.49942445  1
  O  O240  1  0.43149884  0.27240944  0.02023174  1
  O  O241  1  0.43627985  0.26986900  0.52227101  1
  O  O242  1  0.42538959  0.58956690  0.02623182  1
  O  O243  1  0.43071534  0.59103494  0.51197378  1
  O  O244  1  0.42215315  0.93401073  0.01308606  1
  O  O245  1  0.43834138  0.93806075  0.50343854  1
  O  O246  1  0.76011125  0.27140751  0.02690591  1
  O  O247  1  0.76015107  0.26933634  0.52512972  1
  O  O248  1  0.75828261  0.58357468  0.01143721  1
  O  O249  1  0.76998213  0.59147120  0.53030066  1
  O  O250  1  0.77000948  0.93781631  0.02001953  1
  O  O251  1  0.75278044  0.92035135  0.52083999  1
  O  O252  1  0.23930625  0.06287053  0.27250268  1
  O  O253  1  0.24785816  0.08425214  0.77973101  1
  O  O254  1  0.24517334  0.40148421  0.28237904  1
  O  O255  1  0.24342867  0.39464639  0.77251709  1
  O  O256  1  0.23732108  0.73792357  0.27498202  1
  O  O257  1  0.24347081  0.75246227  0.77141265  1
  O  O258  1  0.56541742  0.06992326  0.26938884  1
  O  O259  1  0.57437669  0.08308616  0.77737976  1
  O  O260  1  0.56704926  0.40399466  0.27487016  1
  O  O261  1  0.57350497  0.40588999  0.75797793  1
  O  O262  1  0.57424228  0.74837236  0.27020778  1
  O  O263  1  0.57493765  0.74953019  0.77570391  1
  O  O264  1  0.91059545  0.07263684  0.27221894  1
  O  O265  1  0.90183498  0.07315635  0.77980969  1
  O  O266  1  0.90507248  0.40064415  0.26042524  1
  O  O267  1  0.90525090  0.40183983  0.76774368  1
  O  O268  1  0.90130929  0.74607560  0.26518876  1
  O  O269  1  0.89847369  0.74179504  0.76117237  1
  O  O270  1  0.26865460  0.24296637  0.28094524  1
  O  O271  1  0.26967142  0.24167779  0.77613229  1
  O  O272  1  0.27399495  0.57029325  0.27291854  1
  O  O273  1  0.25871233  0.57567112  0.76797384  1
  O  O274  1  0.26677444  0.90389496  0.27583172  1
  O  O275  1  0.25824077  0.90406474  0.77487293  1
  O  O276  1  0.58866966  0.24263721  0.27310699  1
  O  O277  1  0.60115172  0.23254529  0.77260792  1
  O  O278  1  0.59912667  0.56492304  0.26817219  1
  O  O279  1  0.59260182  0.56573842  0.76555080  1
  O  O280  1  0.59180248  0.90590587  0.27274235  1
  O  O281  1  0.59412148  0.90296601  0.78124350  1
  O  O282  1  0.93625134  0.23029654  0.27088777  1
  O  O283  1  0.93064902  0.23230916  0.77623028  1
  O  O284  1  0.93147390  0.56505387  0.27791515  1
  O  O285  1  0.92567495  0.56058983  0.77054756  1
  O  O286  1  0.92866390  0.90265586  0.26547268  1
  O  O287  1  0.91806482  0.91090845  0.77982387  1
  O  O288  1  0.27590268  0.23825408  0.47067256  1
  O  O289  1  0.26889553  0.24125206  0.97162440  1
  O  O290  1  0.26255810  0.56753823  0.46217190  1
  O  O291  1  0.26779790  0.57521824  0.98879797  1
  O  O292  1  0.26514290  0.90080483  0.46855883  1
  O  O293  1  0.26643018  0.90838780  0.97835569  1
  O  O294  1  0.59877332  0.24352885  0.47663838  1
  O  O295  1  0.60316920  0.23853544  0.97982076  1
  O  O296  1  0.60852210  0.55737158  0.47806060  1
  O  O297  1  0.58893593  0.57050422  0.99807849  1
  O  O298  1  0.59560306  0.90264599  0.46456770  1
  O  O299  1  0.60531207  0.91158330  0.97369480  1
  O  O300  1  0.93247316  0.23405006  0.47375330  1
  O  O301  1  0.93433329  0.23069688  0.97264465  1
  O  O302  1  0.92955295  0.56344854  0.47464097  1
  O  O303  1  0.92452844  0.55484234  0.97613374  1
  O  O304  1  0.92509021  0.90497644  0.48602691  1
  O  O305  1  0.92210618  0.90412018  0.98376244  1
  O  O306  1  0.23963115  0.07037754  0.45796021  1
  O  O307  1  0.24041673  0.07177825  0.98731621  1
  O  O308  1  0.24629108  0.39625668  0.46679134  1
  O  O309  1  0.23967677  0.39620196  0.97576635  1
  O  O310  1  0.23275610  0.73211370  0.47008936  1
  O  O311  1  0.24708437  0.74099495  0.98732231  1
  O  O312  1  0.56376781  0.06751780  0.47285135  1
  O  O313  1  0.58432577  0.07780068  0.98027835  1
  O  O314  1  0.57190320  0.39877928  0.47320059  1
  O  O315  1  0.56512591  0.40017744  0.99376351  1
  O  O316  1  0.57720131  0.74219189  0.48212876  1
  O  O317  1  0.58067775  0.75053629  0.98259817  1
  O  O318  1  0.90914185  0.07479973  0.47919248  1
  O  O319  1  0.89870934  0.06919929  0.97509283  1
  O  O320  1  0.89869344  0.40690880  0.48546897  1
  O  O321  1  0.89104472  0.39942689  0.99974137  1
  O  O322  1  0.90518288  0.72974142  0.49116127  1
  O  O323  1  0.89827887  0.74455786  0.98517543  1
  O  O324  1  0.08587810  0.26057549  0.22882802  1
  O  O325  1  0.08720514  0.26420021  0.73373486  1
  O  O326  1  0.11026756  0.60840607  0.23249700  1
  O  O327  1  0.08627358  0.58584347  0.73839066  1
  O  O328  1  0.09914106  0.93020953  0.21954915  1
  O  O329  1  0.08804237  0.92661163  0.73673483  1
  O  O330  1  0.43654428  0.27106765  0.23151768  1
  O  O331  1  0.43559073  0.26165514  0.72067975  1
  O  O332  1  0.42658416  0.59139158  0.22126431  1
  O  O333  1  0.43211754  0.58289382  0.74167648  1
  O  O334  1  0.42999137  0.93144361  0.23395747  1
  O  O335  1  0.43073823  0.92338365  0.73705011  1
  O  O336  1  0.76350290  0.26363725  0.22414868  1
  O  O337  1  0.76704246  0.26254572  0.72131449  1
  O  O338  1  0.75156345  0.59140027  0.23596219  1
  O  O339  1  0.76860501  0.58819511  0.72311375  1
  O  O340  1  0.76400331  0.93204484  0.22215498  1
  O  O341  1  0.75937631  0.92248424  0.73889871  1
  O  O342  1  0.06770970  0.08819727  0.21620645  1
  O  O343  1  0.06886797  0.08910806  0.74421340  1
  O  O344  1  0.06581363  0.42318034  0.23278784  1
  O  O345  1  0.06590744  0.42030663  0.73526563  1
  O  O346  1  0.07488344  0.76989050  0.22386166  1
  O  O347  1  0.07827162  0.75989426  0.73995065  1
  O  O348  1  0.39833022  0.10162223  0.23718955  1
  O  O349  1  0.40856187  0.10681506  0.72977932  1
  O  O350  1  0.40359742  0.43166982  0.22300080  1
  O  O351  1  0.41444476  0.41804614  0.72573553  1
  O  O352  1  0.40365956  0.76421042  0.23205812  1
  O  O353  1  0.41399301  0.76272598  0.73838480  1
  O  O354  1  0.74552517  0.08955739  0.22113660  1
  O  O355  1  0.73520833  0.10606390  0.72795204  1
  O  O356  1  0.73044600  0.42570745  0.22787767  1
  O  O357  1  0.74296876  0.42676427  0.71931706  1
  O  O358  1  0.73340647  0.76715558  0.23200207  1
  O  O359  1  0.73924650  0.76563720  0.72745461  1
