# generated using pymatgen
data_BaLaInIrO6
_symmetry_space_group_name_H-M   'P 1'
_cell_length_a   17.52150671
_cell_length_b   17.55772096
_cell_length_c   16.49555629
_cell_angle_alpha   89.94405723
_cell_angle_beta   89.99779275
_cell_angle_gamma   89.91638245
_symmetry_Int_Tables_number   1
_chemical_formula_structural   BaLaInIrO6
_chemical_formula_sum   'Ba36 La36 In36 Ir36 O216'
_cell_volume   5074.64759302
_cell_formula_units_Z   36
loop_
 _symmetry_equiv_pos_site_id
 _symmetry_equiv_pos_as_xyz
  1  'x, y, z'
loop_
 _atom_site_type_symbol
 _atom_site_label
 _atom_site_symmetry_multiplicity
 _atom_site_fract_x
 _atom_site_fract_y
 _atom_site_fract_z
 _atom_site_occupancy
  Ba  Ba0  1  0.32789747  0.15883750  0.37317082  1
  Ba  Ba1  1  0.16694556  0.98897000  0.87323201  1
  Ba  Ba2  1  0.50127216  0.32270075  0.87809037  1
  Ba  Ba3  1  0.66220743  0.82284342  0.87642935  1
  Ba  Ba4  1  0.50446830  0.67206917  0.12731918  1
  Ba  Ba5  1  0.16960579  0.33791246  0.62586491  1
  Ba  Ba6  1  0.65911443  0.15698239  0.87954551  1
  Ba  Ba7  1  0.33734123  0.50549992  0.62474944  1
  Ba  Ba8  1  0.66389682  0.50584151  0.62679131  1
  Ba  Ba9  1  0.99964884  0.83972914  0.12143652  1
  Ba  Ba10  1  0.83119205  0.99087504  0.37305005  1
  Ba  Ba11  1  0.33447455  0.82652474  0.37128640  1
  Ba  Ba12  1  0.66380015  0.18097612  0.12350356  1
  Ba  Ba13  1  0.49816601  0.34264467  0.62944587  1
  Ba  Ba14  1  0.99608607  0.17228649  0.62123914  1
  Ba  Ba15  1  0.66436374  0.82477128  0.37733295  1
  Ba  Ba16  1  0.50423681  0.98715877  0.37168670  1
  Ba  Ba17  1  0.49678657  0.67049640  0.62504065  1
  Ba  Ba18  1  0.82757323  0.01430135  0.62584156  1
  Ba  Ba19  1  0.16805770  0.00532000  0.12119205  1
  Ba  Ba20  1  0.16684098  0.67271606  0.62499175  1
  Ba  Ba21  1  0.16714740  0.00442952  0.62445835  1
  Ba  Ba22  1  0.83418854  0.32766754  0.36895426  1
  Ba  Ba23  1  0.99983904  0.50895602  0.13010062  1
  Ba  Ba24  1  0.16997044  0.34233202  0.12432191  1
  Ba  Ba25  1  0.33312269  0.84204727  0.12374381  1
  Ba  Ba26  1  0.49594579  0.01103800  0.12322052  1
  Ba  Ba27  1  0.49961807  0.00539587  0.62419236  1
  Ba  Ba28  1  0.49823796  0.34721286  0.11994715  1
  Ba  Ba29  1  0.33346573  0.82830121  0.87726709  1
  Ba  Ba30  1  -0.00099666  0.15526897  0.87220799  1
  Ba  Ba31  1  0.16864378  0.32598917  0.37349182  1
  Ba  Ba32  1  0.66801908  0.50701196  0.12450104  1
  Ba  Ba33  1  0.00209617  0.15988238  0.37321396  1
  Ba  Ba34  1  0.66417839  0.48753603  0.37437863  1
  Ba  Ba35  1  0.33215367  0.15985872  0.87327864  1
  La  La36  1  0.33248330  0.48711996  0.87711784  1
  La  La37  1  0.82914186  0.34194207  0.61729483  1
  La  La38  1  0.50204421  0.65364557  0.37322642  1
  La  La39  1  0.34089021  0.18504275  0.12430808  1
  La  La40  1  0.82402149  0.68298849  0.12030652  1
  La  La41  1  0.67187191  0.18571497  0.62467034  1
  La  La42  1  1.00480184  0.84880208  0.62377579  1
  La  La43  1  0.16607671  0.68276879  0.12456011  1
  La  La44  1  1.00745907  0.51064649  0.62357694  1
  La  La45  1  0.83636044  0.64833149  0.87694255  1
  La  La46  1  -0.00086141  0.82161933  0.87584754  1
  La  La47  1  0.66604765  0.84996157  0.62857261  1
  La  La48  1  0.65731307  0.15802688  0.37589900  1
  La  La49  1  0.17216144  0.98554561  0.37461555  1
  La  La50  1  0.17275768  0.31597175  0.87592444  1
  La  La51  1  0.33171680  0.84307989  0.61872154  1
  La  La52  1  0.49654002  0.98596767  0.87769093  1
  La  La53  1  -0.00067114  0.48164670  0.88035432  1
  La  La54  1  0.67244651  0.84838300  0.12537530  1
  La  La55  1  0.50941340  0.32191756  0.37354073  1
  La  La56  1  0.33264370  0.48761517  0.37291827  1
  La  La57  1  0.17016239  0.65433583  0.88166740  1
  La  La58  1  0.16937821  0.65326187  0.37219387  1
  La  La59  1  0.83991270  0.65512984  0.37815844  1
  La  La60  1  0.50267697  0.64707190  0.88095489  1
  La  La61  1  0.84002514  0.98124815  0.87478264  1
  La  La62  1  0.33739240  0.18800785  0.62564469  1
  La  La63  1  0.82656150  0.34845343  0.12293571  1
  La  La64  1  0.34114063  0.51806572  0.12718681  1
  La  La65  1  -0.00316043  0.48389323  0.37865394  1
  La  La66  1  0.82766093  0.01364632  0.12249781  1
  La  La67  1  0.66311285  0.48064195  0.87796054  1
  La  La68  1  0.82403421  0.68435623  0.62956001  1
  La  La69  1  -0.00408935  0.82340334  0.37572676  1
  La  La70  1  0.83563770  0.31989302  0.87536995  1
  La  La71  1  1.00318430  0.18159460  0.12383851  1
  In  In72  1  0.66538075  0.00279367  0.50030236  1
  In  In73  1  0.66752424  0.00106047  0.75569426  1
  In  In74  1  0.66981771  0.66769749  0.25071858  1
  In  In75  1  0.16672551  0.16307973  0.24583647  1
  In  In76  1  0.66654490  0.66487527  0.75426541  1
  In  In77  1  0.16725066  0.16412339  0.49961750  1
  In  In78  1  0.00134518  0.33425230  0.24556438  1
  In  In79  1  0.49990005  0.82879858  0.75087653  1
  In  In80  1  -0.00047662  0.66317007  0.00226828  1
  In  In81  1  0.83556329  0.83382701  0.24982370  1
  In  In82  1  0.83228093  0.16756609  0.24661194  1
  In  In83  1  0.16550858  0.50032141  0.75413496  1
  In  In84  1  0.83795531  0.49897115  0.75156746  1
  In  In85  1  0.50042697  0.16410674  0.74893659  1
  In  In86  1  0.50169240  0.49878585  0.75202974  1
  In  In87  1  0.50038068  0.82862766  0.00375708  1
  In  In88  1  0.33642534  0.00212154  0.49845763  1
  In  In89  1  0.16868075  0.50328377  0.24587442  1
  In  In90  1  -0.00189778  -0.00136509  0.49545357  1
  In  In91  1  0.50145411  0.82722629  0.49959452  1
  In  In92  1  0.83385602  0.16560635  -0.00235005  1
  In  In93  1  0.33336802  0.00089501  0.74836861  1
  In  In94  1  -0.00179535  0.33366992  0.75036278  1
  In  In95  1  0.33435613  0.00031446  0.24879696  1
  In  In96  1  0.83460894  0.50565734  0.24876780  1
  In  In97  1  0.16829847  0.50057742  0.50053917  1
  In  In98  1  0.83450879  0.50290713  0.50234219  1
  In  In99  1  0.66563698  0.00310351  0.24572563  1
  In  In100  1  -0.00013980  0.66807621  0.50385090  1
  In  In101  1  0.66789716  0.66582722  0.50116620  1
  In  In102  1  0.82817500  0.16668394  0.49354682  1
  In  In103  1  -0.00158996  0.33208907  0.50129844  1
  In  In104  1  0.16513335  0.16312912  0.74742373  1
  In  In105  1  -0.00090801  -0.00084933  0.00205611  1
  In  In106  1  0.33290220  0.66715841  0.75294414  1
  In  In107  1  0.16445089  0.82788540  0.75186404  1
  Ir  Ir108  1  0.16840669  0.16911174  0.00259331  1
  Ir  Ir109  1  0.83066676  0.82961697  -0.00544001  1
  Ir  Ir110  1  0.49682352  0.16711118  0.00334150  1
  Ir  Ir111  1  0.33197994  0.00451816  0.00136129  1
  Ir  Ir112  1  0.33248893  0.66498446  0.49330789  1
  Ir  Ir113  1  0.16065536  0.83004408  0.25152190  1
  Ir  Ir114  1  0.16859269  0.50125454  0.00110470  1
  Ir  Ir115  1  0.33024989  0.33774264  0.00155952  1
  Ir  Ir116  1  0.00061192  -0.00461140  0.24750133  1
  Ir  Ir117  1  -0.00406332  0.66733093  0.75477999  1
  Ir  Ir118  1  0.49839449  0.50104546  0.00386499  1
  Ir  Ir119  1  0.33960205  0.33682035  0.24938353  1
  Ir  Ir120  1  0.33318056  0.66768067  0.25212197  1
  Ir  Ir121  1  0.66841480  0.33639821  0.00050920  1
  Ir  Ir122  1  -0.00591078  -0.00470744  0.75091255  1
  Ir  Ir123  1  0.00331785  0.67093639  0.25219820  1
  Ir  Ir124  1  0.82894407  0.16954459  0.75079767  1
  Ir  Ir125  1  0.49734726  0.17403564  0.24925758  1
  Ir  Ir126  1  0.66285915  0.33489161  0.49977654  1
  Ir  Ir127  1  0.66444981  0.33580688  0.24800500  1
  Ir  Ir128  1  0.50154035  0.82841341  0.24770942  1
  Ir  Ir129  1  0.16586719  0.83117454  0.00248355  1
  Ir  Ir130  1  0.16419374  0.82821769  0.49632659  1
  Ir  Ir131  1  0.66774259  -0.00102696  0.00012066  1
  Ir  Ir132  1  0.49620985  0.49931076  0.49388235  1
  Ir  Ir133  1  0.83511329  0.83060027  0.50431468  1
  Ir  Ir134  1  0.49692398  0.50075433  0.24979525  1
  Ir  Ir135  1  0.00122733  0.33500836  -0.00176499  1
  Ir  Ir136  1  0.67113528  0.66344529  -0.00160584  1
  Ir  Ir137  1  0.33323114  0.33581387  0.75569752  1
  Ir  Ir138  1  0.83712042  0.83115017  0.75140052  1
  Ir  Ir139  1  0.83299984  0.49810596  -0.00389751  1
  Ir  Ir140  1  0.49952995  0.17273575  0.49790278  1
  Ir  Ir141  1  0.34206594  0.33670911  0.49529633  1
  Ir  Ir142  1  0.67097114  0.33221382  0.74972907  1
  Ir  Ir143  1  0.33214137  0.66356665  0.00316884  1
  O  O144  1  0.31648399  0.32489766  0.12465945  1
  O  O145  1  0.31940727  0.32868009  0.62785822  1
  O  O146  1  0.30033563  0.65589594  0.12820507  1
  O  O147  1  0.31468669  0.65615876  0.61371954  1
  O  O148  1  0.31739174  1.00211162  0.12056122  1
  O  O149  1  0.31658132  0.97960843  0.62182296  1
  O  O150  1  0.64443182  0.34191074  0.12460301  1
  O  O151  1  0.64420436  0.32594752  0.62531417  1
  O  O152  1  0.65457036  0.66200170  0.11731951  1
  O  O153  1  0.64891845  0.66264671  0.62835326  1
  O  O154  1  0.64444533  0.98820124  0.11840536  1
  O  O155  1  0.65689274  0.99044931  0.62765364  1
  O  O156  1  0.96464197  0.32726353  0.11442067  1
  O  O157  1  0.96210055  0.33168777  0.62852936  1
  O  O158  1  0.96635639  0.66601481  0.13116332  1
  O  O159  1  0.96291381  0.65080232  0.63646646  1
  O  O160  1  0.96525460  0.99021705  0.12835086  1
  O  O161  1  0.97606341  0.98497341  0.63108998  1
  O  O162  1  0.20312004  0.16455165  0.11844480  1
  O  O163  1  0.20404832  0.16446945  0.62452353  1
  O  O164  1  0.20473158  0.49964999  0.11818942  1
  O  O165  1  0.18784998  0.50038678  0.62826255  1
  O  O166  1  0.18667105  0.81961056  0.12789551  1
  O  O167  1  0.19349597  0.82552162  0.61608308  1
  O  O168  1  0.51589420  0.17013227  0.12605912  1
  O  O169  1  0.53222647  0.16948007  0.61638391  1
  O  O170  1  0.51926517  0.50308956  0.12729690  1
  O  O171  1  0.51101949  0.49874075  0.61724088  1
  O  O172  1  0.53271734  0.82673479  0.12765773  1
  O  O173  1  0.53413892  0.82064509  0.62562455  1
  O  O174  1  0.86778374  0.15390530  0.11996932  1
  O  O175  1  0.84326633  0.17183286  0.63136474  1
  O  O176  1  0.85140933  0.48703774  0.11624410  1
  O  O177  1  0.87086016  0.48250423  0.62912983  1
  O  O178  1  0.85111267  0.82020982  0.11449290  1
  O  O179  1  0.86882212  0.82240850  0.62913129  1
  O  O180  1  0.15429328  0.17480159  0.37123468  1
  O  O181  1  0.14845709  0.17792957  0.88320221  1
  O  O182  1  0.13667383  0.51427147  0.37257042  1
  O  O183  1  0.13442931  0.51305850  0.88426590  1
  O  O184  1  0.13141915  0.83846436  0.37345779  1
  O  O185  1  0.13601921  0.82991112  0.88234811  1
  O  O186  1  0.47579919  0.18549836  0.37272629  1
  O  O187  1  0.48369724  0.16724729  0.88392606  1
  O  O188  1  0.46878154  0.50892082  0.37002843  1
  O  O189  1  0.47184514  0.50502487  0.88540798  1
  O  O190  1  0.48421998  0.83055696  0.36621418  1
  O  O191  1  0.48633041  0.84583676  0.88080880  1
  O  O192  1  0.79140974  0.16838106  0.36845671  1
  O  O193  1  0.80883027  0.17943417  0.87123224  1
  O  O194  1  0.81042850  0.51998282  0.37389260  1
  O  O195  1  0.79965167  0.50974760  0.87903751  1
  O  O196  1  0.81666650  0.82925578  0.38334679  1
  O  O197  1  0.81001835  0.84178308  0.87320940  1
  O  O198  1  0.03317062  -0.00304517  0.36560159  1
  O  O199  1  0.01186938  -0.00570504  0.87050012  1
  O  O200  1  0.02106863  0.34693708  0.37262009  1
  O  O201  1  0.03696889  0.34374926  0.88186251  1
  O  O202  1  0.03418587  0.68478884  0.37091690  1
  O  O203  1  0.02992464  0.68183879  0.87427792  1
  O  O204  1  0.35639774  -0.00108489  0.37245524  1
  O  O205  1  0.35993291  0.00619828  0.88366374  1
  O  O206  1  0.37172004  0.34675969  0.37116410  1
  O  O207  1  0.35316690  0.34723952  0.87985992  1
  O  O208  1  0.36524984  0.67224520  0.37182680  1
  O  O209  1  0.36446483  0.66843532  0.88643151  1
  O  O210  1  0.67928163  0.01481055  0.37213186  1
  O  O211  1  0.70267195  0.00191245  0.88261821  1
  O  O212  1  0.68193343  0.32944452  0.37362831  1
  O  O213  1  0.69882134  0.33967809  0.87500329  1
  O  O214  1  0.70389072  0.66792939  0.37584113  1
  O  O215  1  0.70202246  0.66745324  0.88166770  1
  O  O216  1  0.07373187  0.10088020  0.02258009  1
  O  O217  1  0.07341096  0.08717976  0.51691714  1
  O  O218  1  0.07140065  0.43347383  0.01771722  1
  O  O219  1  0.06666832  0.43509388  0.52182979  1
  O  O220  1  0.08000328  0.75591229  0.01964783  1
  O  O221  1  0.06859936  0.76669236  0.52335913  1
  O  O222  1  0.39915710  0.10102330  0.02389598  1
  O  O223  1  0.40552598  0.10884906  0.52271550  1
  O  O224  1  0.39714363  0.43654159  0.02285216  1
  O  O225  1  0.40332050  0.43410919  0.50353030  1
  O  O226  1  0.40278328  0.75169127  0.02175732  1
  O  O227  1  0.39499169  0.75703500  0.51858511  1
  O  O228  1  0.73858932  0.08674335  0.02224217  1
  O  O229  1  0.72423218  0.10756308  0.51808518  1
  O  O230  1  0.74066303  0.42657696  0.01766313  1
  O  O231  1  0.73731873  0.42151669  0.52080320  1
  O  O232  1  0.73582356  0.76013812  0.02445037  1
  O  O233  1  0.74170413  0.76767697  0.53155137  1
  O  O234  1  0.09151105  0.26031234  0.02466314  1
  O  O235  1  0.09420280  0.25961416  0.51820308  1
  O  O236  1  0.10337742  0.59571005  0.02600396  1
  O  O237  1  0.09199094  0.59469518  0.51985841  1
  O  O238  1  0.09225302  0.91970657  0.01550239  1
  O  O239  1  0.09403722  0.91647153  0.51626020  1
  O  O240  1  0.42032595  0.25828531  0.02478629  1
  O  O241  1  0.43478373  0.26613983  0.51497523  1
  O  O242  1  0.42246541  0.59005707  0.02759119  1
  O  O243  1  0.43074494  0.59930307  0.50306707  1
  O  O244  1  0.42164073  0.93183152  0.01331479  1
  O  O245  1  0.42014051  0.91461710  0.51833374  1
  O  O246  1  0.76385885  0.26944618  0.02063448  1
  O  O247  1  0.75254576  0.26699391  0.52542212  1
  O  O248  1  0.77315512  0.60016247  0.01772176  1
  O  O249  1  0.77030291  0.60155815  0.52993052  1
  O  O250  1  0.76262508  0.92685886  0.02463916  1
  O  O251  1  0.76731272  0.92071406  0.51749068  1
  O  O252  1  0.23151709  0.06311752  0.26971447  1
  O  O253  1  0.23876690  0.07314929  0.76978734  1
  O  O254  1  0.25467394  0.41164864  0.27212724  1
  O  O255  1  0.23971914  0.40354886  0.78138077  1
  O  O256  1  0.23026016  0.73184429  0.27097463  1
  O  O257  1  0.22771513  0.72698635  0.77749788  1
  O  O258  1  0.57130839  0.08745991  0.26574497  1
  O  O259  1  0.56514915  0.06464266  0.77809131  1
  O  O260  1  0.56509400  0.40504269  0.27237026  1
  O  O261  1  0.58168848  0.40466176  0.77131285  1
  O  O262  1  0.56793498  0.73523598  0.27013495  1
  O  O263  1  0.56291494  0.72487770  0.78373769  1
  O  O264  1  0.91191584  0.06238438  0.26463999  1
  O  O265  1  0.89422750  0.06819183  0.77406880  1
  O  O266  1  0.91270954  0.41751663  0.26088810  1
  O  O267  1  0.90689815  0.40637678  0.79453615  1
  O  O268  1  0.90915009  0.73567353  0.27755252  1
  O  O269  1  0.90092490  0.73322585  0.77866804  1
  O  O270  1  0.26994888  0.24629136  0.25703061  1
  O  O271  1  0.25986082  0.25020471  0.76637647  1
  O  O272  1  0.26593414  0.57673386  0.27641300  1
  O  O273  1  0.26035191  0.57106712  0.78719731  1
  O  O274  1  0.24775851  0.90231108  0.26668626  1
  O  O275  1  0.25751001  0.90166430  0.76085565  1
  O  O276  1  0.59308442  0.24258573  0.27351712  1
  O  O277  1  0.60029692  0.24111391  0.75892009  1
  O  O278  1  0.58580694  0.57391949  0.26952824  1
  O  O279  1  0.60070433  0.56344974  0.78326071  1
  O  O280  1  0.59348802  0.89879439  0.25738815  1
  O  O281  1  0.60518603  0.89696835  0.75627721  1
  O  O282  1  0.92637455  0.23893910  0.25788042  1
  O  O283  1  0.91740356  0.23984756  0.77338432  1
  O  O284  1  0.94084895  0.57984051  0.28003641  1
  O  O285  1  0.93475060  0.57445219  0.78912529  1
  O  O286  1  0.93681979  0.90015734  0.27369452  1
  O  O287  1  0.93205004  0.89595392  0.77589850  1
  O  O288  1  0.27494695  0.24627159  0.49168024  1
  O  O289  1  0.25693813  0.24717650  0.97778392  1
  O  O290  1  0.26541242  0.57543868  0.46437704  1
  O  O291  1  0.26307793  0.56894761  0.97551250  1
  O  O292  1  0.24885311  0.89934367  0.47586130  1
  O  O293  1  0.25928995  0.91087689  0.98383829  1
  O  O294  1  0.59510488  0.24034576  0.47353537  1
  O  O295  1  0.59374899  0.24449703  0.98568356  1
  O  O296  1  0.58628580  0.56773107  0.47956152  1
  O  O297  1  0.59923435  0.56862369  0.97360822  1
  O  O298  1  0.59570068  0.90567263  0.49141668  1
  O  O299  1  0.59591413  0.91243350  0.98380598  1
  O  O300  1  0.91845718  0.24195236  0.48027218  1
  O  O301  1  0.92962574  0.24717422  0.97597695  1
  O  O302  1  0.93317338  0.57394346  0.46978595  1
  O  O303  1  0.92681937  0.56597515  0.97275202  1
  O  O304  1  0.93383554  0.89137581  0.48381730  1
  O  O305  1  0.92400629  0.89641383  0.97206050  1
  O  O306  1  0.23482554  0.06367264  0.47336196  1
  O  O307  1  0.23807950  0.07698031  0.97926474  1
  O  O308  1  0.25289458  0.40963486  0.47544915  1
  O  O309  1  0.23769655  0.40866725  0.97009169  1
  O  O310  1  0.23326914  0.73033141  0.47254619  1
  O  O311  1  0.23490532  0.72999949  0.98386729  1
  O  O312  1  0.56538081  0.08423198  0.47684304  1
  O  O313  1  0.56937623  0.06721865  0.97957144  1
  O  O314  1  0.56258426  0.40239572  0.47720440  1
  O  O315  1  0.57667325  0.41387582  0.97588144  1
  O  O316  1  0.56725805  0.72828989  0.47017238  1
  O  O317  1  0.57436557  0.72538159  0.97883956  1
  O  O318  1  0.90095452  0.06900261  0.48529655  1
  O  O319  1  0.89764669  0.06202478  0.97766688  1
  O  O320  1  0.90728950  0.41224613  0.47464671  1
  O  O321  1  0.90280002  0.40214981  0.97254447  1
  O  O322  1  0.89805953  0.73544573  0.48458320  1
  O  O323  1  0.90016214  0.73667634  0.97213625  1
  O  O324  1  0.08672791  0.24964036  0.21692879  1
  O  O325  1  0.09400244  0.26051757  0.74373669  1
  O  O326  1  0.09988228  0.60863037  0.22665202  1
  O  O327  1  0.08592068  0.60134317  0.73804255  1
  O  O328  1  0.09382826  0.92524991  0.23023498  1
  O  O329  1  0.08199201  0.92190579  0.73176000  1
  O  O330  1  0.43000235  0.26595218  0.23063011  1
  O  O331  1  0.42154905  0.26205456  0.73812178  1
  O  O332  1  0.42334399  0.59347702  0.22844124  1
  O  O333  1  0.43097080  0.59622078  0.74901626  1
  O  O334  1  0.42943480  0.91783612  0.23078022  1
  O  O335  1  0.43627447  0.93510120  0.75021154  1
  O  O336  1  0.75757302  0.27019294  0.22020981  1
  O  O337  1  0.76745170  0.26754279  0.72583662  1
  O  O338  1  0.77283212  0.60516594  0.22334215  1
  O  O339  1  0.77511972  0.60289472  0.73662115  1
  O  O340  1  0.76384368  0.92787004  0.22164249  1
  O  O341  1  0.77397128  0.92518492  0.73943906  1
  O  O342  1  0.06266095  0.08890810  0.21890322  1
  O  O343  1  0.06303861  0.08556119  0.73474684  1
  O  O344  1  0.08111667  0.42588213  0.22987042  1
  O  O345  1  0.06039157  0.44031811  0.73592023  1
  O  O346  1  0.07087885  0.76057625  0.22933505  1
  O  O347  1  0.05593014  0.76335867  0.72790458  1
  O  O348  1  0.40414193  0.10693758  0.22846497  1
  O  O349  1  0.40014451  0.10340278  0.72035173  1
  O  O350  1  0.40151495  0.43552328  0.22885342  1
  O  O351  1  0.40274299  0.42618818  0.74738478  1
  O  O352  1  0.40666387  0.75689751  0.22942122  1
  O  O353  1  0.39223385  0.76981799  0.72337383  1
  O  O354  1  0.74690053  0.08799065  0.21506945  1
  O  O355  1  0.73310594  0.10689238  0.73030075  1
  O  O356  1  0.74000450  0.42252160  0.23337572  1
  O  O357  1  0.74192321  0.42098587  0.73394215  1
  O  O358  1  0.73749961  0.76638891  0.22102923  1
  O  O359  1  0.74266542  0.76759663  0.72560490  1
