# generated using pymatgen
data_BaLaInIrO6
_symmetry_space_group_name_H-M   'P 1'
_cell_length_a   17.51135349
_cell_length_b   17.53450311
_cell_length_c   16.48107443
_cell_angle_alpha   90.05807252
_cell_angle_beta   89.99886421
_cell_angle_gamma   89.97145257
_symmetry_Int_Tables_number   1
_chemical_formula_structural   BaLaInIrO6
_chemical_formula_sum   'Ba36 La36 In36 Ir36 O216'
_cell_volume   5060.55817697
_cell_formula_units_Z   36
loop_
 _symmetry_equiv_pos_site_id
 _symmetry_equiv_pos_as_xyz
  1  'x, y, z'
loop_
 _atom_site_type_symbol
 _atom_site_label
 _atom_site_symmetry_multiplicity
 _atom_site_fract_x
 _atom_site_fract_y
 _atom_site_fract_z
 _atom_site_occupancy
  Ba  Ba0  1  0.66793893  0.17195271  0.62505282  1
  Ba  Ba1  1  0.33183371  0.82599909  0.87838072  1
  Ba  Ba2  1  0.00055910  0.15866940  0.37429530  1
  Ba  Ba3  1  0.83466507  0.34584604  0.13141871  1
  Ba  Ba4  1  0.16620019  0.66330111  0.87430646  1
  Ba  Ba5  1  0.83239764  0.65677165  0.37393800  1
  Ba  Ba6  1  0.83194330  0.99324350  0.86725912  1
  Ba  Ba7  1  0.66111890  0.48838356  0.37342333  1
  Ba  Ba8  1  0.66769183  0.49271584  0.87550939  1
  Ba  Ba9  1  0.67083498  0.84348692  0.62494864  1
  Ba  Ba10  1  0.83214416  0.33996535  0.62155210  1
  Ba  Ba11  1  0.49594963  0.00601592  0.12137905  1
  Ba  Ba12  1  0.32924276  0.15900461  0.37256527  1
  Ba  Ba13  1  0.67078949  0.82670777  0.87725736  1
  Ba  Ba14  1  0.16401774  0.98684023  0.87500920  1
  Ba  Ba15  1  0.82793753  0.00763919  0.12506960  1
  Ba  Ba16  1  0.66786006  0.84132786  0.12665087  1
  Ba  Ba17  1  0.50426717  0.31968293  0.37191688  1
  Ba  Ba18  1  0.16541409  0.34280199  0.12833220  1
  Ba  Ba19  1  0.17027003  0.00790652  0.12222818  1
  Ba  Ba20  1  0.33145484  0.51008243  0.12588613  1
  Ba  Ba21  1  0.16670807  0.67627884  0.62688069  1
  Ba  Ba22  1  0.33738731  0.82546836  0.37233608  1
  Ba  Ba23  1  0.50204505  0.66052286  0.87516833  1
  Ba  Ba24  1  0.16417043  0.33967721  0.62537685  1
  Ba  Ba25  1  0.83119420  0.00776740  0.62414584  1
  Ba  Ba26  1  0.33204693  0.49260966  0.37512089  1
  Ba  Ba27  1  0.83190009  0.32261646  0.87482259  1
  Ba  Ba28  1  0.83575410  0.65787673  0.87687788  1
  Ba  Ba29  1  0.33237844  0.49569295  0.87533222  1
  Ba  Ba30  1  0.66658672  0.15825776  0.87421351  1
  Ba  Ba31  1  0.50612179  0.32472260  0.87816229  1
  Ba  Ba32  1  0.33782890  0.84149911  0.12549443  1
  Ba  Ba33  1  0.82858359  0.32380801  0.37302011  1
  Ba  Ba34  1  0.33203457  0.83991091  0.62712309  1
  Ba  Ba35  1  1.00394443  0.84203293  0.62007879  1
  La  La36  1  0.49480751  0.35313770  0.62656084  1
  La  La37  1  0.50973486  0.65476997  0.37069573  1
  La  La38  1  0.66426628  0.15223500  0.37428623  1
  La  La39  1  -0.00057552  0.82008503  0.37679822  1
  La  La40  1  -0.00554379  0.48638880  0.37813855  1
  La  La41  1  0.49779285  0.34916880  0.12205571  1
  La  La42  1  0.67527647  0.51305535  0.12565363  1
  La  La43  1  1.00505992  0.51549887  0.12743950  1
  La  La44  1  0.33526825  0.52404892  0.62931717  1
  La  La45  1  0.66837147  0.18346859  0.12533436  1
  La  La46  1  0.66155248  0.82018633  0.37113762  1
  La  La47  1  0.17568377  0.31744494  0.37135429  1
  La  La48  1  0.49880500  0.68110520  0.12294671  1
  La  La49  1  -0.00994786  0.48291829  0.87481621  1
  La  La50  1  1.00356043  0.51505639  0.62668572  1
  La  La51  1  0.49836356  0.01115603  0.62849068  1
  La  La52  1  -0.00540418  0.82437530  0.86596010  1
  La  La53  1  0.16057540  0.00816851  0.62279363  1
  La  La54  1  0.33016530  0.15847310  0.87537862  1
  La  La55  1  -0.01079150  0.14980149  0.87388082  1
  La  La56  1  0.82998574  0.68294878  0.62543897  1
  La  La57  1  0.17422686  0.98344035  0.37100816  1
  La  La58  1  0.33685476  0.18237617  0.62325481  1
  La  La59  1  0.66825582  0.51228871  0.62455205  1
  La  La60  1  0.83090085  0.67791663  0.12354586  1
  La  La61  1  0.49736777  0.68058039  0.62790384  1
  La  La62  1  0.50049342  0.98881855  0.37139305  1
  La  La63  1  0.17073996  0.31750352  0.87725582  1
  La  La64  1  0.50450004  0.98152320  0.87491547  1
  La  La65  1  0.33990081  0.18260310  0.12509556  1
  La  La66  1  0.83722298  0.98759801  0.37891252  1
  La  La67  1  0.16996373  0.65555350  0.37704889  1
  La  La68  1  1.00148145  0.17713899  0.62810437  1
  La  La69  1  1.00498244  0.18290081  0.12094605  1
  La  La70  1  0.16709122  0.68357472  0.12537946  1
  La  La71  1  1.00356771  0.84665701  0.12431591  1
  In  In72  1  0.33413127  0.66751538  0.25317565  1
  In  In73  1  0.33617854  0.33643041  0.24980188  1
  In  In74  1  0.66731760  0.66754892  0.75116761  1
  In  In75  1  0.00011113  -0.00169973  0.00087534  1
  In  In76  1  0.49684671  0.50178952  0.49844660  1
  In  In77  1  0.33083531  0.00058602  0.75025989  1
  In  In78  1  0.16577408  0.16297688  0.50176177  1
  In  In79  1  0.66965632  0.33588520  0.00192687  1
  In  In80  1  0.16643665  0.16228192  0.24512472  1
  In  In81  1  0.49962875  0.16617946  0.49972346  1
  In  In82  1  0.83567341  0.83345756  0.25356272  1
  In  In83  1  0.83277686  0.16611197  0.74628719  1
  In  In84  1  0.66315367  0.33020551  0.49984025  1
  In  In85  1  0.33263425  0.00260257  -0.00098282  1
  In  In86  1  0.33291452  0.33629006  0.75311372  1
  In  In87  1  0.66440807  0.00176799  0.00163391  1
  In  In88  1  -0.00032619  0.33300075  0.50194069  1
  In  In89  1  0.66770208  0.66644137  0.49886304  1
  In  In90  1  0.33380495  0.33626708  -0.00154932  1
  In  In91  1  0.83435906  0.16651877  0.00343571  1
  In  In92  1  0.16813180  0.83242608  0.49830654  1
  In  In93  1  0.49972387  0.16587791  -0.00105082  1
  In  In94  1  -0.00027015  0.66650448  0.00194509  1
  In  In95  1  0.50272401  0.83643697  0.50017987  1
  In  In96  1  0.66426671  0.33430071  0.74663124  1
  In  In97  1  0.83623711  0.83298998  -0.00010177  1
  In  In98  1  0.16184199  0.50142740  -0.00163214  1
  In  In99  1  0.83529525  0.50061116  0.74552735  1
  In  In100  1  0.33283109  0.66580405  0.00032611  1
  In  In101  1  0.16539281  0.49859662  0.50220355  1
  In  In102  1  0.83535328  0.16282704  0.25125260  1
  In  In103  1  0.16351703  0.49905515  0.75302735  1
  In  In104  1  0.33157886  0.00088886  0.50163358  1
  In  In105  1  0.00111887  0.33527055  0.25196039  1
  In  In106  1  0.33280964  0.33674344  0.50243736  1
  In  In107  1  -0.00176226  0.66657727  0.49892008  1
  Ir  Ir108  1  0.33584954  0.67107520  0.74809139  1
  Ir  Ir109  1  0.83263052  0.16175787  0.49723846  1
  Ir  Ir110  1  0.49653339  0.16321771  0.74679632  1
  Ir  Ir111  1  0.15975032  0.50649389  0.25242357  1
  Ir  Ir112  1  0.66680303  0.66634495  0.24627161  1
  Ir  Ir113  1  0.00303377  0.33037961  0.75252127  1
  Ir  Ir114  1  0.16371964  0.83375790  0.00342291  1
  Ir  Ir115  1  0.83483160  0.50050133  0.49796048  1
  Ir  Ir116  1  0.66641518  0.00126922  0.25332356  1
  Ir  Ir117  1  0.16146488  0.83436764  0.24841856  1
  Ir  Ir118  1  0.50216274  0.83015914  0.00002335  1
  Ir  Ir119  1  0.00029241  0.00071397  0.49872248  1
  Ir  Ir120  1  0.83910980  0.49911212  0.00529295  1
  Ir  Ir121  1  0.33616568  -0.00038708  0.25040035  1
  Ir  Ir122  1  0.16416966  0.16325448  0.75520596  1
  Ir  Ir123  1  0.00142411  -0.00382092  0.25481653  1
  Ir  Ir124  1  0.16445643  0.83297152  0.75224050  1
  Ir  Ir125  1  0.66267050  0.33343950  0.24822363  1
  Ir  Ir126  1  0.66952596  -0.00188932  0.49462760  1
  Ir  Ir127  1  0.16415646  0.16835968  -0.00466009  1
  Ir  Ir128  1  0.50385670  0.83583852  0.24911660  1
  Ir  Ir129  1  0.66671789  0.66318977  0.00535513  1
  Ir  Ir130  1  0.50359365  0.16203785  0.24816259  1
  Ir  Ir131  1  0.66068038  -0.00357550  0.74638711  1
  Ir  Ir132  1  0.83678248  0.83465889  0.74485725  1
  Ir  Ir133  1  0.50497491  0.50369604  0.24357076  1
  Ir  Ir134  1  0.50192987  0.83346438  0.74984017  1
  Ir  Ir135  1  0.33745919  0.66826318  0.49967543  1
  Ir  Ir136  1  0.00164571  0.66662090  0.25116386  1
  Ir  Ir137  1  0.00320290  -0.00102680  0.74336812  1
  Ir  Ir138  1  0.83252593  0.83648377  0.49809244  1
  Ir  Ir139  1  0.50535563  0.50366157  0.00313465  1
  Ir  Ir140  1  0.49997963  0.50356073  0.75079114  1
  Ir  Ir141  1  0.00269690  0.33440237  -0.00271949  1
  Ir  Ir142  1  0.83499829  0.50418513  0.25218107  1
  Ir  Ir143  1  -0.00196709  0.66895469  0.74960312  1
  O  O144  1  0.31539135  0.32731363  0.12484566  1
  O  O145  1  0.31232039  0.31996220  0.63083231  1
  O  O146  1  0.30466150  0.66865888  0.12909247  1
  O  O147  1  0.31405139  0.66606349  0.62284758  1
  O  O148  1  0.32044370  0.99710726  0.13008226  1
  O  O149  1  0.29698135  0.99520368  0.62769860  1
  O  O150  1  0.63476001  0.32700439  0.13041142  1
  O  O151  1  0.62911584  0.32778803  0.62394394  1
  O  O152  1  0.63640056  0.65451235  0.12679313  1
  O  O153  1  0.63527737  0.65845604  0.62437108  1
  O  O154  1  0.64435978  0.99482488  0.13540846  1
  O  O155  1  0.63427323  0.99454164  0.61712359  1
  O  O156  1  0.98339549  0.32352046  0.11731537  1
  O  O157  1  0.97904094  0.31639936  0.63403433  1
  O  O158  1  0.96647906  0.65467936  0.13519301  1
  O  O159  1  0.96665639  0.65836983  0.62840198  1
  O  O160  1  0.97647149  0.98309477  0.13498535  1
  O  O161  1  0.97841373  0.99373914  0.62085417  1
  O  O162  1  0.19982115  0.16553382  0.11412193  1
  O  O163  1  0.19828381  0.15120275  0.63673365  1
  O  O164  1  0.18080499  0.49944174  0.13448212  1
  O  O165  1  0.20041256  0.49654472  0.62824529  1
  O  O166  1  0.18920734  0.82427304  0.12598282  1
  O  O167  1  0.18164009  0.83482669  0.63067931  1
  O  O168  1  0.53326137  0.15694388  0.13177045  1
  O  O169  1  0.52190793  0.14568697  0.62861680  1
  O  O170  1  0.53665592  0.49382539  0.12346084  1
  O  O171  1  0.52777257  0.49997871  0.63180963  1
  O  O172  1  0.52107627  0.81953641  0.12448106  1
  O  O173  1  0.52148935  0.82224605  0.62889717  1
  O  O174  1  0.87171392  0.15961144  0.12817998  1
  O  O175  1  0.86328156  0.16262345  0.61759264  1
  O  O176  1  0.86717754  0.50484087  0.12983083  1
  O  O177  1  0.86885432  0.49792269  0.61609554  1
  O  O178  1  0.86476149  0.82654861  0.13037810  1
  O  O179  1  0.85602577  0.82440887  0.62128849  1
  O  O180  1  0.15028319  0.17956983  0.37324534  1
  O  O181  1  0.12614233  0.17439070  0.87513324  1
  O  O182  1  0.13075066  0.51903859  0.37108276  1
  O  O183  1  0.12312252  0.51266581  0.87459652  1
  O  O184  1  0.13274589  0.84528768  0.36746936  1
  O  O185  1  0.13235300  0.83208531  0.87992670  1
  O  O186  1  0.48015480  0.15971931  0.36704979  1
  O  O187  1  0.46682264  0.17086069  0.86621675  1
  O  O188  1  0.48102960  0.51490030  0.36485098  1
  O  O189  1  0.47968826  0.50677293  0.87865884  1
  O  O190  1  0.48727764  0.84769595  0.36916553  1
  O  O191  1  0.48119578  0.84270267  0.87454374  1
  O  O192  1  0.80302538  0.15947906  0.37799962  1
  O  O193  1  0.82243210  0.16351154  0.87382409  1
  O  O194  1  0.80758072  0.50393322  0.37528114  1
  O  O195  1  0.82083765  0.49872878  0.88257390  1
  O  O196  1  0.80104309  0.84202685  0.37874106  1
  O  O197  1  0.82566763  0.83236642  0.86604481  1
  O  O198  1  0.03457178  0.00386920  0.37702852  1
  O  O199  1  0.01759687  0.00792627  0.86481108  1
  O  O200  1  0.03919440  0.34668593  0.37659992  1
  O  O201  1  0.03346504  0.34691185  0.87459697  1
  O  O202  1  0.03423361  0.67798040  0.36799642  1
  O  O203  1  0.01450685  0.68492532  0.87160670  1
  O  O204  1  0.36340092  0.00325441  0.37012732  1
  O  O205  1  0.36593815  0.01280117  0.87357219  1
  O  O206  1  0.35338793  0.33574798  0.37428979  1
  O  O207  1  0.35752211  0.32218142  0.87484249  1
  O  O208  1  0.36956289  0.66549691  0.37944207  1
  O  O209  1  0.35199997  0.67030673  0.86914916  1
  O  O210  1  0.69952254  0.01092935  0.37423159  1
  O  O211  1  0.67823527  -0.00325575  0.86650418  1
  O  O212  1  0.67981618  0.33545964  0.36873271  1
  O  O213  1  0.67958418  0.33838777  0.87388445  1
  O  O214  1  0.68498325  0.67719046  0.36741633  1
  O  O215  1  0.68567289  0.66580716  0.88292964  1
  O  O216  1  0.07105373  0.10212859  0.02104568  1
  O  O217  1  0.06451797  0.09086701  0.53063761  1
  O  O218  1  0.05877812  0.43287373  0.02096323  1
  O  O219  1  0.06075992  0.43561086  0.52737208  1
  O  O220  1  0.07268591  0.76448330  0.02952519  1
  O  O221  1  0.07098123  0.76326948  0.50339262  1
  O  O222  1  0.39261454  0.10727386  0.01912106  1
  O  O223  1  0.39943190  0.09978023  0.52568298  1
  O  O224  1  0.41538257  0.43255169  0.01950356  1
  O  O225  1  0.39677196  0.43902393  0.53155925  1
  O  O226  1  0.41518407  0.75583555  0.01741353  1
  O  O227  1  0.40904188  0.75636920  0.51767425  1
  O  O228  1  0.73134725  0.09964070  0.02736864  1
  O  O229  1  0.73770517  0.09165014  0.51354148  1
  O  O230  1  0.74236675  0.43731099  0.02805853  1
  O  O231  1  0.73906477  0.43536954  0.52230063  1
  O  O232  1  0.73949019  0.74932316  0.02421562  1
  O  O233  1  0.74690604  0.75967459  0.51810544  1
  O  O234  1  0.09809875  0.26457661  0.01410689  1
  O  O235  1  0.08372855  0.24909099  0.52631493  1
  O  O236  1  0.09359449  0.59963185  0.03659704  1
  O  O237  1  0.09022851  0.59279862  0.52070127  1
  O  O238  1  0.09370466  0.92191451  0.02248434  1
  O  O239  1  0.09519854  0.93663896  0.51694483  1
  O  O240  1  0.42959055  0.26267313  0.03229882  1
  O  O241  1  0.43553339  0.26700630  0.52810704  1
  O  O242  1  0.43711948  0.59558673  0.02575667  1
  O  O243  1  0.42811515  0.60201704  0.52871318  1
  O  O244  1  0.42918839  0.92032603  0.00584880  1
  O  O245  1  0.43858989  0.93740874  0.51831381  1
  O  O246  1  0.76178312  0.26100008  0.02598354  1
  O  O247  1  0.76272620  0.25237740  0.51362750  1
  O  O248  1  0.76643144  0.59399921  0.03056804  1
  O  O249  1  0.76674103  0.59298000  0.52727930  1
  O  O250  1  0.75780971  0.92305201  0.00972783  1
  O  O251  1  0.76615349  0.93088969  0.51062587  1
  O  O252  1  0.24000757  0.06362685  0.27042032  1
  O  O253  1  0.23905856  0.08201762  0.78213466  1
  O  O254  1  0.22631199  0.41309755  0.27544517  1
  O  O255  1  0.23135403  0.40142196  0.78155930  1
  O  O256  1  0.22747407  0.73953769  0.27388645  1
  O  O257  1  0.23990599  0.74245262  0.76816034  1
  O  O258  1  0.57302982  0.06858028  0.27953791  1
  O  O259  1  0.55982853  0.06048683  0.76593666  1
  O  O260  1  0.57004314  0.40659704  0.26215544  1
  O  O261  1  0.56119208  0.40839162  0.76026030  1
  O  O262  1  0.57364603  0.73948049  0.27232557  1
  O  O263  1  0.57308648  0.74440550  0.76456986  1
  O  O264  1  0.90635904  0.05935069  0.27775746  1
  O  O265  1  0.91776605  0.07471450  0.75937780  1
  O  O266  1  0.90822726  0.41787928  0.27502304  1
  O  O267  1  0.91363629  0.40346203  0.76951506  1
  O  O268  1  0.91640851  0.74010161  0.27680578  1
  O  O269  1  0.90790864  0.74227549  0.76457624  1
  O  O270  1  0.25615854  0.24470539  0.26185037  1
  O  O271  1  0.25194056  0.23459785  0.78055833  1
  O  O272  1  0.25007663  0.57762592  0.27608708  1
  O  O273  1  0.26412631  0.58078722  0.75965188  1
  O  O274  1  0.25743171  0.90852205  0.27411533  1
  O  O275  1  0.25362725  0.90349049  0.77042545  1
  O  O276  1  0.60051564  0.22899586  0.26941592  1
  O  O277  1  0.58492650  0.23032164  0.76461968  1
  O  O278  1  0.59175528  0.57989166  0.27000264  1
  O  O279  1  0.59248411  0.56900835  0.76365161  1
  O  O280  1  0.59871305  0.90653475  0.27903622  1
  O  O281  1  0.58970892  0.90604795  0.76960435  1
  O  O282  1  0.92183474  0.24532484  0.26827388  1
  O  O283  1  0.93955854  0.23570494  0.77256280  1
  O  O284  1  0.93565121  0.57058571  0.27751102  1
  O  O285  1  0.93388399  0.57344885  0.77145394  1
  O  O286  1  0.93508609  0.90440929  0.28290157  1
  O  O287  1  0.93371930  0.90468492  0.76736909  1
  O  O288  1  0.26275893  0.23556004  0.49424637  1
  O  O289  1  0.25590103  0.23504642  0.97051660  1
  O  O290  1  0.26343711  0.58033959  0.48361971  1
  O  O291  1  0.25796062  0.57403201  0.98539296  1
  O  O292  1  0.25861250  0.90576126  0.47435268  1
  O  O293  1  0.25305882  0.90782352  0.98776313  1
  O  O294  1  0.60132322  0.22603873  0.47357849  1
  O  O295  1  0.59685444  0.23645750  0.99438398  1
  O  O296  1  0.58884382  0.57785353  0.47907578  1
  O  O297  1  0.60066648  0.56952653  0.99067783  1
  O  O298  1  0.60748807  0.90397905  0.47095522  1
  O  O299  1  0.58756162  0.90369473  0.98535598  1
  O  O300  1  0.91969426  0.23469238  0.48290282  1
  O  O301  1  0.94383041  0.23671060  0.97883281  1
  O  O302  1  0.92824935  0.56718033  0.47456448  1
  O  O303  1  0.93608644  0.55974619  0.98472418  1
  O  O304  1  0.92880700  0.90719502  0.46815908  1
  O  O305  1  0.94126018  0.89287545  0.98101497  1
  O  O306  1  0.22536588  0.06025525  0.47729303  1
  O  O307  1  0.23429587  0.08131197  0.97339544  1
  O  O308  1  0.22711753  0.39916170  0.47134791  1
  O  O309  1  0.23090473  0.40149553  0.97672369  1
  O  O310  1  0.24246667  0.73342835  0.47312194  1
  O  O311  1  0.23434470  0.74503113  0.99076165  1
  O  O312  1  0.57335895  0.06044181  0.47466844  1
  O  O313  1  0.56203453  0.06410668  0.97307799  1
  O  O314  1  0.56423543  0.40280408  0.49133266  1
  O  O315  1  0.57082571  0.41119820  0.99290085  1
  O  O316  1  0.57421671  0.74269514  0.46887937  1
  O  O317  1  0.57142364  0.73031260  0.99357999  1
  O  O318  1  0.90222994  0.06629619  0.47540550  1
  O  O319  1  0.91107861  0.07310071  0.98017947  1
  O  O320  1  0.90381462  0.41073996  0.47473395  1
  O  O321  1  0.90780416  0.40306797  0.97970936  1
  O  O322  1  0.90528930  0.74805474  0.47992431  1
  O  O323  1  0.89885823  0.72885222  0.99902388  1
  O  O324  1  0.08631554  0.25234811  0.22574414  1
  O  O325  1  0.09263963  0.25277927  0.73091471  1
  O  O326  1  0.09582355  0.60312082  0.22374808  1
  O  O327  1  0.08243958  0.59501809  0.72556660  1
  O  O328  1  0.09218884  0.92624446  0.22642788  1
  O  O329  1  0.09796222  0.92966937  0.72701158  1
  O  O330  1  0.43612812  0.25405796  0.22129388  1
  O  O331  1  0.43248652  0.25624932  0.71892388  1
  O  O332  1  0.43722041  0.59665396  0.22470434  1
  O  O333  1  0.43012039  0.60038902  0.72353542  1
  O  O334  1  0.43544071  0.93164642  0.23801599  1
  O  O335  1  0.43420832  0.92802907  0.72970257  1
  O  O336  1  0.74929620  0.25937960  0.22926216  1
  O  O337  1  0.75849935  0.25815970  0.73111794  1
  O  O338  1  0.75969586  0.59389202  0.21999323  1
  O  O339  1  0.76338769  0.59667409  0.71810489  1
  O  O340  1  0.75804138  0.93142723  0.24142248  1
  O  O341  1  0.76092289  0.92365890  0.73031920  1
  O  O342  1  0.06371629  0.08950725  0.22434775  1
  O  O343  1  0.07455450  0.09083712  0.71929503  1
  O  O344  1  0.06484666  0.44169018  0.23262894  1
  O  O345  1  0.06221451  0.42717195  0.72646131  1
  O  O346  1  0.06810501  0.76268254  0.22041128  1
  O  O347  1  0.06862665  0.76351035  0.73554649  1
  O  O348  1  0.40372359  0.09797411  0.22437614  1
  O  O349  1  0.40278908  0.09986387  0.72329105  1
  O  O350  1  0.41930419  0.42769623  0.22287217  1
  O  O351  1  0.40491162  0.43899354  0.72546501  1
  O  O352  1  0.41681732  0.75963366  0.23232012  1
  O  O353  1  0.41432078  0.75771905  0.72674235  1
  O  O354  1  0.72930131  0.09686975  0.23054444  1
  O  O355  1  0.73648900  0.08150315  0.73380021  1
  O  O356  1  0.73312290  0.43274017  0.22754690  1
  O  O357  1  0.73424410  0.43587956  0.72120116  1
  O  O358  1  0.74399514  0.75128245  0.22922979  1
  O  O359  1  0.75101197  0.75799067  0.72762322  1
