# generated using pymatgen
data_BaLaInIrO6
_symmetry_space_group_name_H-M   'P 1'
_cell_length_a   17.50502976
_cell_length_b   17.53177410
_cell_length_c   16.48959077
_cell_angle_alpha   90.07167530
_cell_angle_beta   89.99740224
_cell_angle_gamma   89.97592551
_symmetry_Int_Tables_number   1
_chemical_formula_structural   BaLaInIrO6
_chemical_formula_sum   'Ba36 La36 In36 Ir36 O216'
_cell_volume   5060.55580830
_cell_formula_units_Z   36
loop_
 _symmetry_equiv_pos_site_id
 _symmetry_equiv_pos_as_xyz
  1  'x, y, z'
loop_
 _atom_site_type_symbol
 _atom_site_label
 _atom_site_symmetry_multiplicity
 _atom_site_fract_x
 _atom_site_fract_y
 _atom_site_fract_z
 _atom_site_occupancy
  Ba  Ba0  1  -0.00282058  0.81880190  0.87468893  1
  Ba  Ba1  1  0.32798188  0.84202120  0.12115844  1
  Ba  Ba2  1  0.83161279  0.67527914  0.62610082  1
  Ba  Ba3  1  0.66888240  0.49342389  0.87585128  1
  Ba  Ba4  1  0.33339814  0.17051382  0.12623535  1
  Ba  Ba5  1  0.32964391  0.17641233  0.62755247  1
  Ba  Ba6  1  0.83130437  0.00855674  0.12315760  1
  Ba  Ba7  1  0.16341324  0.67945553  0.63025378  1
  Ba  Ba8  1  0.83390395  0.99404761  0.37352179  1
  Ba  Ba9  1  0.16642880  0.00720194  0.12175707  1
  Ba  Ba10  1  0.66493127  0.82384714  0.87907809  1
  Ba  Ba11  1  0.50541293  0.65959283  0.37479071  1
  Ba  Ba12  1  0.16759135  0.32582467  0.87296789  1
  Ba  Ba13  1  0.33062255  0.48896375  0.87427621  1
  Ba  Ba14  1  0.67249378  0.51015056  0.62561370  1
  Ba  Ba15  1  0.99729047  0.84045463  0.63064817  1
  Ba  Ba16  1  0.32983001  0.82477479  0.87851603  1
  Ba  Ba17  1  0.66414230  0.50325575  0.12804671  1
  Ba  Ba18  1  1.00642198  0.17435567  0.12661527  1
  Ba  Ba19  1  -0.00377120  0.82822633  0.37496903  1
  Ba  Ba20  1  0.49622628  0.98918930  0.87214838  1
  Ba  Ba21  1  0.33540883  0.15291683  0.37908109  1
  Ba  Ba22  1  0.82792682  0.66234071  0.37780820  1
  Ba  Ba23  1  0.49994966  0.32392685  0.37371901  1
  Ba  Ba24  1  0.83532961  0.32695650  0.37659625  1
  Ba  Ba25  1  0.33611486  0.50833855  0.12351409  1
  Ba  Ba26  1  0.50094073  0.65870519  0.88034281  1
  Ba  Ba27  1  0.00451197  0.49071010  0.86785326  1
  Ba  Ba28  1  0.16531629  0.67606504  0.12389770  1
  Ba  Ba29  1  1.00135224  0.51074061  0.62588710  1
  Ba  Ba30  1  0.50421431  0.99448111  0.37299209  1
  Ba  Ba31  1  0.49723359  0.00638173  0.11988588  1
  Ba  Ba32  1  0.66498936  0.83820437  0.62696720  1
  Ba  Ba33  1  0.16981320  0.65497612  0.87420311  1
  Ba  Ba34  1  0.83558610  0.34371978  0.62488946  1
  Ba  Ba35  1  1.00129703  0.17431669  0.62346573  1
  La  La36  1  0.16668678  0.99212738  0.37527573  1
  La  La37  1  0.34155748  0.85251227  0.62918993  1
  La  La38  1  -0.00379939  0.15048185  0.87160783  1
  La  La39  1  0.32875203  0.15212068  0.87129961  1
  La  La40  1  1.00851512  0.51427309  0.12468859  1
  La  La41  1  0.49879380  0.34729462  0.62565976  1
  La  La42  1  0.66063195  0.15283219  0.86792360  1
  La  La43  1  0.16534558  0.00783930  0.62965337  1
  La  La44  1  -0.00149020  0.48903314  0.37622415  1
  La  La45  1  0.83284458  0.34500626  0.12682274  1
  La  La46  1  0.65994689  0.84126305  0.12834033  1
  La  La47  1  0.83573239  0.97934926  0.87319626  1
  La  La48  1  0.67187677  0.17810419  0.61877789  1
  La  La49  1  0.83180966  0.00554297  0.63040085  1
  La  La50  1  0.83450978  0.68075553  0.12528977  1
  La  La51  1  0.48990284  0.68426071  0.12338631  1
  La  La52  1  0.66440112  0.48013501  0.38089059  1
  La  La53  1  0.50127449  0.32101115  0.87371317  1
  La  La54  1  0.84504118  0.32283991  0.87175175  1
  La  La55  1  0.34002575  0.51891559  0.63056724  1
  La  La56  1  0.49776599  0.34316562  0.12412289  1
  La  La57  1  0.17209332  0.98605333  0.87305953  1
  La  La58  1  0.49985822  0.68584802  0.63641162  1
  La  La59  1  0.49444683  0.01950212  0.62805893  1
  La  La60  1  0.17253561  0.65225564  0.37947726  1
  La  La61  1  1.00738972  0.85500369  0.12601469  1
  La  La62  1  0.83661373  0.65124494  0.86902418  1
  La  La63  1  0.15789723  0.34951854  0.62897184  1
  La  La64  1  0.67636018  0.18085874  0.13198373  1
  La  La65  1  0.16488647  0.34939035  0.12331232  1
  La  La66  1  -0.00269934  0.15314464  0.37654306  1
  La  La67  1  0.67019148  0.82501867  0.36916028  1
  La  La68  1  0.17413694  0.31434588  0.37682613  1
  La  La69  1  0.32814479  0.82470207  0.37570746  1
  La  La70  1  0.66321203  0.15203734  0.37499433  1
  La  La71  1  0.32739150  0.47763538  0.37488559  1
  In  In72  1  0.83242310  0.16797704  -0.00099724  1
  In  In73  1  0.50186519  0.50052073  0.75306926  1
  In  In74  1  0.33605605  0.67053259  0.50172229  1
  In  In75  1  0.66629009  0.00265677  -0.00285417  1
  In  In76  1  0.66710601  0.66331328  0.00575876  1
  In  In77  1  0.49953899  0.50072658  0.25291794  1
  In  In78  1  0.83179400  0.83613005  0.50115850  1
  In  In79  1  0.16274274  0.83259300  0.25225695  1
  In  In80  1  0.83487017  0.83375413  0.24532441  1
  In  In81  1  0.00084542  0.33257016  0.00147640  1
  In  In82  1  0.33087068  0.00114079  -0.00029912  1
  In  In83  1  0.66901660  0.33216561  0.75086109  1
  In  In84  1  0.16177240  0.82970430  -0.00204619  1
  In  In85  1  0.33481138  0.66492949  0.25314998  1
  In  In86  1  0.66685488  -0.00003238  0.24755569  1
  In  In87  1  -0.00032773  0.66735464  0.25280693  1
  In  In88  1  0.50329982  0.16834638  -0.00273354  1
  In  In89  1  0.66243438  0.66705302  0.50113307  1
  In  In90  1  0.16945416  0.49968560  0.50128259  1
  In  In91  1  0.16595795  0.49854225  0.25193984  1
  In  In92  1  0.16551224  0.16889720  -0.00314144  1
  In  In93  1  0.00359201  0.33110296  0.49771976  1
  In  In94  1  0.33247596  0.33077897  0.50534581  1
  In  In95  1  0.33449042  0.33035332  -0.00219883  1
  In  In96  1  0.83584274  0.50157772  0.24829917  1
  In  In97  1  0.00006280  0.00105483  0.50386602  1
  In  In98  1  0.67103781  0.33314954  -0.00390484  1
  In  In99  1  0.66461708  0.66293420  0.24586360  1
  In  In100  1  0.50130362  0.16805405  0.24813406  1
  In  In101  1  0.49783643  0.50334044  0.50283132  1
  In  In102  1  0.66524094  -0.00277390  0.50300854  1
  In  In103  1  0.83413498  0.50193093  0.49852698  1
  In  In104  1  0.83416371  0.83071324  0.00179610  1
  In  In105  1  0.49745988  0.83584824  0.49797087  1
  In  In106  1  0.83083152  0.16471796  0.74790623  1
  In  In107  1  0.16764269  0.83560608  0.50298656  1
  Ir  Ir108  1  0.66312073  0.00003974  0.74713289  1
  Ir  Ir109  1  0.66866206  0.66841935  0.75531386  1
  Ir  Ir110  1  0.33147617  0.33112375  0.74627621  1
  Ir  Ir111  1  0.00249303  0.00877320  0.24810663  1
  Ir  Ir112  1  0.16673377  0.50109190  -0.00039324  1
  Ir  Ir113  1  0.83778842  0.17145185  0.25238131  1
  Ir  Ir114  1  0.17273999  0.49833182  0.75047025  1
  Ir  Ir115  1  0.16407289  0.16503630  0.74742595  1
  Ir  Ir116  1  0.00345039  0.33153146  0.75004406  1
  Ir  Ir117  1  0.16718428  0.16392618  0.50022319  1
  Ir  Ir118  1  0.66905014  0.32962834  0.25102988  1
  Ir  Ir119  1  0.49330045  0.83594379  0.24876446  1
  Ir  Ir120  1  0.50258251  0.16700406  0.50454821  1
  Ir  Ir121  1  0.66474342  0.32659004  0.49792221  1
  Ir  Ir122  1  0.49789547  0.83122961  -0.00194454  1
  Ir  Ir123  1  0.16693307  0.16741411  0.25320887  1
  Ir  Ir124  1  0.32950288  0.32847490  0.24928107  1
  Ir  Ir125  1  0.16908595  0.83585909  0.74939439  1
  Ir  Ir126  1  0.33412206  0.00199643  0.50068892  1
  Ir  Ir127  1  0.83480198  0.50092861  0.75305419  1
  Ir  Ir128  1  -0.00141911  0.00245854  -0.00604335  1
  Ir  Ir129  1  0.49952607  0.83574895  0.75332538  1
  Ir  Ir130  1  0.83983820  0.49816441  0.00121282  1
  Ir  Ir131  1  0.33397558  0.66310763  -0.00135467  1
  Ir  Ir132  1  0.33327582  -0.00047696  0.25554066  1
  Ir  Ir133  1  0.49919463  0.49624478  0.00029167  1
  Ir  Ir134  1  -0.00536470  0.65908248  -0.00277298  1
  Ir  Ir135  1  0.00103839  0.66620475  0.75105974  1
  Ir  Ir136  1  0.00540426  0.66915134  0.50136242  1
  Ir  Ir137  1  0.83087778  0.16687243  0.49617286  1
  Ir  Ir138  1  0.33047099  0.00256254  0.74535222  1
  Ir  Ir139  1  0.33170309  0.67005353  0.75147285  1
  Ir  Ir140  1  0.00420326  0.33096541  0.24961181  1
  Ir  Ir141  1  0.49770299  0.16892380  0.74718514  1
  Ir  Ir142  1  0.83227198  0.83306822  0.75208592  1
  Ir  Ir143  1  0.00002173  -0.00081345  0.75335649  1
  O  O144  1  0.30093205  0.32750439  0.12970929  1
  O  O145  1  0.29479944  0.32722879  0.63064828  1
  O  O146  1  0.31817959  0.66581889  0.11887750  1
  O  O147  1  0.31281660  0.66500659  0.63357109  1
  O  O148  1  0.31665187  1.00308445  0.13413119  1
  O  O149  1  0.30319712  0.99500262  0.62226433  1
  O  O150  1  0.63737274  0.32092834  0.13035154  1
  O  O151  1  0.63512982  0.31875727  0.61821409  1
  O  O152  1  0.62368429  0.65566624  0.12506386  1
  O  O153  1  0.64008177  0.66685325  0.63645232  1
  O  O154  1  0.64533812  0.98364377  0.12203541  1
  O  O155  1  0.62901588  0.99316644  0.63014931  1
  O  O156  1  0.96940293  0.32472237  0.13103931  1
  O  O157  1  0.98682713  0.32968698  0.62980568  1
  O  O158  1  0.96936466  0.64888695  0.11651766  1
  O  O159  1  0.98083463  0.66652649  0.62762173  1
  O  O160  1  0.97938087  0.99941728  0.11944428  1
  O  O161  1  0.96939044  1.00176827  0.63393951  1
  O  O162  1  0.18323100  0.16020905  0.13186727  1
  O  O163  1  0.18497095  0.14488970  0.62315281  1
  O  O164  1  0.18295918  0.49454346  0.12039977  1
  O  O165  1  0.20144621  0.49166722  0.63065182  1
  O  O166  1  0.17570552  0.83785225  0.12461241  1
  O  O167  1  0.20131235  0.83975519  0.63092515  1
  O  O168  1  0.53756944  0.16815243  0.12282552  1
  O  O169  1  0.53224107  0.16114337  0.62659282  1
  O  O170  1  0.51453908  0.48058106  0.12230487  1
  O  O171  1  0.52266811  0.48281880  0.62882815  1
  O  O172  1  0.52298227  0.83151299  0.12300760  1
  O  O173  1  0.51070392  0.83153239  0.63398590  1
  O  O174  1  0.85871164  0.16861219  0.13361781  1
  O  O175  1  0.85151114  0.15082198  0.61729860  1
  O  O176  1  0.87075351  0.48369028  0.11986843  1
  O  O177  1  0.85100157  0.49946401  0.63205473  1
  O  O178  1  0.87564035  0.82228866  0.12108793  1
  O  O179  1  0.84723650  0.83604055  0.63329497  1
  O  O180  1  0.13856822  0.17826583  0.37772407  1
  O  O181  1  0.13159801  0.17299346  0.86491933  1
  O  O182  1  0.13308898  0.51009435  0.37598330  1
  O  O183  1  0.15305766  0.49818462  0.87512087  1
  O  O184  1  0.14602767  0.85737787  0.37706201  1
  O  O185  1  0.14606209  0.84320820  0.86918766  1
  O  O186  1  0.48542770  0.16898910  0.38360149  1
  O  O187  1  0.46285538  0.18193117  0.86396783  1
  O  O188  1  0.46076950  0.49842326  0.37749802  1
  O  O189  1  0.48077525  0.49962153  0.87954620  1
  O  O190  1  0.46498204  0.83701520  0.36826087  1
  O  O191  1  0.47873780  0.82824055  0.87528450  1
  O  O192  1  0.80237344  0.17175249  0.37409381  1
  O  O193  1  0.79811675  0.18281993  0.87161444  1
  O  O194  1  0.79992133  0.50123827  0.37205146  1
  O  O195  1  0.81713890  0.51222611  0.87889994  1
  O  O196  1  0.80639182  0.83823237  0.37200571  1
  O  O197  1  0.81814751  0.83520023  0.87258624  1
  O  O198  1  0.02676604  0.01102598  0.36962167  1
  O  O199  1  0.03266052  0.00626686  0.87352228  1
  O  O200  1  0.03829338  0.34326260  0.36797340  1
  O  O201  1  0.01678133  0.33489759  0.87008644  1
  O  O202  1  0.03629108  0.67397525  0.38284747  1
  O  O203  1  0.02028041  0.66381666  0.87451164  1
  O  O204  1  0.35641116  -0.00356787  0.37952644  1
  O  O205  1  0.34705976  0.01042968  0.86484866  1
  O  O206  1  0.34946444  0.33272709  0.37044847  1
  O  O207  1  0.36334013  0.33281820  0.86473714  1
  O  O208  1  0.35924626  0.68874531  0.37660469  1
  O  O209  1  0.35133176  0.66508092  0.87349918  1
  O  O210  1  0.68368346  0.01274101  0.37586350  1
  O  O211  1  0.69957306  0.01312435  0.86375398  1
  O  O212  1  0.68908193  0.34031127  0.37445960  1
  O  O213  1  0.70979605  0.33804031  0.87329589  1
  O  O214  1  0.67312760  0.69126301  0.37089400  1
  O  O215  1  0.69653475  0.66797652  0.87742769  1
  O  O216  1  0.06384532  0.09612677  0.00244256  1
  O  O217  1  0.07279819  0.10013310  0.50680694  1
  O  O218  1  0.07350524  0.43277631  0.02286058  1
  O  O219  1  0.08151461  0.42112834  0.52530658  1
  O  O220  1  0.05726705  0.75640771  0.01876950  1
  O  O221  1  0.06985813  0.76208164  0.52032716  1
  O  O222  1  0.40508061  0.09553559  0.00418300  1
  O  O223  1  0.40918752  0.09620932  0.52637954  1
  O  O224  1  0.41001352  0.42691351  0.01547002  1
  O  O225  1  0.39964033  0.42957271  0.53001465  1
  O  O226  1  0.40958025  0.75238550  0.02029796  1
  O  O227  1  0.38967725  0.78060113  0.52152535  1
  O  O228  1  0.73271112  0.10449801  0.02512077  1
  O  O229  1  0.73461936  0.10389673  0.51485486  1
  O  O230  1  0.74881916  0.43099645  0.02157131  1
  O  O231  1  0.73522741  0.41652399  0.51266103  1
  O  O232  1  0.73752169  0.76101231  0.03609387  1
  O  O233  1  0.73324218  0.76681823  0.50614501  1
  O  O234  1  0.10258218  0.26934210  0.02588746  1
  O  O235  1  0.10636525  0.26110210  0.51918019  1
  O  O236  1  0.09100941  0.59201566  0.01935684  1
  O  O237  1  0.09680799  0.60091298  0.51551781  1
  O  O238  1  0.08331953  0.92801025  0.01360529  1
  O  O239  1  0.10379775  0.93933602  0.52425181  1
  O  O240  1  0.43872387  0.27073035  0.02025842  1
  O  O241  1  0.43723317  0.26215292  0.52503953  1
  O  O242  1  0.43263647  0.59378837  0.02260887  1
  O  O243  1  0.43126535  0.60177895  0.54032652  1
  O  O244  1  0.42133803  0.91613350  0.00869684  1
  O  O245  1  0.42951810  0.94017464  0.52856202  1
  O  O246  1  0.76429066  0.26519919  0.03632174  1
  O  O247  1  0.75819007  0.25584622  0.52042394  1
  O  O248  1  0.77684022  0.59451821  0.02126754  1
  O  O249  1  0.75886779  0.59299792  0.51658201  1
  O  O250  1  0.76331988  0.92961786  -0.00094676  1
  O  O251  1  0.76769103  0.94043745  0.52908594  1
  O  O252  1  0.23367802  0.06849824  0.27704365  1
  O  O253  1  0.23353306  0.07080047  0.77281754  1
  O  O254  1  0.23586805  0.39669435  0.27345941  1
  O  O255  1  0.23835153  0.40003430  0.76493471  1
  O  O256  1  0.23326204  0.73519793  0.27704868  1
  O  O257  1  0.23976520  0.74336636  0.77175049  1
  O  O258  1  0.58177994  0.08204126  0.26871338  1
  O  O259  1  0.57066112  0.07387398  0.76885250  1
  O  O260  1  0.58015647  0.40124663  0.26628302  1
  O  O261  1  0.56577011  0.39482717  0.76952194  1
  O  O262  1  0.56160586  0.74676887  0.25578169  1
  O  O263  1  0.56852705  0.73681547  0.76688419  1
  O  O264  1  0.91262029  0.08450978  0.27724375  1
  O  O265  1  0.90634681  0.06851440  0.77812903  1
  O  O266  1  0.91716231  0.40144924  0.26987114  1
  O  O267  1  0.90321604  0.40132483  0.77104553  1
  O  O268  1  0.89751955  0.73037378  0.25903409  1
  O  O269  1  0.90231431  0.73502909  0.77286979  1
  O  O270  1  0.25835543  0.23632349  0.27305169  1
  O  O271  1  0.26198723  0.23192938  0.77254405  1
  O  O272  1  0.26558007  0.56538101  0.28194302  1
  O  O273  1  0.26917478  0.56880026  0.76105134  1
  O  O274  1  0.26317105  0.91053379  0.27457325  1
  O  O275  1  0.25722250  0.91288008  0.77195701  1
  O  O276  1  0.60497839  0.23830733  0.27477602  1
  O  O277  1  0.58965282  0.23400528  0.77437677  1
  O  O278  1  0.60312693  0.56037372  0.27995731  1
  O  O279  1  0.59784639  0.57957767  0.76833835  1
  O  O280  1  0.59041430  0.89790494  0.26826846  1
  O  O281  1  0.59297941  0.90614079  0.77285592  1
  O  O282  1  0.93618809  0.23844120  0.27955054  1
  O  O283  1  0.93045644  0.23996371  0.77210624  1
  O  O284  1  0.93967046  0.56056023  0.27230464  1
  O  O285  1  0.92552364  0.57785244  0.77264310  1
  O  O286  1  0.93274504  0.91769978  0.25486818  1
  O  O287  1  0.92243297  0.91107184  0.77699384  1
  O  O288  1  0.25697710  0.23372496  0.48414247  1
  O  O289  1  0.26940521  0.23133513  0.97235881  1
  O  O290  1  0.27005784  0.56656276  0.47644853  1
  O  O291  1  0.26162642  0.57223704  0.98289495  1
  O  O292  1  0.27201678  0.90713206  0.48153826  1
  O  O293  1  0.24852364  0.91472014  0.98042224  1
  O  O294  1  0.60216196  0.22808247  0.48102015  1
  O  O295  1  0.59614772  0.24265776  0.95676134  1
  O  O296  1  0.60020470  0.56213600  0.47493542  1
  O  O297  1  0.58935602  0.56498964  0.98655594  1
  O  O298  1  0.59989118  0.89620908  0.47204998  1
  O  O299  1  0.58439068  0.90471504  0.98466497  1
  O  O300  1  0.92736486  0.23487871  0.47672336  1
  O  O301  1  0.93066006  0.23530746  0.96785100  1
  O  O302  1  0.93961940  0.57500863  0.47605026  1
  O  O303  1  0.93539861  0.56012918  0.98461206  1
  O  O304  1  0.92720683  0.90978892  0.48636206  1
  O  O305  1  0.92800774  0.91328500  0.98081341  1
  O  O306  1  0.23166376  0.06397511  0.47952137  1
  O  O307  1  0.23368836  0.07318917  0.96852188  1
  O  O308  1  0.23933205  0.40158687  0.46755802  1
  O  O309  1  0.23554124  0.40735333  0.99159460  1
  O  O310  1  0.23158251  0.73552671  0.47398332  1
  O  O311  1  0.24555851  0.73731947  0.98575020  1
  O  O312  1  0.56913734  0.07539676  0.49202466  1
  O  O313  1  0.57889476  0.07940632  0.96244991  1
  O  O314  1  0.57571424  0.39761915  0.48375950  1
  O  O315  1  0.56481133  0.40065001  0.98197471  1
  O  O316  1  0.55572560  0.73001207  0.50745052  1
  O  O317  1  0.57156541  0.74463244  0.99097546  1
  O  O318  1  0.90638177  0.08240546  0.47732758  1
  O  O319  1  0.90554801  0.06985738  0.96480066  1
  O  O320  1  0.91747948  0.41514058  0.47744289  1
  O  O321  1  0.89731924  0.39866954  0.98026984  1
  O  O322  1  0.91411363  0.73659960  0.48778432  1
  O  O323  1  0.89823404  0.72119263  0.97932107  1
  O  O324  1  0.10387159  0.26699991  0.23015943  1
  O  O325  1  0.09943482  0.26288694  0.72355935  1
  O  O326  1  0.09274148  0.59212785  0.22873800  1
  O  O327  1  0.09738825  0.59018143  0.73441285  1
  O  O328  1  0.08914259  0.93652026  0.23291238  1
  O  O329  1  0.09928485  0.93249658  0.72955212  1
  O  O330  1  0.42615958  0.26402628  0.22449049  1
  O  O331  1  0.43179125  0.26710093  0.72271675  1
  O  O332  1  0.43533170  0.60026381  0.22458544  1
  O  O333  1  0.42407801  0.59888443  0.72906495  1
  O  O334  1  0.42557641  0.93091964  0.23297967  1
  O  O335  1  0.42644181  0.93137441  0.72266001  1
  O  O336  1  0.76504166  0.26152455  0.22513721  1
  O  O337  1  0.75155233  0.25079607  0.71574483  1
  O  O338  1  0.76904359  0.59863955  0.21753597  1
  O  O339  1  0.76710115  0.60075510  0.74409980  1
  O  O340  1  0.75510177  0.92158830  0.22525214  1
  O  O341  1  0.76511896  0.93449723  0.73373180  1
  O  O342  1  0.07040156  0.10456247  0.24685989  1
  O  O343  1  0.07305473  0.08967828  0.72708393  1
  O  O344  1  0.07090600  0.42086712  0.21803319  1
  O  O345  1  0.08032529  0.42316379  0.72710952  1
  O  O346  1  0.06057510  0.76964371  0.22452147  1
  O  O347  1  0.07489881  0.76161955  0.73550620  1
  O  O348  1  0.40560736  0.08828637  0.24028624  1
  O  O349  1  0.40808163  0.09095670  0.72427286  1
  O  O350  1  0.40056785  0.41772729  0.23505893  1
  O  O351  1  0.39747527  0.42402335  0.72143473  1
  O  O352  1  0.40420335  0.76781525  0.22826372  1
  O  O353  1  0.40141047  0.76505434  0.72758857  1
  O  O354  1  0.74416731  0.10451195  0.23155378  1
  O  O355  1  0.73269223  0.08807902  0.71735152  1
  O  O356  1  0.74500889  0.41468089  0.22771635  1
  O  O357  1  0.74649353  0.42967713  0.73497724  1
  O  O358  1  0.73160711  0.76390828  0.21924271  1
  O  O359  1  0.74022722  0.76029385  0.73570123  1
