# generated using pymatgen
data_BaLaInIrO6
_symmetry_space_group_name_H-M   'P 1'
_cell_length_a   17.51163657
_cell_length_b   17.53926323
_cell_length_c   16.47781834
_cell_angle_alpha   90.02061610
_cell_angle_beta   90.02281635
_cell_angle_gamma   90.01694445
_symmetry_Int_Tables_number   1
_chemical_formula_structural   BaLaInIrO6
_chemical_formula_sum   'Ba36 La36 In36 Ir36 O216'
_cell_volume   5061.01600663
_cell_formula_units_Z   36
loop_
 _symmetry_equiv_pos_site_id
 _symmetry_equiv_pos_as_xyz
  1  'x, y, z'
loop_
 _atom_site_type_symbol
 _atom_site_label
 _atom_site_symmetry_multiplicity
 _atom_site_fract_x
 _atom_site_fract_y
 _atom_site_fract_z
 _atom_site_occupancy
  Ba  Ba0  1  0.83494305  0.99567121  0.87758623  1
  Ba  Ba1  1  0.00287286  0.49281732  0.88135890  1
  Ba  Ba2  1  0.83698221  0.32377898  0.87634592  1
  Ba  Ba3  1  0.66964164  0.49204725  0.37369831  1
  Ba  Ba4  1  0.32853806  0.49293555  0.87904900  1
  Ba  Ba5  1  0.16723607  0.00732325  0.12347285  1
  Ba  Ba6  1  0.17174956  0.66184872  0.87424094  1
  Ba  Ba7  1  0.49568524  0.00958949  0.12409508  1
  Ba  Ba8  1  0.99811621  0.16986256  0.62402784  1
  Ba  Ba9  1  0.33386090  0.82739178  0.37123472  1
  Ba  Ba10  1  1.00062646  0.50640044  0.62878154  1
  Ba  Ba11  1  0.33293038  0.82712459  0.87776535  1
  Ba  Ba12  1  0.33511020  0.16159524  0.37337923  1
  Ba  Ba13  1  0.33429148  0.15850005  0.87070792  1
  Ba  Ba14  1  0.17047055  0.32480572  0.37929311  1
  Ba  Ba15  1  0.83293638  0.00820885  0.12535122  1
  Ba  Ba16  1  0.00135083  0.82621178  0.87771335  1
  Ba  Ba17  1  0.99541102  0.83931453  0.62786664  1
  Ba  Ba18  1  0.83249483  0.67523763  0.62336978  1
  Ba  Ba19  1  0.50000374  0.65612898  0.87807113  1
  Ba  Ba20  1  0.49804414  0.00876411  0.62383998  1
  Ba  Ba21  1  0.66349555  0.82354451  0.37355215  1
  Ba  Ba22  1  0.83413769  0.67771749  0.12592166  1
  Ba  Ba23  1  0.16181885  0.67799721  0.12586100  1
  Ba  Ba24  1  0.83074434  0.00737248  0.62642194  1
  Ba  Ba25  1  0.83332716  0.98136879  0.37416890  1
  Ba  Ba26  1  0.82871647  0.34432902  0.12465754  1
  Ba  Ba27  1  0.16779101  0.32413675  0.87059836  1
  Ba  Ba28  1  1.00070951  0.84367696  0.12680491  1
  Ba  Ba29  1  0.50592816  0.32751794  0.37374305  1
  Ba  Ba30  1  0.50432100  0.34171970  0.12370979  1
  Ba  Ba31  1  0.33259397  0.50720768  0.62464397  1
  Ba  Ba32  1  0.66626538  0.15883170  0.87836585  1
  Ba  Ba33  1  0.16911326  0.99146949  0.87298504  1
  Ba  Ba34  1  0.67188844  0.51110253  0.62285020  1
  Ba  Ba35  1  0.50135875  0.65559854  0.37417522  1
  La  La36  1  0.82941782  0.65759800  0.37233170  1
  La  La37  1  0.84131842  0.65189933  0.87293612  1
  La  La38  1  0.16078475  0.68459208  0.62706379  1
  La  La39  1  1.00108151  0.17179384  0.11957276  1
  La  La40  1  0.65894947  0.82011741  0.87429592  1
  La  La41  1  -0.00435265  0.15492951  0.87451199  1
  La  La42  1  0.66153369  0.48229714  0.87777781  1
  La  La43  1  0.65704712  0.15309249  0.37595598  1
  La  La44  1  0.33482582  0.84652202  0.62597348  1
  La  La45  1  0.50484772  0.32053858  0.87451984  1
  La  La46  1  0.49560103  0.68100238  0.13023183  1
  La  La47  1  0.67425530  0.18481483  0.62462403  1
  La  La48  1  -0.00788763  0.48535246  0.37400169  1
  La  La49  1  0.33762238  0.18432199  0.12090862  1
  La  La50  1  0.16494799  0.98391862  0.37496056  1
  La  La51  1  0.16185609  0.01191180  0.62172831  1
  La  La52  1  0.50510974  0.98611004  0.87450384  1
  La  La53  1  0.50789150  0.98182348  0.37277341  1
  La  La54  1  0.33421401  0.51637657  0.12854777  1
  La  La55  1  0.17197224  0.65431551  0.37218326  1
  La  La56  1  0.33655324  0.18318279  0.62554089  1
  La  La57  1  0.49823364  0.67950747  0.61949739  1
  La  La58  1  0.16570023  0.34554476  0.62643998  1
  La  La59  1  0.49929016  0.35009416  0.62454008  1
  La  La60  1  0.67416401  0.84493651  0.62315632  1
  La  La61  1  1.00062992  0.51503567  0.12777331  1
  La  La62  1  0.33393608  0.48561515  0.37677274  1
  La  La63  1  0.67027330  0.51814604  0.13041882  1
  La  La64  1  0.16214632  0.33791056  0.12124554  1
  La  La65  1  0.67132300  0.18230635  0.12429267  1
  La  La66  1  0.83198828  0.34447406  0.62751717  1
  La  La67  1  0.67409803  0.84852021  0.12712491  1
  La  La68  1  -0.00663361  0.14698423  0.37088900  1
  La  La69  1  0.33265398  0.84887779  0.12402371  1
  La  La70  1  0.83725576  0.31775705  0.37425470  1
  La  La71  1  -0.00754794  0.81496167  0.37276138  1
  In  In72  1  0.83183208  0.16701189  0.75156471  1
  In  In73  1  0.33316356  0.00193975  0.49782637  1
  In  In74  1  0.82846168  0.83285313  0.75500677  1
  In  In75  1  -0.00196754  0.33056845  0.24720645  1
  In  In76  1  0.66516775  0.00132503  0.50194238  1
  In  In77  1  -0.00183901  -0.00596265  0.49882583  1
  In  In78  1  0.16476824  0.16693165  0.49775515  1
  In  In79  1  0.00252864  -0.00050985  0.00106215  1
  In  In80  1  0.49953744  0.16813876  0.24718231  1
  In  In81  1  0.83124125  0.49783659  0.75267005  1
  In  In82  1  0.33272511  0.33630825  0.24900643  1
  In  In83  1  0.33130003  0.66609455  0.49723993  1
  In  In84  1  0.00204973  0.66574386  0.75095681  1
  In  In85  1  0.00180619  0.32958401  0.74992613  1
  In  In86  1  0.33685825  0.33442994  0.75172979  1
  In  In87  1  0.16462203  0.16577941  0.25042636  1
  In  In88  1  0.66690812  0.66531229  0.75252980  1
  In  In89  1  0.50293359  0.50059557  0.24921298  1
  In  In90  1  0.50098869  0.50250406  0.75058889  1
  In  In91  1  0.83141848  0.16657142  0.49694751  1
  In  In92  1  0.33341279  0.66755053  0.74523768  1
  In  In93  1  -0.00034039  0.66713733  0.00047700  1
  In  In94  1  0.16462209  0.49815317  0.25159431  1
  In  In95  1  0.16370685  0.50264635  0.49882360  1
  In  In96  1  0.66708996  0.00325145  0.24719456  1
  In  In97  1  0.33208499  0.00335565  0.25190713  1
  In  In98  1  0.82900385  0.83330477  -0.00159638  1
  In  In99  1  0.16847398  0.49738082  0.00356458  1
  In  In100  1  0.82929622  0.49760518  0.00347854  1
  In  In101  1  0.49991487  0.16756182  0.50300576  1
  In  In102  1  0.49879520  0.49972485  0.00254574  1
  In  In103  1  0.49986704  0.83302482  0.74714239  1
  In  In104  1  0.00091828  -0.00268324  0.75030275  1
  In  In105  1  0.33478388  0.00506100  -0.00217428  1
  In  In106  1  0.50161403  0.83321581  0.00327381  1
  In  In107  1  0.83578071  0.50123803  0.49785903  1
  Ir  Ir108  1  0.00159848  0.66602433  0.25520948  1
  Ir  Ir109  1  0.83148193  0.16788966  0.25105807  1
  Ir  Ir110  1  0.83319647  0.16804312  0.00471791  1
  Ir  Ir111  1  0.00506873  0.66913243  0.49691560  1
  Ir  Ir112  1  0.16434005  0.83157516  0.49700011  1
  Ir  Ir113  1  0.50111502  0.16925600  -0.00309890  1
  Ir  Ir114  1  0.16894215  0.17065794  -0.00293149  1
  Ir  Ir115  1  0.66380423  0.00322999  -0.00225118  1
  Ir  Ir116  1  0.66223898  0.00208674  0.75320504  1
  Ir  Ir117  1  0.50176202  0.83006451  0.50061155  1
  Ir  Ir118  1  0.66941520  0.33466601  0.49978222  1
  Ir  Ir119  1  0.50326548  0.16578463  0.74863203  1
  Ir  Ir120  1  0.16147418  0.83222045  0.25328188  1
  Ir  Ir121  1  0.83300918  0.82898560  0.25258630  1
  Ir  Ir122  1  0.16908409  0.49930959  0.74856468  1
  Ir  Ir123  1  0.17243490  0.16456800  0.74676905  1
  Ir  Ir124  1  0.67469136  0.33312768  0.25158284  1
  Ir  Ir125  1  0.33272220  0.67069356  0.24861114  1
  Ir  Ir126  1  0.66440767  0.33164611  0.00031541  1
  Ir  Ir127  1  -0.00162815  -0.00007512  0.25062970  1
  Ir  Ir128  1  0.66661580  0.66744369  0.00449577  1
  Ir  Ir129  1  0.33635847  0.33549803  0.50368725  1
  Ir  Ir130  1  0.17098599  0.83236754  0.00249512  1
  Ir  Ir131  1  0.66337695  0.66817035  0.49734122  1
  Ir  Ir132  1  0.17337675  0.83608905  0.74642072  1
  Ir  Ir133  1  0.50361018  0.49934122  0.50082119  1
  Ir  Ir134  1  0.33208006  0.33210233  0.00116858  1
  Ir  Ir135  1  0.50179425  0.82967846  0.24907457  1
  Ir  Ir136  1  0.33379057  0.00232355  0.74548534  1
  Ir  Ir137  1  -0.00080787  0.32796292  0.00269967  1
  Ir  Ir138  1  -0.00010275  0.33228964  0.49659732  1
  Ir  Ir139  1  0.66257416  0.33041418  0.74996255  1
  Ir  Ir140  1  0.83123049  0.82535910  0.49610980  1
  Ir  Ir141  1  0.66653845  0.66865929  0.24815842  1
  Ir  Ir142  1  0.83455057  0.50246900  0.25125870  1
  Ir  Ir143  1  0.33304680  0.66943316  0.00868988  1
  O  O144  1  0.29987994  0.32332761  0.11908455  1
  O  O145  1  0.30523736  0.32704256  0.62236770  1
  O  O146  1  0.30955720  0.65854824  0.12990682  1
  O  O147  1  0.29449608  0.66269327  0.61942011  1
  O  O148  1  0.31666439  0.98586993  0.12578830  1
  O  O149  1  0.30119691  0.98912346  0.62576970  1
  O  O150  1  0.65046134  0.31746467  0.12660075  1
  O  O151  1  0.63655953  0.32235830  0.62502088  1
  O  O152  1  0.63245908  0.65689686  0.12588493  1
  O  O153  1  0.63500406  0.66486920  0.61722591  1
  O  O154  1  0.64461617  0.99263161  0.11807410  1
  O  O155  1  0.64590649  0.98613224  0.63230750  1
  O  O156  1  0.97431382  0.31096726  0.11932449  1
  O  O157  1  0.96791865  0.32798582  0.61452400  1
  O  O158  1  0.98173121  0.65883211  0.13432289  1
  O  O159  1  0.98544817  0.66832647  0.61728134  1
  O  O160  1  0.98373818  1.00343383  0.13050193  1
  O  O161  1  0.98136041  0.99467222  0.62398269  1
  O  O162  1  0.19877988  0.16884184  0.11627686  1
  O  O163  1  0.20164652  0.15361563  0.62701640  1
  O  O164  1  0.20118762  0.48096432  0.12850439  1
  O  O165  1  0.18208642  0.48744932  0.62606004  1
  O  O166  1  0.19656897  0.83148636  0.12691956  1
  O  O167  1  0.19881651  0.82334396  0.62014486  1
  O  O168  1  0.53423476  0.16557569  0.11571462  1
  O  O169  1  0.53814022  0.16131754  0.63123347  1
  O  O170  1  0.53551945  0.49897766  0.12398553  1
  O  O171  1  0.52512008  0.49153268  0.62020614  1
  O  O172  1  0.53468395  0.82229498  0.12972130  1
  O  O173  1  0.53509624  0.82403638  0.61917893  1
  O  O174  1  0.86360853  0.16699836  0.12965354  1
  O  O175  1  0.84468890  0.17560570  0.62334140  1
  O  O176  1  0.86246045  0.49898366  0.13190932  1
  O  O177  1  0.84661284  0.48624319  0.62189816  1
  O  O178  1  0.84682320  0.83503938  0.13297014  1
  O  O179  1  0.84275987  0.83231560  0.61635686  1
  O  O180  1  0.12594603  0.17604465  0.37489287  1
  O  O181  1  0.13674369  0.17046562  0.87113009  1
  O  O182  1  0.12662916  0.51185202  0.37574923  1
  O  O183  1  0.15465626  0.50159796  0.87123414  1
  O  O184  1  0.12998702  0.84222650  0.37634267  1
  O  O185  1  0.15076862  0.83694151  0.87106183  1
  O  O186  1  0.48709097  0.17763716  0.37583033  1
  O  O187  1  0.47955482  0.18190807  0.87207168  1
  O  O188  1  0.47433507  0.49904635  0.37906099  1
  O  O189  1  0.47883663  0.49723085  0.87835420  1
  O  O190  1  0.48025069  0.84112161  0.37535420  1
  O  O191  1  0.48442089  0.84228027  0.87542228  1
  O  O192  1  0.79617115  0.17575609  0.36965693  1
  O  O193  1  0.81484542  0.16737383  0.88407634  1
  O  O194  1  0.81936229  0.51556328  0.37123431  1
  O  O195  1  0.79710950  0.50476403  0.87933836  1
  O  O196  1  0.81372575  0.81546735  0.37446324  1
  O  O197  1  0.78920540  0.83870402  0.87766169  1
  O  O198  1  0.02684847  0.00531025  0.37012061  1
  O  O199  1  0.02110840  0.01725147  0.87637025  1
  O  O200  1  0.02241445  0.34568427  0.37651003  1
  O  O201  1  0.01883220  0.33465821  0.88416489  1
  O  O202  1  0.03427459  0.67606910  0.37632497  1
  O  O203  1  0.02402243  0.66720856  0.87580880  1
  O  O204  1  0.37273460  0.00064405  0.37453433  1
  O  O205  1  0.36637489  0.00434386  0.86724206  1
  O  O206  1  0.35732643  0.34316025  0.38394454  1
  O  O207  1  0.36583732  0.33526824  0.88110884  1
  O  O208  1  0.35323805  0.67565626  0.36752895  1
  O  O209  1  0.34998914  0.66977270  0.88640476  1
  O  O210  1  0.68577721  0.01376791  0.37387863  1
  O  O211  1  0.68489082  0.00752285  0.87592262  1
  O  O212  1  0.70207254  0.33893601  0.37608566  1
  O  O213  1  0.68694551  0.34265584  0.87489537  1
  O  O214  1  0.69544822  0.67172486  0.37163248  1
  O  O215  1  0.70183659  0.68095633  0.88739161  1
  O  O216  1  0.07553811  0.10487961  0.01866215  1
  O  O217  1  0.07759794  0.08621887  0.52046985  1
  O  O218  1  0.06875876  0.41723309  0.03375656  1
  O  O219  1  0.06965921  0.42203188  0.51788651  1
  O  O220  1  0.08118825  0.76145374  0.01660169  1
  O  O221  1  0.06920909  0.76589304  0.51524120  1
  O  O222  1  0.40786591  0.10441047  0.02158409  1
  O  O223  1  0.39825987  0.10184343  0.52901443  1
  O  O224  1  0.39515663  0.42753098  0.02996198  1
  O  O225  1  0.41136185  0.42720065  0.52180403  1
  O  O226  1  0.40434358  0.75892804  0.03341027  1
  O  O227  1  0.41138997  0.75834118  0.52716561  1
  O  O228  1  0.73495270  0.09853149  0.02632829  1
  O  O229  1  0.72717366  0.10482133  0.52011418  1
  O  O230  1  0.72658387  0.42798800  0.02431657  1
  O  O231  1  0.73914374  0.42322216  0.51475888  1
  O  O232  1  0.72627588  0.76334425  0.03092541  1
  O  O233  1  0.73051811  0.76195142  0.52036489  1
  O  O234  1  0.09723191  0.26150452  0.02373066  1
  O  O235  1  0.09416382  0.26824208  0.52729073  1
  O  O236  1  0.08245234  0.57824398  0.02810115  1
  O  O237  1  0.10315449  0.61034497  0.51854779  1
  O  O238  1  0.09835970  0.92004785  0.01337191  1
  O  O239  1  0.10404756  0.92700298  0.51825052  1
  O  O240  1  0.42645094  0.26105704  0.02085938  1
  O  O241  1  0.42772148  0.26673777  0.53274067  1
  O  O242  1  0.42463159  0.59940522  0.03214235  1
  O  O243  1  0.43517914  0.59279012  0.52134509  1
  O  O244  1  0.42394637  0.92377533  0.01636541  1
  O  O245  1  0.42427890  0.91403985  0.52201708  1
  O  O246  1  0.75447024  0.25358628  0.02406312  1
  O  O247  1  0.76536455  0.27344791  0.51729847  1
  O  O248  1  0.74931091  0.59333079  0.03040383  1
  O  O249  1  0.75809260  0.60123124  0.50510579  1
  O  O250  1  0.74841168  0.92919118  0.02174722  1
  O  O251  1  0.75769106  0.91685550  0.51300376  1
  O  O252  1  0.22839460  0.06494901  0.27714483  1
  O  O253  1  0.24259913  0.07114521  0.76431822  1
  O  O254  1  0.24719508  0.41688462  0.28501305  1
  O  O255  1  0.23944178  0.40876067  0.75967527  1
  O  O256  1  0.23095146  0.73576851  0.27299592  1
  O  O257  1  0.24135159  0.74657238  0.76121015  1
  O  O258  1  0.56755245  0.06980275  0.27352812  1
  O  O259  1  0.56388753  0.06701263  0.77493889  1
  O  O260  1  0.58381675  0.40302325  0.26265000  1
  O  O261  1  0.56881994  0.39426410  0.77037941  1
  O  O262  1  0.57023204  0.73481587  0.26253914  1
  O  O263  1  0.57287709  0.73888586  0.77149445  1
  O  O264  1  0.90214533  0.07246109  0.27310684  1
  O  O265  1  0.91153340  0.07911928  0.76737607  1
  O  O266  1  0.89958732  0.40722352  0.27599189  1
  O  O267  1  0.90201046  0.39889250  0.75407264  1
  O  O268  1  0.90557363  0.73356241  0.27824290  1
  O  O269  1  0.89970575  0.73425462  0.77184173  1
  O  O270  1  0.25836410  0.24143304  0.26235035  1
  O  O271  1  0.26214847  0.23617754  0.75786442  1
  O  O272  1  0.26597109  0.57712802  0.27316425  1
  O  O273  1  0.25830356  0.57068147  0.76330362  1
  O  O274  1  0.25043868  0.90312423  0.26774709  1
  O  O275  1  0.27037810  0.90416768  0.76036846  1
  O  O276  1  0.61175749  0.23552281  0.26679513  1
  O  O277  1  0.59382112  0.23744819  0.77014966  1
  O  O278  1  0.59980439  0.57577920  0.26325425  1
  O  O279  1  0.60375199  0.56252984  0.77737201  1
  O  O280  1  0.58723129  0.90593820  0.26612889  1
  O  O281  1  0.59530197  0.91046956  0.77698542  1
  O  O282  1  0.92468591  0.23414832  0.28032199  1
  O  O283  1  0.93445045  0.23380112  0.77503701  1
  O  O284  1  0.93601166  0.56674178  0.27240138  1
  O  O285  1  0.92579493  0.57251050  0.77243723  1
  O  O286  1  0.93173725  0.89754685  0.27453311  1
  O  O287  1  0.92328787  0.90548316  0.76845536  1
  O  O288  1  0.26729535  0.24322673  0.48982248  1
  O  O289  1  0.26395290  0.23933557  0.97869192  1
  O  O290  1  0.26162551  0.57060130  0.46248213  1
  O  O291  1  0.26462240  0.57686594  0.99757783  1
  O  O292  1  0.25403480  0.90097798  0.47984250  1
  O  O293  1  0.25917115  0.90429018  0.99070480  1
  O  O294  1  0.60854881  0.23682784  0.48416504  1
  O  O295  1  0.58927082  0.24440892  0.97601000  1
  O  O296  1  0.59395100  0.57188712  0.47914389  1
  O  O297  1  0.60343708  0.57253837  0.97859544  1
  O  O298  1  0.58635931  0.90590727  0.48185135  1
  O  O299  1  0.59672888  0.91127533  0.97447321  1
  O  O300  1  0.93176944  0.24168910  0.46612038  1
  O  O301  1  0.93267755  0.23215867  0.97951100  1
  O  O302  1  0.94069903  0.57313341  0.47588749  1
  O  O303  1  0.91653602  0.57692309  0.98406341  1
  O  O304  1  0.92702534  0.89111023  0.47455374  1
  O  O305  1  0.92105886  0.91189833  0.98834632  1
  O  O306  1  0.23290715  0.06565466  0.47091663  1
  O  O307  1  0.23834642  0.08063119  0.98016121  1
  O  O308  1  0.24884061  0.40998139  0.48524315  1
  O  O309  1  0.24045073  0.39796314  0.98426793  1
  O  O310  1  0.22623760  0.73644197  0.47470362  1
  O  O311  1  0.24309719  0.74138558  0.98817357  1
  O  O312  1  0.56500020  0.06739985  0.47320573  1
  O  O313  1  0.56505775  0.07097352  0.97319329  1
  O  O314  1  0.57135036  0.40068549  0.49059185  1
  O  O315  1  0.57400822  0.40017352  0.97320163  1
  O  O316  1  0.56985199  0.73657583  0.48221784  1
  O  O317  1  0.57808031  0.73759331  0.98335602  1
  O  O318  1  0.90941865  0.07633662  0.47349776  1
  O  O319  1  0.91076135  0.08637400  0.99008026  1
  O  O320  1  0.90679464  0.40108681  0.47070123  1
  O  O321  1  0.91094997  0.40146837  0.98894935  1
  O  O322  1  0.90435193  0.73009655  0.47161177  1
  O  O323  1  0.89888607  0.73641379  0.97756337  1
  O  O324  1  0.09123092  0.25847923  0.21448704  1
  O  O325  1  0.10544148  0.25762803  0.72146727  1
  O  O326  1  0.09087412  0.59590148  0.23375641  1
  O  O327  1  0.10285364  0.59237856  0.72600081  1
  O  O328  1  0.09440845  0.93143793  0.23568949  1
  O  O329  1  0.10676687  0.92775977  0.72439145  1
  O  O330  1  0.42511519  0.26172275  0.22583800  1
  O  O331  1  0.43627239  0.25773260  0.72307027  1
  O  O332  1  0.42622742  0.60263595  0.22432349  1
  O  O333  1  0.43475941  0.60230548  0.72322051  1
  O  O334  1  0.42672945  0.91487917  0.23206263  1
  O  O335  1  0.42153372  0.92968321  0.72845073  1
  O  O336  1  0.77024869  0.26572163  0.23799516  1
  O  O337  1  0.75701512  0.26556500  0.72573833  1
  O  O338  1  0.76254121  0.59788904  0.23341738  1
  O  O339  1  0.76572564  0.59998593  0.73932443  1
  O  O340  1  0.75741600  0.91835426  0.23499854  1
  O  O341  1  0.75102080  0.93423650  0.73527811  1
  O  O342  1  0.05714770  0.09909643  0.23216894  1
  O  O343  1  0.08712669  0.09185974  0.72899989  1
  O  O344  1  0.06488173  0.43030179  0.22189661  1
  O  O345  1  0.08216443  0.42177175  0.73273211  1
  O  O346  1  0.06511119  0.76433982  0.24192321  1
  O  O347  1  0.08490541  0.76202764  0.72965209  1
  O  O348  1  0.39789804  0.10235738  0.22006030  1
  O  O349  1  0.40370645  0.10081227  0.72338245  1
  O  O350  1  0.40059846  0.43846445  0.22949347  1
  O  O351  1  0.41545883  0.41979738  0.72310792  1
  O  O352  1  0.40499754  0.76174586  0.21915248  1
  O  O353  1  0.40554821  0.76304459  0.71330553  1
  O  O354  1  0.73617966  0.10545041  0.22511052  1
  O  O355  1  0.72638538  0.09687337  0.72866725  1
  O  O356  1  0.73757406  0.43650485  0.22771844  1
  O  O357  1  0.73029537  0.42010314  0.73537298  1
  O  O358  1  0.73385967  0.76415006  0.22677288  1
  O  O359  1  0.72540070  0.77224974  0.72900747  1
