# generated using pymatgen
data_BaLaInIrO6
_symmetry_space_group_name_H-M   'P 1'
_cell_length_a   17.53058748
_cell_length_b   17.55323794
_cell_length_c   16.49031814
_cell_angle_alpha   89.95946815
_cell_angle_beta   89.99706416
_cell_angle_gamma   90.00584415
_symmetry_Int_Tables_number   1
_chemical_formula_structural   BaLaInIrO6
_chemical_formula_sum   'Ba36 La36 In36 Ir36 O216'
_cell_volume   5074.37586645
_cell_formula_units_Z   36
loop_
 _symmetry_equiv_pos_site_id
 _symmetry_equiv_pos_as_xyz
  1  'x, y, z'
loop_
 _atom_site_type_symbol
 _atom_site_label
 _atom_site_symmetry_multiplicity
 _atom_site_fract_x
 _atom_site_fract_y
 _atom_site_fract_z
 _atom_site_occupancy
  Ba  Ba0  1  0.66682820  0.17480294  0.12436616  1
  Ba  Ba1  1  0.83032960  0.00537958  0.12563178  1
  Ba  Ba2  1  0.66982361  0.17619947  0.62511933  1
  Ba  Ba3  1  0.49660333  0.99172222  0.87360580  1
  Ba  Ba4  1  0.83139189  0.34655825  0.12757853  1
  Ba  Ba5  1  0.83278497  0.32800218  0.37813816  1
  Ba  Ba6  1  0.33232334  0.82506596  0.37312138  1
  Ba  Ba7  1  0.16453741  0.65957319  0.37246158  1
  Ba  Ba8  1  0.16740232  0.66119246  0.87604349  1
  Ba  Ba9  1  -0.00036130  0.15953109  0.87499790  1
  Ba  Ba10  1  0.32766836  0.15697390  0.87774520  1
  Ba  Ba11  1  0.83310670  0.67111814  0.62581067  1
  Ba  Ba12  1  0.49823223  0.65797140  0.87531218  1
  Ba  Ba13  1  0.49989792  0.00706341  0.12686306  1
  Ba  Ba14  1  -0.00491628  0.81969291  0.37779440  1
  Ba  Ba15  1  0.83303007  0.34247642  0.62623219  1
  Ba  Ba16  1  0.66640129  0.84294073  0.12503277  1
  Ba  Ba17  1  -0.00059221  0.82128667  0.88204185  1
  Ba  Ba18  1  0.66549970  0.16222668  0.87372959  1
  Ba  Ba19  1  0.50407008  0.33747956  0.12067918  1
  Ba  Ba20  1  0.83636511  0.00628050  0.62400855  1
  Ba  Ba21  1  0.33439782  0.49402876  0.36921539  1
  Ba  Ba22  1  0.49900598  0.67355331  0.12283699  1
  Ba  Ba23  1  0.16823318  0.67588445  0.12601406  1
  Ba  Ba24  1  0.66625976  0.48502666  0.37651462  1
  Ba  Ba25  1  0.99985141  0.50771082  0.12236433  1
  Ba  Ba26  1  1.00489536  0.84480617  0.62746817  1
  Ba  Ba27  1  0.32993570  0.17696141  0.62715686  1
  Ba  Ba28  1  0.67053310  0.16451174  0.37432177  1
  Ba  Ba29  1  0.66315257  0.82936144  0.37637421  1
  Ba  Ba30  1  0.33092299  0.82113979  0.86892850  1
  Ba  Ba31  1  0.49677922  0.32716457  0.87595907  1
  Ba  Ba32  1  1.00095281  0.83897604  0.12783300  1
  Ba  Ba33  1  0.50266300  0.32489096  0.37363945  1
  Ba  Ba34  1  -0.00173319  0.49117064  0.87270955  1
  Ba  Ba35  1  0.33613301  0.50954626  0.12334220  1
  La  La36  1  0.66222312  0.82481809  0.87112597  1
  La  La37  1  1.00624418  0.18828399  0.62428416  1
  La  La38  1  1.00358745  0.18251526  0.12426677  1
  La  La39  1  0.50006685  0.98928957  0.37695388  1
  La  La40  1  0.50283056  0.34511889  0.62347490  1
  La  La41  1  0.49927187  0.68196646  0.62609891  1
  La  La42  1  0.17151721  0.98080593  0.38018565  1
  La  La43  1  0.67378857  0.84971134  0.62818182  1
  La  La44  1  0.83525595  0.98551728  0.87478316  1
  La  La45  1  0.83959779  0.64869975  0.37295337  1
  La  La46  1  0.49883066  0.01545382  0.62253189  1
  La  La47  1  0.17144134  0.31984765  0.37587205  1
  La  La48  1  0.83380315  0.98268659  0.37371645  1
  La  La49  1  0.32776012  0.15065841  0.38087039  1
  La  La50  1  -0.00950294  0.15269120  0.37814176  1
  La  La51  1  -0.00413820  0.48946760  0.37220298  1
  La  La52  1  0.16252162  0.68144180  0.62059852  1
  La  La53  1  1.00258550  0.51570670  0.62354584  1
  La  La54  1  0.32799780  0.49161558  0.87980378  1
  La  La55  1  0.67434133  0.51357745  0.12671834  1
  La  La56  1  0.33250776  0.85154825  0.62308813  1
  La  La57  1  0.83916924  0.65012260  0.87684757  1
  La  La58  1  0.15693226  0.01902217  0.62809243  1
  La  La59  1  0.83632303  0.31994607  0.87445099  1
  La  La60  1  0.34235592  0.84048479  0.11993752  1
  La  La61  1  0.15938150  0.34858890  0.12282814  1
  La  La62  1  0.16048174  0.35356424  0.62706425  1
  La  La63  1  0.33744528  0.51503767  0.62498800  1
  La  La64  1  0.67340279  0.50650814  0.62042326  1
  La  La65  1  0.17253240  0.98236489  0.87509751  1
  La  La66  1  0.83212837  0.67830699  0.12353074  1
  La  La67  1  0.17292197  0.31976758  0.87360740  1
  La  La68  1  0.15843423  0.00727638  0.12312243  1
  La  La69  1  0.66684878  0.48747235  0.87540875  1
  La  La70  1  0.50946877  0.64797515  0.36868313  1
  La  La71  1  0.34287659  0.18055265  0.12898226  1
  In  In72  1  0.83613003  0.16573636  0.24918946  1
  In  In73  1  0.83349940  0.82952387  0.75146102  1
  In  In74  1  -0.00153153  0.33589764  -0.00240390  1
  In  In75  1  0.83267266  0.82853516  0.50243048  1
  In  In76  1  0.66524657  0.66356548  0.75142888  1
  In  In77  1  0.66646339  0.00268988  0.75048449  1
  In  In78  1  0.66754949  0.33475502  0.75003958  1
  In  In79  1  0.33158821  0.00250871  0.74867280  1
  In  In80  1  0.16866248  0.16491399  0.00493539  1
  In  In81  1  0.33599015  0.66829629  0.50081564  1
  In  In82  1  0.66676942  0.00063994  -0.00187561  1
  In  In83  1  0.66622534  0.00456630  0.49997725  1
  In  In84  1  0.49800831  0.16552936  -0.00227574  1
  In  In85  1  0.49933320  0.83438086  0.24904380  1
  In  In86  1  0.16755227  0.16502711  0.25073688  1
  In  In87  1  0.33566655  0.66842356  0.24996548  1
  In  In88  1  0.50483174  0.50035028  -0.00226224  1
  In  In89  1  -0.00263897  0.00147059  -0.00054016  1
  In  In90  1  0.50219297  0.49592242  0.24585775  1
  In  In91  1  0.00269565  0.33193990  0.25353765  1
  In  In92  1  0.32869079  0.00240387  0.24861779  1
  In  In93  1  0.00056903  0.66526089  0.75129100  1
  In  In94  1  0.00047003  -0.00019530  0.25078893  1
  In  In95  1  0.33293132  0.33607841  0.74594069  1
  In  In96  1  0.66538166  0.00457210  0.25146380  1
  In  In97  1  0.00044562  0.66468541  0.24756398  1
  In  In98  1  0.33074217  0.33524372  0.00261758  1
  In  In99  1  0.16808529  0.50048485  0.49598312  1
  In  In100  1  0.83794397  0.16638835  0.74755097  1
  In  In101  1  0.16744412  0.83251798  0.74933412  1
  In  In102  1  0.00269032  0.00085557  0.50026763  1
  In  In103  1  0.33062634  0.33355220  0.50172472  1
  In  In104  1  0.66518924  0.66625430  0.49944942  1
  In  In105  1  0.50099982  0.50091257  0.50440589  1
  In  In106  1  0.33348328  0.66663813  -0.00213556  1
  In  In107  1  0.49734661  0.83349501  0.50142220  1
  Ir  Ir108  1  0.66482463  0.32923718  0.50001208  1
  Ir  Ir109  1  0.83120943  0.82764985  0.25026818  1
  Ir  Ir110  1  0.16807426  0.83493672  0.25083459  1
  Ir  Ir111  1  0.49986065  0.82996625  0.74752823  1
  Ir  Ir112  1  0.16490793  0.49696082  0.24707737  1
  Ir  Ir113  1  -0.00244187  0.66480009  -0.00014014  1
  Ir  Ir114  1  0.00352515  0.00316661  0.75359710  1
  Ir  Ir115  1  0.83005785  0.50281132  -0.00026959  1
  Ir  Ir116  1  0.16117614  0.16948002  0.50105053  1
  Ir  Ir117  1  0.49310294  0.17162681  0.25526276  1
  Ir  Ir118  1  0.49867279  0.16842502  0.74460608  1
  Ir  Ir119  1  0.83408513  0.49804748  0.74929023  1
  Ir  Ir120  1  0.67382074  0.33732248  0.00087868  1
  Ir  Ir121  1  0.49486152  0.16929791  0.50010046  1
  Ir  Ir122  1  0.16960912  0.50085856  0.75034593  1
  Ir  Ir123  1  0.83829694  0.49640344  0.50120833  1
  Ir  Ir124  1  0.50138580  0.83306079  -0.00702077  1
  Ir  Ir125  1  0.00442292  0.33717426  0.50367579  1
  Ir  Ir126  1  0.16815724  0.83361540  0.00441125  1
  Ir  Ir127  1  0.67315340  0.66931292  -0.00060676  1
  Ir  Ir128  1  0.83495530  0.16832763  -0.00212246  1
  Ir  Ir129  1  0.83223166  0.50045444  0.25070842  1
  Ir  Ir130  1  0.00093966  0.66234660  0.49911841  1
  Ir  Ir131  1  0.50201502  0.49980195  0.74886781  1
  Ir  Ir132  1  0.83009443  0.82960617  0.00058807  1
  Ir  Ir133  1  0.16911537  0.83304555  0.49954176  1
  Ir  Ir134  1  0.32902022  0.33096547  0.25305250  1
  Ir  Ir135  1  0.00383441  0.33748378  0.74814852  1
  Ir  Ir136  1  0.33322003  0.66102965  0.74522078  1
  Ir  Ir137  1  0.16189966  0.16883693  0.74870660  1
  Ir  Ir138  1  0.67302983  0.66647425  0.24859996  1
  Ir  Ir139  1  0.16380340  0.50119211  -0.00364556  1
  Ir  Ir140  1  0.32816571  0.00513676  0.50226684  1
  Ir  Ir141  1  0.66718059  0.33266874  0.24845591  1
  Ir  Ir142  1  0.32554041  -0.00595729  0.00144030  1
  Ir  Ir143  1  0.83830073  0.16991078  0.49978189  1
  O  O144  1  0.29641080  0.32018322  0.13298001  1
  O  O145  1  0.29355482  0.33146032  0.62576976  1
  O  O146  1  0.31709729  0.66911417  0.12316295  1
  O  O147  1  0.29968048  0.65214084  0.62941663  1
  O  O148  1  0.29506113  0.98564678  0.12015466  1
  O  O149  1  0.29464643  0.99986147  0.62083650  1
  O  O150  1  0.65111156  0.33826189  0.12468994  1
  O  O151  1  0.64183628  0.33468442  0.62135010  1
  O  O152  1  0.64796850  0.65485824  0.12332930  1
  O  O153  1  0.63486764  0.64276800  0.62783443  1
  O  O154  1  0.65190450  0.99942020  0.12400019  1
  O  O155  1  0.63287193  0.99173898  0.62572948  1
  O  O156  1  0.98076481  0.32748226  0.12558890  1
  O  O157  1  0.98027876  0.32739013  0.62529954  1
  O  O158  1  0.97034924  0.66616773  0.12033105  1
  O  O159  1  0.98399245  0.65772051  0.61980363  1
  O  O160  1  0.98083539  0.99140635  0.12480613  1
  O  O161  1  0.98787665  1.00042351  0.63294496  1
  O  O162  1  0.21065884  0.14416241  0.12796894  1
  O  O163  1  0.18308437  0.15490426  0.62480004  1
  O  O164  1  0.18840273  0.48525674  0.12132599  1
  O  O165  1  0.19808093  0.48975611  0.63155907  1
  O  O166  1  0.19953040  0.83509932  0.12835532  1
  O  O167  1  0.19517983  0.82216333  0.61969311  1
  O  O168  1  0.51061880  0.16619178  0.13486705  1
  O  O169  1  0.52012564  0.15344223  0.62122322  1
  O  O170  1  0.53890003  0.49817164  0.12235089  1
  O  O171  1  0.53835125  0.48850510  0.63300829  1
  O  O172  1  0.51782236  0.83340454  0.11237228  1
  O  O173  1  0.53387745  0.82330482  0.62997849  1
  O  O174  1  0.86761477  0.16213741  0.11822040  1
  O  O175  1  0.86930117  0.16801522  0.61848374  1
  O  O176  1  0.85259141  0.50212860  0.12532695  1
  O  O177  1  0.86691191  0.49418311  0.62557410  1
  O  O178  1  0.85491668  0.81761335  0.12477708  1
  O  O179  1  0.86029087  0.82591440  0.62687478  1
  O  O180  1  0.12802500  0.18294679  0.38263556  1
  O  O181  1  0.14625360  0.17886350  0.86953149  1
  O  O182  1  0.13467626  0.50076799  0.36746768  1
  O  O183  1  0.14434677  0.50969254  0.87365370  1
  O  O184  1  0.14234940  0.84422787  0.37472573  1
  O  O185  1  0.14984780  0.84193095  0.88109574  1
  O  O186  1  0.46326099  0.17541700  0.37873009  1
  O  O187  1  0.47715239  0.17201493  0.86404414  1
  O  O188  1  0.48555895  0.50744820  0.37520577  1
  O  O189  1  0.46632688  0.50040981  0.86476941  1
  O  O190  1  0.47685686  0.85082932  0.37620698  1
  O  O191  1  0.47688307  0.83277581  0.86976043  1
  O  O192  1  0.82252124  0.17551152  0.38229731  1
  O  O193  1  0.81671451  0.18236387  0.87822633  1
  O  O194  1  0.81317389  0.51004061  0.37590805  1
  O  O195  1  0.80267174  0.51051311  0.87532752  1
  O  O196  1  0.81398905  0.83429091  0.37085308  1
  O  O197  1  0.80162394  0.83998216  0.88122650  1
  O  O198  1  0.03921883  0.01588646  0.37617751  1
  O  O199  1  0.03591955  0.00370670  0.87246820  1
  O  O200  1  0.03425804  0.34824075  0.38295220  1
  O  O201  1  0.03381842  0.33524600  0.86801538  1
  O  O202  1  0.01386402  0.65762341  0.37865190  1
  O  O203  1  0.01659742  0.66142708  0.88049739  1
  O  O204  1  0.36174799  0.00815501  0.38288531  1
  O  O205  1  0.34488364  -0.00153191  0.87986732  1
  O  O206  1  0.35141246  0.33828333  0.37231575  1
  O  O207  1  0.34649590  0.35079830  0.87096208  1
  O  O208  1  0.37184105  0.66980158  0.37695731  1
  O  O209  1  0.34832774  0.66106584  0.86544828  1
  O  O210  1  0.69948973  0.00515111  0.37638615  1
  O  O211  1  0.69903767  -0.00365283  0.87500119  1
  O  O212  1  0.68473856  0.32692637  0.37405695  1
  O  O213  1  0.70152144  0.34571611  0.88122596  1
  O  O214  1  0.70412469  0.67056281  0.36767851  1
  O  O215  1  0.70297104  0.68089889  0.88037744  1
  O  O216  1  0.07008803  0.09732003  0.02942738  1
  O  O217  1  0.06822366  0.10401258  0.52712520  1
  O  O218  1  0.07831017  0.42753249  0.01511190  1
  O  O219  1  0.06804718  0.43144487  0.53044022  1
  O  O220  1  0.07330393  0.75953300  0.02032769  1
  O  O221  1  0.07409459  0.75762301  0.52089372  1
  O  O222  1  0.39097024  0.08646348  0.02459812  1
  O  O223  1  0.39525040  0.10430921  0.51293353  1
  O  O224  1  0.41113340  0.42307852  0.01382094  1
  O  O225  1  0.40473610  0.42834657  0.53164519  1
  O  O226  1  0.40998968  0.76530633  0.01169891  1
  O  O227  1  0.39945577  0.76800472  0.53692395  1
  O  O228  1  0.74761386  0.09896022  0.01091890  1
  O  O229  1  0.74903025  0.09935988  0.51799913  1
  O  O230  1  0.73565409  0.43802588  0.02120982  1
  O  O231  1  0.73676239  0.42692473  0.52113427  1
  O  O232  1  0.74527810  0.75459099  0.02803393  1
  O  O233  1  0.72945978  0.76242582  0.52873974  1
  O  O234  1  0.09240071  0.25989868  0.02978055  1
  O  O235  1  0.09867981  0.26766172  0.53031212  1
  O  O236  1  0.09213368  0.59412775  0.01937471  1
  O  O237  1  0.09526283  0.59595423  0.52586641  1
  O  O238  1  0.10265279  0.92848493  0.01808493  1
  O  O239  1  0.10651054  0.93176950  0.51971180  1
  O  O240  1  0.41522199  0.24825284  0.01840589  1
  O  O241  1  0.43380406  0.26551184  0.52637548  1
  O  O242  1  0.42779056  0.59142569  0.00946221  1
  O  O243  1  0.43064984  0.59644072  0.53850692  1
  O  O244  1  0.41963986  0.92120277  0.02295424  1
  O  O245  1  0.41992318  0.93836960  0.53256472  1
  O  O246  1  0.76723031  0.26539438  0.01566629  1
  O  O247  1  0.76357212  0.26109445  0.51759041  1
  O  O248  1  0.76349974  0.59792429  0.02654181  1
  O  O249  1  0.76340464  0.58184934  0.51921813  1
  O  O250  1  0.76229949  0.91835233  0.01622854  1
  O  O251  1  0.75332031  0.92131550  0.52079928  1
  O  O252  1  0.23652806  0.07205976  0.29165123  1
  O  O253  1  0.22463012  0.07102803  0.76779484  1
  O  O254  1  0.23177621  0.39815239  0.27234060  1
  O  O255  1  0.23001386  0.40730890  0.77606002  1
  O  O256  1  0.23775566  0.74619550  0.26906032  1
  O  O257  1  0.24173517  0.72994328  0.75734621  1
  O  O258  1  0.55778554  0.07915292  0.27922258  1
  O  O259  1  0.56606831  0.07648858  0.76076482  1
  O  O260  1  0.57849112  0.40214292  0.26277539  1
  O  O261  1  0.57245524  0.41123330  0.77283869  1
  O  O262  1  0.57842218  0.73362371  0.27177337  1
  O  O263  1  0.56583650  0.73853763  0.76472897  1
  O  O264  1  0.90523076  0.06754310  0.28711064  1
  O  O265  1  0.90886997  0.06658890  0.77673272  1
  O  O266  1  0.90984986  0.41505608  0.27298463  1
  O  O267  1  0.90355907  0.40076348  0.77412017  1
  O  O268  1  0.89715522  0.73183106  0.26683866  1
  O  O269  1  0.90029597  0.73057678  0.77836671  1
  O  O270  1  0.26404197  0.23908544  0.28260529  1
  O  O271  1  0.25100971  0.24068973  0.76922588  1
  O  O272  1  0.25092793  0.57037359  0.26153184  1
  O  O273  1  0.27306939  0.55921712  0.76717887  1
  O  O274  1  0.25093063  0.90957313  0.27329029  1
  O  O275  1  0.26146560  0.90564941  0.75816414  1
  O  O276  1  0.59362946  0.23881272  0.26393980  1
  O  O277  1  0.58649091  0.24162173  0.76085422  1
  O  O278  1  0.60172378  0.58005531  0.26779122  1
  O  O279  1  0.59449198  0.56490900  0.78067754  1
  O  O280  1  0.58331023  0.91823777  0.27011590  1
  O  O281  1  0.59248302  0.89620737  0.77055339  1
  O  O282  1  0.93988562  0.22953950  0.26880404  1
  O  O283  1  0.93571583  0.24504993  0.76269183  1
  O  O284  1  0.92354645  0.56934183  0.27529480  1
  O  O285  1  0.92654100  0.56631782  0.75914968  1
  O  O286  1  0.91854744  0.90247615  0.27103941  1
  O  O287  1  0.93121462  0.91432969  0.77602841  1
  O  O288  1  0.25627450  0.23241483  0.47361269  1
  O  O289  1  0.25048443  0.24844196  0.97659814  1
  O  O290  1  0.26641620  0.56739431  0.48875742  1
  O  O291  1  0.25759815  0.56693497  0.97863036  1
  O  O292  1  0.26389219  0.90478116  0.48485692  1
  O  O293  1  0.25870128  0.90202661  0.97844442  1
  O  O294  1  0.59325357  0.23358963  0.48614967  1
  O  O295  1  0.59767834  0.25138525  0.98639420  1
  O  O296  1  0.59552841  0.57148279  0.47867296  1
  O  O297  1  0.60843995  0.57617061  0.97399416  1
  O  O298  1  0.58264051  0.91635464  0.48145402  1
  O  O299  1  0.59192661  0.90139410  0.97182041  1
  O  O300  1  0.94017349  0.23742215  0.48152397  1
  O  O301  1  0.92261028  0.24080249  0.98095393  1
  O  O302  1  0.93678119  0.56307011  0.48034462  1
  O  O303  1  0.92086048  0.57673651  0.97483667  1
  O  O304  1  0.92084627  0.91474328  0.47721725  1
  O  O305  1  0.91475839  0.90682326  0.97679338  1
  O  O306  1  0.22828540  0.07219672  0.47584281  1
  O  O307  1  0.23078651  0.05836305  0.97797338  1
  O  O308  1  0.22449304  0.39398928  0.48148318  1
  O  O309  1  0.23156880  0.41022639  0.97509194  1
  O  O310  1  0.23329135  0.73867263  0.48662689  1
  O  O311  1  0.23833917  0.74560464  0.98643829  1
  O  O312  1  0.55595377  0.07260364  0.48129753  1
  O  O313  1  0.57209488  0.07629799  0.98228655  1
  O  O314  1  0.57280265  0.39703403  0.49263738  1
  O  O315  1  0.58849559  0.41117795  0.97221899  1
  O  O316  1  0.55803960  0.72787527  0.47918806  1
  O  O317  1  0.58418147  0.74771479  0.96774040  1
  O  O318  1  0.90622199  0.07836500  0.47495361  1
  O  O319  1  0.89728927  0.07277930  0.97148750  1
  O  O320  1  0.91678215  0.41127328  0.47573900  1
  O  O321  1  0.89678802  0.40890818  0.97473087  1
  O  O322  1  0.90263507  0.72453022  0.47604826  1
  O  O323  1  0.89809966  0.73188804  0.97949622  1
  O  O324  1  0.10455188  0.26565364  0.22308620  1
  O  O325  1  0.09887727  0.26862978  0.72318404  1
  O  O326  1  0.09273441  0.58535473  0.22984972  1
  O  O327  1  0.10140411  0.59117276  0.72061127  1
  O  O328  1  0.10235293  0.92950764  0.23145818  1
  O  O329  1  0.10048765  0.93868761  0.73306008  1
  O  O330  1  0.41977756  0.26136850  0.22677830  1
  O  O331  1  0.43289739  0.26303669  0.72164992  1
  O  O332  1  0.43002711  0.59131285  0.23841894  1
  O  O333  1  0.43206574  0.59418739  0.71941089  1
  O  O334  1  0.41613018  0.92617074  0.22670484  1
  O  O335  1  0.42978277  0.92162484  0.71948937  1
  O  O336  1  0.75794142  0.26370194  0.23747476  1
  O  O337  1  0.76569951  0.26583671  0.74505945  1
  O  O338  1  0.76519288  0.59495888  0.22300600  1
  O  O339  1  0.76462821  0.58853764  0.73550814  1
  O  O340  1  0.76286208  0.91790623  0.24172808  1
  O  O341  1  0.75626543  0.92162250  0.72937201  1
  O  O342  1  0.06937996  0.09984724  0.21834180  1
  O  O343  1  0.06763381  0.10055509  0.72392611  1
  O  O344  1  0.07851903  0.42590255  0.23002246  1
  O  O345  1  0.07174638  0.43507040  0.72241691  1
  O  O346  1  0.07871118  0.76083127  0.23977739  1
  O  O347  1  0.07882408  0.75489349  0.73172596  1
  O  O348  1  0.39590095  0.10837172  0.24001730  1
  O  O349  1  0.41184210  0.09083173  0.72664268  1
  O  O350  1  0.40133245  0.41695136  0.22941753  1
  O  O351  1  0.41217872  0.43123487  0.71611432  1
  O  O352  1  0.40390164  0.76698989  0.22275022  1
  O  O353  1  0.40096397  0.75895191  0.71881419  1
  O  O354  1  0.74297113  0.09431551  0.23340294  1
  O  O355  1  0.74448539  0.09348796  0.73343950  1
  O  O356  1  0.73452467  0.43209844  0.22922149  1
  O  O357  1  0.73578081  0.43779939  0.73185405  1
  O  O358  1  0.74538823  0.75213634  0.22247420  1
  O  O359  1  0.72677356  0.76558791  0.73140211  1
