# generated using pymatgen
data_BaLaInIrO6
_symmetry_space_group_name_H-M   'P 1'
_cell_length_a   17.50707444
_cell_length_b   17.53544655
_cell_length_c   16.49587281
_cell_angle_alpha   90.04289236
_cell_angle_beta   90.01987946
_cell_angle_gamma   90.04220473
_symmetry_Int_Tables_number   1
_chemical_formula_structural   BaLaInIrO6
_chemical_formula_sum   'Ba36 La36 In36 Ir36 O216'
_cell_volume   5064.13695123
_cell_formula_units_Z   36
loop_
 _symmetry_equiv_pos_site_id
 _symmetry_equiv_pos_as_xyz
  1  'x, y, z'
loop_
 _atom_site_type_symbol
 _atom_site_label
 _atom_site_symmetry_multiplicity
 _atom_site_fract_x
 _atom_site_fract_y
 _atom_site_fract_z
 _atom_site_occupancy
  Ba  Ba0  1  0.49596646  0.34047787  0.12512725  1
  Ba  Ba1  1  0.83487576  0.67509074  0.62678565  1
  Ba  Ba2  1  0.00184034  0.82756895  0.87798760  1
  Ba  Ba3  1  0.83394931  0.32407722  0.87221580  1
  Ba  Ba4  1  0.66882796  0.84812905  0.12796539  1
  Ba  Ba5  1  0.33075022  0.82251967  0.37162817  1
  Ba  Ba6  1  0.16890745  0.99112127  0.37020533  1
  Ba  Ba7  1  0.66758037  0.84452657  0.62366169  1
  Ba  Ba8  1  0.50283705  0.34304036  0.63064956  1
  Ba  Ba9  1  0.16534037  0.01109290  0.12536656  1
  Ba  Ba10  1  0.33718484  0.84724574  0.62374954  1
  Ba  Ba11  1  -0.00109011  0.15897062  0.37473311  1
  Ba  Ba12  1  0.66379243  0.82747226  0.87440546  1
  Ba  Ba13  1  0.66338951  0.15798481  0.86975604  1
  Ba  Ba14  1  0.82775178  0.01060792  0.62203592  1
  Ba  Ba15  1  0.33279942  0.17076726  0.12394362  1
  Ba  Ba16  1  0.83574338  0.99354798  0.37397546  1
  Ba  Ba17  1  1.00089944  0.84684752  0.12549558  1
  Ba  Ba18  1  0.99707754  0.50844371  0.12730428  1
  Ba  Ba19  1  0.66688583  0.50720842  0.62931899  1
  Ba  Ba20  1  0.50131715  0.32145724  0.87156078  1
  Ba  Ba21  1  0.16536096  0.32763045  0.87433614  1
  Ba  Ba22  1  1.00099238  0.50400654  0.62816492  1
  Ba  Ba23  1  0.33351451  0.48887946  0.37429525  1
  Ba  Ba24  1  0.16782798  0.99456818  0.87305175  1
  Ba  Ba25  1  0.16711826  0.34017773  0.62443340  1
  Ba  Ba26  1  0.83214390  0.01136239  0.12318571  1
  Ba  Ba27  1  0.00154174  0.49316950  0.87401302  1
  Ba  Ba28  1  0.66880995  0.82413869  0.37535928  1
  Ba  Ba29  1  0.82942663  0.66170906  0.37579276  1
  Ba  Ba30  1  0.83451773  0.32054025  0.37243620  1
  Ba  Ba31  1  0.16721146  0.67232896  0.62448109  1
  Ba  Ba32  1  0.50326866  0.99620892  0.87448041  1
  Ba  Ba33  1  0.66917371  0.17615252  0.62631687  1
  Ba  Ba34  1  0.16392692  0.32570811  0.37756712  1
  Ba  Ba35  1  0.33542254  0.48828947  0.87588562  1
  La  La36  1  0.16739262  0.33950194  0.12602759  1
  La  La37  1  0.16351601  0.01233149  0.62252849  1
  La  La38  1  0.33623230  0.51277416  0.12479573  1
  La  La39  1  0.66103817  0.48859571  0.37682872  1
  La  La40  1  0.50692135  0.98409765  0.37347413  1
  La  La41  1  0.66770387  0.14673400  0.37364220  1
  La  La42  1  0.16946899  0.64857135  0.87479568  1
  La  La43  1  0.50012903  0.02079550  0.62629460  1
  La  La44  1  0.67265240  0.51438485  0.12498178  1
  La  La45  1  0.82709650  0.68400409  0.12313782  1
  La  La46  1  -0.00538286  0.48510070  0.37829527  1
  La  La47  1  0.67226454  0.17625020  0.12254831  1
  La  La48  1  1.00482559  0.17618114  0.12824781  1
  La  La49  1  0.99740090  0.17886836  0.62230014  1
  La  La50  1  0.49915634  0.01331419  0.12183965  1
  La  La51  1  0.65894522  0.48068153  0.87766457  1
  La  La52  1  -0.00787928  0.82307908  0.37954354  1
  La  La53  1  0.32881972  0.15562921  0.37678888  1
  La  La54  1  0.50447364  0.31450800  0.37839281  1
  La  La55  1  0.83445322  0.98601311  0.87293807  1
  La  La56  1  0.33336153  0.16124752  0.87054979  1
  La  La57  1  1.00546616  0.84821578  0.62208156  1
  La  La58  1  0.49247243  0.68110503  0.62374039  1
  La  La59  1  0.83579186  0.65466761  0.87548736  1
  La  La60  1  0.50576079  0.64874022  0.87188080  1
  La  La61  1  0.82881207  0.34414758  0.12440314  1
  La  La62  1  0.49271047  0.68461523  0.12890137  1
  La  La63  1  -0.00907830  0.15487561  0.87448056  1
  La  La64  1  0.50674135  0.65088942  0.37823819  1
  La  La65  1  0.16796885  0.65336130  0.37595634  1
  La  La66  1  0.32151671  0.81715488  0.87540182  1
  La  La67  1  0.82414799  0.34752334  0.62589405  1
  La  La68  1  0.33578907  0.18109099  0.62473522  1
  La  La69  1  0.16289957  0.68167907  0.12597040  1
  La  La70  1  0.33466134  0.50853907  0.62905736  1
  La  La71  1  0.33839367  0.85217008  0.12880619  1
  In  In72  1  0.16848373  0.83304617  0.00120962  1
  In  In73  1  0.16791374  0.83422973  0.49762666  1
  In  In74  1  0.33391763  0.33123409  0.00072840  1
  In  In75  1  0.33554765  0.66583836  0.49461789  1
  In  In76  1  0.83209189  0.83395846  -0.00119892  1
  In  In77  1  0.83135856  0.49858209  -0.00070692  1
  In  In78  1  0.66320158  0.66687631  0.24857885  1
  In  In79  1  0.16712935  0.49829039  0.49930063  1
  In  In80  1  0.00026811  0.66969770  0.75087375  1
  In  In81  1  0.33638919  0.66586494  0.75123060  1
  In  In82  1  0.16322226  0.16806721  0.74728591  1
  In  In83  1  0.16472094  0.16870857  -0.00355332  1
  In  In84  1  0.66756011  0.00303606  -0.00080461  1
  In  In85  1  0.50083460  0.16508940  0.25123487  1
  In  In86  1  0.49607961  0.83385415  -0.00229716  1
  In  In87  1  0.33627395  -0.00020926  -0.00408808  1
  In  In88  1  0.33613306  0.66563784  0.00236992  1
  In  In89  1  -0.00387507  0.33260102  0.75095303  1
  In  In90  1  0.16569765  0.49958173  0.24951739  1
  In  In91  1  0.16866319  0.49634542  0.00518988  1
  In  In92  1  0.66661508  0.32903965  0.49805287  1
  In  In93  1  0.66422045  0.33313438  0.24913565  1
  In  In94  1  0.66480695  0.66427738  0.50441545  1
  In  In95  1  -0.00446967  0.33142598  0.50109973  1
  In  In96  1  0.33727327  0.00043985  0.49948337  1
  In  In97  1  0.83329822  0.50402517  0.25094402  1
  In  In98  1  0.49699022  0.83816900  0.75054957  1
  In  In99  1  0.83292896  0.83409459  0.50299577  1
  In  In100  1  0.00118622  0.00295265  0.49901760  1
  In  In101  1  0.49833340  0.49632682  0.50104091  1
  In  In102  1  0.16941513  0.16840123  0.25209796  1
  In  In103  1  0.66254547  0.66681631  0.00008115  1
  In  In104  1  0.16633040  0.83421424  0.74839989  1
  In  In105  1  -0.00020312  0.00320561  -0.00073355  1
  In  In106  1  0.00005303  0.66665736  0.49992281  1
  In  In107  1  0.00061835  0.66607281  0.00220410  1
  Ir  Ir108  1  0.83481448  0.16598118  0.24476818  1
  Ir  Ir109  1  0.83106129  0.16536038  0.49975103  1
  Ir  Ir110  1  0.66700902  0.66537210  0.75380051  1
  Ir  Ir111  1  0.50527426  0.49749776  0.00583665  1
  Ir  Ir112  1  0.33888886  -0.00094774  0.24969741  1
  Ir  Ir113  1  0.49760076  0.83291243  0.25243596  1
  Ir  Ir114  1  0.50106631  0.83569472  0.49856116  1
  Ir  Ir115  1  0.17295462  0.49651510  0.75079163  1
  Ir  Ir116  1  0.83119527  0.83419817  0.75167073  1
  Ir  Ir117  1  0.83220085  0.16378592  0.75111635  1
  Ir  Ir118  1  0.50428209  0.50030066  0.75320611  1
  Ir  Ir119  1  0.83095903  0.49864974  0.49953279  1
  Ir  Ir120  1  0.16628640  0.83147163  0.25010464  1
  Ir  Ir121  1  0.82683412  0.50156008  0.75091315  1
  Ir  Ir122  1  0.66497405  -0.00048584  0.25262348  1
  Ir  Ir123  1  0.66351793  0.33089894  0.00162378  1
  Ir  Ir124  1  0.83415810  0.17068620  -0.00110073  1
  Ir  Ir125  1  0.33720658  0.33131392  0.50058291  1
  Ir  Ir126  1  -0.00412575  0.33001939  0.00371967  1
  Ir  Ir127  1  0.66867242  0.33213548  0.75124939  1
  Ir  Ir128  1  -0.00393744  0.33147318  0.24586705  1
  Ir  Ir129  1  0.66812297  0.00217005  0.74650823  1
  Ir  Ir130  1  0.33495552  0.00570431  0.74755621  1
  Ir  Ir131  1  0.49845534  0.49773983  0.24660114  1
  Ir  Ir132  1  0.66113897  0.00231882  0.49824450  1
  Ir  Ir133  1  0.33353015  0.66702382  0.24939410  1
  Ir  Ir134  1  0.17075555  0.16729955  0.50145054  1
  Ir  Ir135  1  0.33626226  0.33368467  0.25546122  1
  Ir  Ir136  1  0.49845342  0.16818429  0.74701129  1
  Ir  Ir137  1  0.00238565  0.67116758  0.24944823  1
  Ir  Ir138  1  0.33604276  0.33325809  0.74683158  1
  Ir  Ir139  1  -0.00518474  0.00207021  0.74560184  1
  Ir  Ir140  1  0.50370518  0.16850906  -0.00073399  1
  Ir  Ir141  1  0.49699023  0.16664639  0.49927127  1
  Ir  Ir142  1  -0.00000676  0.00075299  0.24951591  1
  Ir  Ir143  1  0.83649588  0.83560853  0.25084734  1
  O  O144  1  0.30723684  0.32541136  0.13602975  1
  O  O145  1  0.31453667  0.31916502  0.62272464  1
  O  O146  1  0.30209057  0.65518093  0.13238383  1
  O  O147  1  0.32411777  0.64743041  0.62386954  1
  O  O148  1  0.31538442  0.99330123  0.13116189  1
  O  O149  1  0.30403573  1.00295464  0.62928199  1
  O  O150  1  0.64472912  0.31418305  0.12148206  1
  O  O151  1  0.65390762  0.33264527  0.62928969  1
  O  O152  1  0.62698060  0.65452047  0.12672469  1
  O  O153  1  0.63032291  0.66281112  0.63424525  1
  O  O154  1  0.63810105  1.00661478  0.13270626  1
  O  O155  1  0.63555809  1.00342400  0.62093282  1
  O  O156  1  0.96531493  0.31924902  0.12510284  1
  O  O157  1  0.96176773  0.32483668  0.62600353  1
  O  O158  1  0.96344834  0.66427084  0.13420364  1
  O  O159  1  0.98417960  0.65461602  0.62714057  1
  O  O160  1  0.98193640  1.00751615  0.13124260  1
  O  O161  1  0.97441565  0.98937133  0.62868502  1
  O  O162  1  0.18243923  0.17718625  0.12624287  1
  O  O163  1  0.19899181  0.15821810  0.62067310  1
  O  O164  1  0.20015611  0.48214732  0.13129804  1
  O  O165  1  0.19719344  0.49641405  0.62951774  1
  O  O166  1  0.20280061  0.82192180  0.13237417  1
  O  O167  1  0.19020157  0.82977035  0.62525629  1
  O  O168  1  0.53203233  0.16214321  0.12134293  1
  O  O169  1  0.52235943  0.16076147  0.62278037  1
  O  O170  1  0.53476013  0.49073305  0.12665999  1
  O  O171  1  0.51726477  0.49953726  0.63293199  1
  O  O172  1  0.52041428  0.82248314  0.13426469  1
  O  O173  1  0.51985212  0.82230977  0.61821713  1
  O  O174  1  0.86645810  0.16788636  0.12124447  1
  O  O175  1  0.86121074  0.16343916  0.62639549  1
  O  O176  1  0.84973674  0.48191809  0.12546865  1
  O  O177  1  0.85322666  0.48787754  0.62462194  1
  O  O178  1  0.85183610  0.82673214  0.13127393  1
  O  O179  1  0.86404116  0.83303537  0.63387739  1
  O  O180  1  0.15101876  0.16902515  0.38078006  1
  O  O181  1  0.12904540  0.16977420  0.87031020  1
  O  O182  1  0.13204645  0.50611251  0.36972295  1
  O  O183  1  0.15583261  0.50437347  0.87353303  1
  O  O184  1  0.13161596  0.83646599  0.36668555  1
  O  O185  1  0.15380455  0.84223972  0.87324373  1
  O  O186  1  0.46603437  0.17133901  0.37998106  1
  O  O187  1  0.47085801  0.16753282  0.87369845  1
  O  O188  1  0.47989375  0.51289577  0.36568714  1
  O  O189  1  0.48400391  0.50881712  0.88068653  1
  O  O190  1  0.47835810  0.84938555  0.37657820  1
  O  O191  1  0.45669111  0.84288377  0.87359079  1
  O  O192  1  0.80249498  0.16678155  0.37312658  1
  O  O193  1  0.80863372  0.17185469  0.87590734  1
  O  O194  1  0.80004730  0.50199150  0.37910850  1
  O  O195  1  0.79588075  0.50765287  0.87096964  1
  O  O196  1  0.82037849  0.83715078  0.36903436  1
  O  O197  1  0.80956949  0.84461590  0.86869748  1
  O  O198  1  0.01784085  0.00073326  0.36876174  1
  O  O199  1  0.01609456  0.01555905  0.86407486  1
  O  O200  1  0.01280089  0.34009729  0.36803499  1
  O  O201  1  0.01281125  0.32977951  0.88237845  1
  O  O202  1  0.03464637  0.68252169  0.36534429  1
  O  O203  1  0.03611781  0.66878698  0.87417974  1
  O  O204  1  0.36943619  0.01322782  0.37023364  1
  O  O205  1  0.35671395  0.02111724  0.86610668  1
  O  O206  1  0.36953674  0.33630427  0.37946331  1
  O  O207  1  0.35306258  0.33502367  0.86743201  1
  O  O208  1  0.37179758  0.66908109  0.36547354  1
  O  O209  1  0.37174271  0.67636416  0.87723328  1
  O  O210  1  0.68574538  0.00721844  0.37548304  1
  O  O211  1  0.69445124  0.00361300  0.86659646  1
  O  O212  1  0.68672080  0.34998318  0.37338789  1
  O  O213  1  0.68636696  0.34293862  0.87757700  1
  O  O214  1  0.67455233  0.66167166  0.37354034  1
  O  O215  1  0.69857672  0.66721491  0.87172044  1
  O  O216  1  0.05915078  0.10744273  0.01509636  1
  O  O217  1  0.07858626  0.09893469  0.52863731  1
  O  O218  1  0.06431069  0.42086393  0.01990146  1
  O  O219  1  0.07082038  0.42471854  0.50868212  1
  O  O220  1  0.07897905  0.75507488  0.03069059  1
  O  O221  1  0.06156034  0.77571950  0.51513156  1
  O  O222  1  0.41913259  0.09336774  0.01912060  1
  O  O223  1  0.40456645  0.10140843  0.52760230  1
  O  O224  1  0.40599087  0.43454133  0.02631295  1
  O  O225  1  0.39661971  0.42948477  0.52558390  1
  O  O226  1  0.40065538  0.76319536  0.03718019  1
  O  O227  1  0.41102278  0.76639927  0.51474929  1
  O  O228  1  0.73879362  0.10754792  0.02183414  1
  O  O229  1  0.72838623  0.10002607  0.50573094  1
  O  O230  1  0.72781429  0.42502856  0.02291079  1
  O  O231  1  0.74332431  0.42569023  0.51914089  1
  O  O232  1  0.73998193  0.75667004  0.02417296  1
  O  O233  1  0.74025421  0.75727583  0.51551376  1
  O  O234  1  0.09008964  0.26850864  0.02849727  1
  O  O235  1  0.09182306  0.25051745  0.52000518  1
  O  O236  1  0.10110717  0.59505352  0.02527257  1
  O  O237  1  0.09995540  0.60042047  0.50215958  1
  O  O238  1  0.09555723  0.93037014  0.01337455  1
  O  O239  1  0.09936762  0.93653900  0.52750312  1
  O  O240  1  0.43023528  0.25465560  0.01430242  1
  O  O241  1  0.43409827  0.26435455  0.51642097  1
  O  O242  1  0.44133376  0.59245035  0.02874645  1
  O  O243  1  0.44128286  0.60324220  0.51161946  1
  O  O244  1  0.43086845  0.93221303  0.03465727  1
  O  O245  1  0.44259741  0.93574611  0.51943128  1
  O  O246  1  0.76323544  0.26519174  0.02714105  1
  O  O247  1  0.76695977  0.25970185  0.52053429  1
  O  O248  1  0.75887406  0.59409148  0.03223849  1
  O  O249  1  0.76293832  0.58681464  0.51911376  1
  O  O250  1  0.76215448  0.93290986  0.00813876  1
  O  O251  1  0.75225133  0.93161059  0.51205179  1
  O  O252  1  0.25487061  0.07771887  0.26952752  1
  O  O253  1  0.24473271  0.07583993  0.76568219  1
  O  O254  1  0.24536387  0.39963150  0.26985924  1
  O  O255  1  0.24420005  0.40255677  0.76342116  1
  O  O256  1  0.23398353  0.73418192  0.27338766  1
  O  O257  1  0.23869203  0.73372401  0.78035603  1
  O  O258  1  0.57482227  0.06825420  0.27853112  1
  O  O259  1  0.56892482  0.07266439  0.75817736  1
  O  O260  1  0.55896021  0.40286565  0.27578235  1
  O  O261  1  0.58038980  0.41053073  0.77425498  1
  O  O262  1  0.55709619  0.73425968  0.27153255  1
  O  O263  1  0.57318239  0.73124098  0.77552133  1
  O  O264  1  0.90752315  0.07387832  0.26643422  1
  O  O265  1  0.89987186  0.07040727  0.77581710  1
  O  O266  1  0.91131538  0.40800367  0.26666560  1
  O  O267  1  0.90250956  0.41478994  0.76311037  1
  O  O268  1  0.91371177  0.74712514  0.27566719  1
  O  O269  1  0.89478167  0.74106033  0.77824163  1
  O  O270  1  0.27127618  0.24020691  0.28027845  1
  O  O271  1  0.26898335  0.23753691  0.76375353  1
  O  O272  1  0.26089360  0.58063862  0.27296323  1
  O  O273  1  0.26261775  0.56738491  0.76572599  1
  O  O274  1  0.26286864  0.90755852  0.26689815  1
  O  O275  1  0.27488233  0.90977870  0.77349957  1
  O  O276  1  0.59710832  0.23404611  0.28006625  1
  O  O277  1  0.59165011  0.24250922  0.76611942  1
  O  O278  1  0.59602102  0.55696619  0.26720367  1
  O  O279  1  0.59957450  0.57046508  0.78288840  1
  O  O280  1  0.59081560  0.90748106  0.27508692  1
  O  O281  1  0.59547676  0.91334741  0.76221254  1
  O  O282  1  0.92792953  0.23592553  0.26228876  1
  O  O283  1  0.92636244  0.22764689  0.76856020  1
  O  O284  1  0.93747292  0.57664928  0.27904970  1
  O  O285  1  0.91078270  0.57833704  0.77568488  1
  O  O286  1  0.93242094  0.90474310  0.27228498  1
  O  O287  1  0.92087230  0.91105226  0.77617538  1
  O  O288  1  0.27247202  0.23226059  0.48147278  1
  O  O289  1  0.26657007  0.23323671  0.97017445  1
  O  O290  1  0.26223539  0.57004334  0.48045067  1
  O  O291  1  0.27073772  0.56479712  0.99334860  1
  O  O292  1  0.26238487  0.91043282  0.47912375  1
  O  O293  1  0.27721499  0.89313946  0.98624936  1
  O  O294  1  0.59257769  0.23045752  0.46871167  1
  O  O295  1  0.59681724  0.23800244  0.98307484  1
  O  O296  1  0.59844572  0.56361174  0.47730938  1
  O  O297  1  0.60115321  0.55866359  0.98143036  1
  O  O298  1  0.59290664  0.90835658  0.47773438  1
  O  O299  1  0.59083322  0.90912679  0.98779889  1
  O  O300  1  0.92372908  0.23231319  0.48819255  1
  O  O301  1  0.93373659  0.23095486  0.98216057  1
  O  O302  1  0.92590918  0.56413009  0.47378580  1
  O  O303  1  0.92163445  0.57497159  0.97582308  1
  O  O304  1  0.93291489  0.90308770  0.48462206  1
  O  O305  1  0.92108916  0.91506241  0.98018342  1
  O  O306  1  0.24349034  0.08141245  0.48018369  1
  O  O307  1  0.24450023  0.07556732  0.98392629  1
  O  O308  1  0.24533906  0.39774159  0.48604123  1
  O  O309  1  0.23076039  0.39243340  0.99912526  1
  O  O310  1  0.23478169  0.73258049  0.47096477  1
  O  O311  1  0.23636170  0.73023539  0.97143173  1
  O  O312  1  0.56168420  0.06869523  0.47657060  1
  O  O313  1  0.57348812  0.07965570  0.98686417  1
  O  O314  1  0.56675944  0.39932328  0.47535932  1
  O  O315  1  0.57198901  0.40226801  0.97978041  1
  O  O316  1  0.56074872  0.73669006  0.48073627  1
  O  O317  1  0.55981383  0.72923869  0.97651835  1
  O  O318  1  0.90399283  0.07866520  0.48621811  1
  O  O319  1  0.89669599  0.07782598  0.97054862  1
  O  O320  1  0.90176314  0.41104073  0.48057702  1
  O  O321  1  0.90091816  0.39435983  0.99195288  1
  O  O322  1  0.90928013  0.74188084  0.47734758  1
  O  O323  1  0.89971622  0.73405557  0.97847546  1
  O  O324  1  0.08616908  0.26048790  0.22681081  1
  O  O325  1  0.08168726  0.25196243  0.71726117  1
  O  O326  1  0.09414437  0.60339964  0.22418697  1
  O  O327  1  0.10315816  0.58653893  0.74258196  1
  O  O328  1  0.09445063  0.92945740  0.22929950  1
  O  O329  1  0.09036797  0.93785232  0.72274980  1
  O  O330  1  0.42765695  0.26533698  0.24344196  1
  O  O331  1  0.42432463  0.25766304  0.72583972  1
  O  O332  1  0.42823104  0.59520954  0.21894239  1
  O  O333  1  0.43948375  0.59313304  0.73582467  1
  O  O334  1  0.43281392  0.92889827  0.22572398  1
  O  O335  1  0.43012517  0.94279780  0.72186784  1
  O  O336  1  0.76510678  0.25635693  0.22140260  1
  O  O337  1  0.76535579  0.26250355  0.72722053  1
  O  O338  1  0.76244029  0.59834063  0.21768547  1
  O  O339  1  0.75751892  0.59422052  0.73239870  1
  O  O340  1  0.76207049  0.92665573  0.23151230  1
  O  O341  1  0.76232304  0.93163408  0.73351269  1
  O  O342  1  0.06968125  0.09365950  0.23224754  1
  O  O343  1  0.06460026  0.09063765  0.71546935  1
  O  O344  1  0.07200440  0.41534348  0.22671080  1
  O  O345  1  0.08305278  0.42325227  0.73914425  1
  O  O346  1  0.07841825  0.75839077  0.21979427  1
  O  O347  1  0.06215841  0.77159384  0.72513907  1
  O  O348  1  0.41540405  0.08275953  0.22320178  1
  O  O349  1  0.40277153  0.10160813  0.72130054  1
  O  O350  1  0.40010130  0.43304103  0.22538883  1
  O  O351  1  0.40470432  0.43302748  0.72750807  1
  O  O352  1  0.40247162  0.76378483  0.22340960  1
  O  O353  1  0.41293643  0.75621034  0.72290275  1
  O  O354  1  0.73188995  0.10092940  0.23164854  1
  O  O355  1  0.73964331  0.09342656  0.73128185  1
  O  O356  1  0.73226460  0.43049076  0.22477499  1
  O  O357  1  0.74406934  0.41936484  0.72878461  1
  O  O358  1  0.74893415  0.75970554  0.23216061  1
  O  O359  1  0.73806106  0.76045164  0.72981727  1
