# generated using pymatgen
data_BaLaInIrO6
_symmetry_space_group_name_H-M   'P 1'
_cell_length_a   17.53010524
_cell_length_b   17.55312134
_cell_length_c   16.50311766
_cell_angle_alpha   89.97748714
_cell_angle_beta   90.00591167
_cell_angle_gamma   90.02525964
_symmetry_Int_Tables_number   1
_chemical_formula_structural   BaLaInIrO6
_chemical_formula_sum   'Ba36 La36 In36 Ir36 O216'
_cell_volume   5078.14148146
_cell_formula_units_Z   36
loop_
 _symmetry_equiv_pos_site_id
 _symmetry_equiv_pos_as_xyz
  1  'x, y, z'
loop_
 _atom_site_type_symbol
 _atom_site_label
 _atom_site_symmetry_multiplicity
 _atom_site_fract_x
 _atom_site_fract_y
 _atom_site_fract_z
 _atom_site_occupancy
  Ba  Ba0  1  0.00178979  0.16358978  0.87292567  1
  Ba  Ba1  1  0.66817311  0.82406762  0.37071150  1
  Ba  Ba2  1  0.83423736  0.01141643  0.12432737  1
  Ba  Ba3  1  0.50047198  0.65462449  0.37555703  1
  Ba  Ba4  1  0.32561420  0.82185398  0.87832047  1
  Ba  Ba5  1  0.83473937  0.33940249  0.62510539  1
  Ba  Ba6  1  0.50098624  0.32160207  0.37436840  1
  Ba  Ba7  1  -0.00319774  0.48681392  0.36907174  1
  Ba  Ba8  1  0.33593366  0.18302192  0.12326615  1
  Ba  Ba9  1  0.83272418  0.32634448  0.37521964  1
  Ba  Ba10  1  0.83828911  0.65832285  0.87511572  1
  Ba  Ba11  1  0.66359387  0.17556081  0.12780885  1
  Ba  Ba12  1  0.17182393  0.65029662  0.37192332  1
  Ba  Ba13  1  0.49856581  0.67433382  0.12540643  1
  Ba  Ba14  1  0.16720326  0.32358133  0.37204783  1
  Ba  Ba15  1  0.16502902  0.67536878  0.62179393  1
  Ba  Ba16  1  0.66482485  0.83928214  0.62075949  1
  Ba  Ba17  1  0.83589073  0.99405717  0.37181047  1
  Ba  Ba18  1  0.83506051  0.99171141  0.87912009  1
  Ba  Ba19  1  1.00450154  0.50810199  0.62221981  1
  Ba  Ba20  1  0.66867001  0.50426587  0.12794110  1
  Ba  Ba21  1  0.00297438  0.49231969  0.87701213  1
  Ba  Ba22  1  0.67113400  0.50605265  0.62332614  1
  Ba  Ba23  1  0.33532006  0.50482956  0.62606492  1
  Ba  Ba24  1  0.66574273  0.82502152  0.87594140  1
  Ba  Ba25  1  0.33549176  0.84112619  0.62215496  1
  Ba  Ba26  1  0.33454184  0.50637874  0.12485131  1
  Ba  Ba27  1  0.16171946  0.34144168  0.62143669  1
  Ba  Ba28  1  0.16914031  0.32635648  0.87599050  1
  Ba  Ba29  1  -0.00216231  0.82617367  0.87790869  1
  Ba  Ba30  1  0.16986952  0.98992421  0.37072521  1
  Ba  Ba31  1  0.66934345  0.48493685  0.37255122  1
  Ba  Ba32  1  0.83782165  0.66984223  0.12618577  1
  Ba  Ba33  1  0.82939561  0.00891294  0.62843859  1
  Ba  Ba34  1  0.49440024  0.67627274  0.62245241  1
  Ba  Ba35  1  0.16796081  0.98786025  0.87991553  1
  La  La36  1  0.17157867  0.65041567  0.87569691  1
  La  La37  1  0.49409616  0.01911598  0.12311651  1
  La  La38  1  0.15887558  0.00842415  0.63036901  1
  La  La39  1  0.50373594  0.65291081  0.87229859  1
  La  La40  1  0.33198633  0.48657558  0.37399554  1
  La  La41  1  0.49609700  0.00287686  0.62357792  1
  La  La42  1  0.83999228  0.32416738  0.87821379  1
  La  La43  1  0.83082622  0.34644142  0.12835048  1
  La  La44  1  0.50135674  0.98949192  0.37091056  1
  La  La45  1  0.66383779  0.15404289  0.87513786  1
  La  La46  1  0.16492947  0.34711123  0.12571823  1
  La  La47  1  1.00533662  0.51485868  0.12252445  1
  La  La48  1  0.33640777  0.85311184  0.12786413  1
  La  La49  1  0.15961206  0.68594541  0.12488170  1
  La  La50  1  0.32751599  0.15280238  0.36469567  1
  La  La51  1  0.49393184  0.34705247  0.61965359  1
  La  La52  1  0.82910960  0.67753686  0.62400732  1
  La  La53  1  0.32458640  0.48639225  0.88016404  1
  La  La54  1  -0.00521481  0.16382330  0.37414186  1
  La  La55  1  0.16270170  0.02292684  0.12375483  1
  La  La56  1  1.00518457  0.85326256  0.12477679  1
  La  La57  1  0.32224742  0.14924590  0.87815409  1
  La  La58  1  0.49982785  0.98588260  0.87748488  1
  La  La59  1  1.00339451  0.17897320  0.62132199  1
  La  La60  1  1.00245977  0.84392077  0.62557590  1
  La  La61  1  -0.00749711  0.81612034  0.37651413  1
  La  La62  1  0.66764289  0.48638454  0.87840733  1
  La  La63  1  1.00405394  0.18437587  0.12432065  1
  La  La64  1  0.50119495  0.32448730  0.88454182  1
  La  La65  1  0.83342503  0.65256178  0.37804338  1
  La  La66  1  0.66663586  0.18261841  0.62614910  1
  La  La67  1  0.33668474  0.18051206  0.62133645  1
  La  La68  1  0.66498904  0.16191886  0.37667557  1
  La  La69  1  0.49699764  0.34926334  0.13501587  1
  La  La70  1  0.32757621  0.81484577  0.37524109  1
  La  La71  1  0.67006465  0.84320430  0.12477058  1
  In  In72  1  0.49800225  0.83334582  0.24703606  1
  In  In73  1  0.50133434  0.49607009  0.75377638  1
  In  In74  1  0.17019099  0.49947316  0.74772492  1
  In  In75  1  0.33133149  0.66227578  0.49850831  1
  In  In76  1  0.83673769  0.49761582  0.49996219  1
  In  In77  1  0.16932048  0.16515175  0.49516542  1
  In  In78  1  -0.00095042  0.33460016  0.75110268  1
  In  In79  1  0.49725764  0.16512080  0.75179456  1
  In  In80  1  0.16886612  0.16698829  0.74759941  1
  In  In81  1  0.66319469  0.00084971  0.75036219  1
  In  In82  1  0.33453666  0.66606190  0.75295262  1
  In  In83  1  0.49798544  0.83588079  0.49533907  1
  In  In84  1  0.83588821  0.50040766  0.75122789  1
  In  In85  1  0.82948443  0.16657932  0.50117682  1
  In  In86  1  0.66564484  0.66534322  0.49992943  1
  In  In87  1  0.66773926  0.66533960  0.00138668  1
  In  In88  1  0.66355141  0.00247176  0.00256348  1
  In  In89  1  0.33797707  0.32930224  0.75120057  1
  In  In90  1  -0.00327065  0.00303095  0.74901658  1
  In  In91  1  0.00286680  0.66776508  0.74841297  1
  In  In92  1  0.66730487  0.66337993  0.75198118  1
  In  In93  1  0.66716404  0.32816316  0.00168447  1
  In  In94  1  0.00348591  0.66545367  0.25170179  1
  In  In95  1  0.66496576  0.00243511  0.24998651  1
  In  In96  1  0.00383082  0.00358847  0.25209750  1
  In  In97  1  0.33116585  0.00076323  0.49940440  1
  In  In98  1  0.83589472  0.82956310  0.24903532  1
  In  In99  1  0.16678667  0.83205809  0.75029286  1
  In  In100  1  0.83560547  0.83145697  0.00451272  1
  In  In101  1  0.83340997  0.83700503  0.49979821  1
  In  In102  1  0.00127499  0.00612142  0.00010135  1
  In  In103  1  0.49829097  0.16462438  0.50138604  1
  In  In104  1  0.49710255  0.83291465  0.75268941  1
  In  In105  1  0.33132174  0.66411370  0.24410347  1
  In  In106  1  0.49778396  0.49949958  0.00044405  1
  In  In107  1  0.00131262  0.00110112  0.49791663  1
  Ir  Ir108  1  0.66262776  0.32974046  0.50220693  1
  Ir  Ir109  1  0.17081189  0.50022496  0.00680592  1
  Ir  Ir110  1  -0.00032981  0.33523539  0.00546068  1
  Ir  Ir111  1  0.83572877  0.49611103  0.24582352  1
  Ir  Ir112  1  0.00215829  0.66651477  0.49626020  1
  Ir  Ir113  1  0.33253225  0.00371573  0.24515889  1
  Ir  Ir114  1  0.49484740  0.16769999  0.24928352  1
  Ir  Ir115  1  0.82759403  0.17122751  0.75241410  1
  Ir  Ir116  1  0.32969422  0.00322516  0.74955436  1
  Ir  Ir117  1  0.49376905  0.83427973  0.00301895  1
  Ir  Ir118  1  0.16773478  0.49445120  0.24705225  1
  Ir  Ir119  1  0.49172540  0.16840668  -0.00170186  1
  Ir  Ir120  1  0.16694218  0.49551290  0.49168866  1
  Ir  Ir121  1  0.33179273  0.00151287  0.00311330  1
  Ir  Ir122  1  0.83431880  0.83290373  0.74937820  1
  Ir  Ir123  1  0.83309124  0.17170502  0.24686129  1
  Ir  Ir124  1  0.33439244  0.33331213  0.49454670  1
  Ir  Ir125  1  0.66683930  0.32996403  0.75603597  1
  Ir  Ir126  1  0.33063764  0.66834148  0.00371904  1
  Ir  Ir127  1  0.83388099  0.17376514  0.00291847  1
  Ir  Ir128  1  0.50079070  0.49320129  0.49677664  1
  Ir  Ir129  1  0.66522314  0.32879029  0.25150894  1
  Ir  Ir130  1  0.17104155  0.83308565  0.00863775  1
  Ir  Ir131  1  0.83713738  0.49705575  0.00286701  1
  Ir  Ir132  1  0.66175455  0.00496135  0.49674865  1
  Ir  Ir133  1  0.00219844  0.33082460  0.49351372  1
  Ir  Ir134  1  0.66712148  0.66241686  0.24824483  1
  Ir  Ir135  1  0.16583962  0.17265466  0.24495265  1
  Ir  Ir136  1  0.00795441  0.66610024  0.00393735  1
  Ir  Ir137  1  0.33287160  0.33353039  0.24894058  1
  Ir  Ir138  1  0.50194475  0.49696413  0.25248209  1
  Ir  Ir139  1  0.33691206  0.33260681  0.00469304  1
  Ir  Ir140  1  0.16955138  0.17306363  0.00424997  1
  Ir  Ir141  1  0.16933809  0.83740136  0.24899089  1
  Ir  Ir142  1  0.16414301  0.83429785  0.49436482  1
  Ir  Ir143  1  -0.00193777  0.33338031  0.24558475  1
  O  O144  1  0.30308268  0.33259612  0.12602047  1
  O  O145  1  0.31136239  0.32390022  0.61365894  1
  O  O146  1  0.29449174  0.66017666  0.12075042  1
  O  O147  1  0.31570717  0.65881788  0.62371577  1
  O  O148  1  0.29737169  0.99427187  0.12461851  1
  O  O149  1  0.29753098  0.99857104  0.63045023  1
  O  O150  1  0.63630964  0.33130587  0.13063865  1
  O  O151  1  0.63230721  0.32325608  0.63011419  1
  O  O152  1  0.64569808  0.65545828  0.13022269  1
  O  O153  1  0.64249790  0.66107369  0.62640435  1
  O  O154  1  0.62952400  1.00227318  0.12519921  1
  O  O155  1  0.63294594  0.99822997  0.61857897  1
  O  O156  1  0.96914445  0.32751320  0.12573043  1
  O  O157  1  0.98603138  0.32273880  0.61508400  1
  O  O158  1  0.99210827  0.65800620  0.12381441  1
  O  O159  1  0.97273379  0.66583812  0.61424080  1
  O  O160  1  0.98699852  0.99548233  0.12684085  1
  O  O161  1  0.97780748  0.98141254  0.62349616  1
  O  O162  1  0.19027111  0.17317079  0.12479318  1
  O  O163  1  0.20360096  0.16005178  0.62129980  1
  O  O164  1  0.18770051  0.48628163  0.12791533  1
  O  O165  1  0.18445265  0.49708733  0.61224164  1
  O  O166  1  0.20192875  0.82377904  0.12934223  1
  O  O167  1  0.18589597  0.83246332  0.61363482  1
  O  O168  1  0.51695486  0.15697207  0.12330589  1
  O  O169  1  0.53554768  0.14547923  0.62709110  1
  O  O170  1  0.51973101  0.48955794  0.13047281  1
  O  O171  1  0.52034094  0.48794886  0.61805637  1
  O  O172  1  0.52944994  0.83136673  0.11940315  1
  O  O173  1  0.51270416  0.84752076  0.62398994  1
  O  O174  1  0.86676143  0.17221661  0.12396426  1
  O  O175  1  0.86047344  0.16917074  0.63273193  1
  O  O176  1  0.86700615  0.48473571  0.12332242  1
  O  O177  1  0.85369764  0.49109752  0.62421577  1
  O  O178  1  0.87406480  0.82418985  0.12837439  1
  O  O179  1  0.86300842  0.83077967  0.62822722  1
  O  O180  1  0.13409000  0.16914081  0.36371812  1
  O  O181  1  0.15421448  0.16811211  0.88435209  1
  O  O182  1  0.14543893  0.49189671  0.36706432  1
  O  O183  1  0.15433114  0.50517057  0.88819395  1
  O  O184  1  0.13202092  0.83892570  0.36993907  1
  O  O185  1  0.14939105  0.83582889  0.88957851  1
  O  O186  1  0.46451149  0.16803025  0.36933359  1
  O  O187  1  0.45817047  0.18548266  0.88083757  1
  O  O188  1  0.47093020  0.49375130  0.37420403  1
  O  O189  1  0.45981135  0.49203014  0.87933823  1
  O  O190  1  0.46065338  0.85175169  0.36891103  1
  O  O191  1  0.47016706  0.84926157  0.88640375  1
  O  O192  1  0.80326379  0.17312900  0.36803779  1
  O  O193  1  0.79890112  0.18265761  0.87805997  1
  O  O194  1  0.82186070  0.50759175  0.36772675  1
  O  O195  1  0.80603983  0.49876181  0.88426047  1
  O  O196  1  0.81771761  0.83430853  0.37381857  1
  O  O197  1  0.81782272  0.83109876  0.87112144  1
  O  O198  1  0.02408081  0.02868976  0.37316791  1
  O  O199  1  0.01867741  0.00716237  0.87520889  1
  O  O200  1  0.01903284  0.32521174  0.36763707  1
  O  O201  1  0.01963760  0.33233535  0.88667805  1
  O  O202  1  0.02740730  0.67578877  0.37798115  1
  O  O203  1  0.03511064  0.67073681  0.88536859  1
  O  O204  1  0.36419395  0.01401779  0.36385175  1
  O  O205  1  0.36175668  0.01263162  0.87627362  1
  O  O206  1  0.35499534  0.34778898  0.37038329  1
  O  O207  1  0.36608958  0.34135267  0.88460742  1
  O  O208  1  0.34449212  0.67328988  0.36988400  1
  O  O209  1  0.36435445  0.67157558  0.88873406  1
  O  O210  1  0.68839707  0.02172993  0.37782739  1
  O  O211  1  0.68653429  0.01760867  0.87869587  1
  O  O212  1  0.68529346  0.32037398  0.37731830  1
  O  O213  1  0.70084629  0.33518224  0.87405305  1
  O  O214  1  0.69660148  0.66587751  0.36672434  1
  O  O215  1  0.68986903  0.67044574  0.87778045  1
  O  O216  1  0.07803122  0.10311145  0.03045875  1
  O  O217  1  0.07687369  0.09337059  0.53423233  1
  O  O218  1  0.07459120  0.42695395  0.03367576  1
  O  O219  1  0.07436044  0.42331915  0.50991002  1
  O  O220  1  0.07503873  0.76484970  0.03277838  1
  O  O221  1  0.06472331  0.77024138  0.51582892  1
  O  O222  1  0.39937764  0.09554295  0.01723651  1
  O  O223  1  0.40414160  0.09656074  0.53472975  1
  O  O224  1  0.41123101  0.41544464  0.02946063  1
  O  O225  1  0.40715027  0.42239541  0.51685876  1
  O  O226  1  0.39507845  0.76612787  0.03055629  1
  O  O227  1  0.40047277  0.76219413  0.50029141  1
  O  O228  1  0.74257223  0.10451768  0.01468782  1
  O  O229  1  0.72527355  0.09954767  0.52315976  1
  O  O230  1  0.74940000  0.42439526  0.02035060  1
  O  O231  1  0.73729623  0.41689944  0.51043514  1
  O  O232  1  0.73451011  0.76363847  0.02994876  1
  O  O233  1  0.75207200  0.75245687  0.52450714  1
  O  O234  1  0.09549497  0.26519690  0.03157057  1
  O  O235  1  0.08695811  0.25536021  0.51200800  1
  O  O236  1  0.10405048  0.59547230  0.03011177  1
  O  O237  1  0.09569765  0.58997015  0.51199559  1
  O  O238  1  0.10590592  0.92777897  0.03279035  1
  O  O239  1  0.10394972  0.92865971  0.51955885  1
  O  O240  1  0.43563121  0.26927062  0.02551842  1
  O  O241  1  0.42563167  0.26417462  0.52298510  1
  O  O242  1  0.42061759  0.59792840  0.01831804  1
  O  O243  1  0.42912005  0.58031439  0.50905597  1
  O  O244  1  0.42683029  0.93336946  0.03010224  1
  O  O245  1  0.43407510  0.94220855  0.51300683  1
  O  O246  1  0.76842615  0.26515427  0.02561633  1
  O  O247  1  0.75018778  0.25737471  0.52319731  1
  O  O248  1  0.76696533  0.58405791  0.01938845  1
  O  O249  1  0.76852949  0.59700644  0.51086971  1
  O  O250  1  0.75028503  0.92116734  0.02707704  1
  O  O251  1  0.75228525  0.93544567  0.51399091  1
  O  O252  1  0.23865163  0.07917144  0.26551425  1
  O  O253  1  0.23877865  0.06839674  0.77155744  1
  O  O254  1  0.23443843  0.39717950  0.25896843  1
  O  O255  1  0.25180296  0.41116236  0.77073915  1
  O  O256  1  0.23464515  0.74608093  0.26713540  1
  O  O257  1  0.22969125  0.73214181  0.77649619  1
  O  O258  1  0.56242355  0.07691344  0.27067444  1
  O  O259  1  0.56711367  0.07543878  0.78859285  1
  O  O260  1  0.57123909  0.39923532  0.26541607  1
  O  O261  1  0.57720095  0.39602210  0.78689545  1
  O  O262  1  0.57787756  0.73433538  0.26357000  1
  O  O263  1  0.56634444  0.73371889  0.77765649  1
  O  O264  1  0.90685126  0.08611715  0.26670073  1
  O  O265  1  0.89781791  0.08353682  0.76948322  1
  O  O266  1  0.90046520  0.39783205  0.25839530  1
  O  O267  1  0.90056953  0.39987460  0.77690660  1
  O  O268  1  0.90542959  0.72928721  0.28082479  1
  O  O269  1  0.90286855  0.74326593  0.75858298  1
  O  O270  1  0.26463687  0.23848696  0.27200457  1
  O  O271  1  0.26963768  0.23224448  0.77320550  1
  O  O272  1  0.26345220  0.55749068  0.26943112  1
  O  O273  1  0.26577036  0.56991497  0.78417205  1
  O  O274  1  0.27024833  0.90246967  0.26902056  1
  O  O275  1  0.26426194  0.91116529  0.76647355  1
  O  O276  1  0.59437247  0.23257798  0.27376392  1
  O  O277  1  0.59955104  0.23792877  0.77893993  1
  O  O278  1  0.59426567  0.56799804  0.27151452  1
  O  O279  1  0.59957528  0.56060846  0.78515586  1
  O  O280  1  0.58336543  0.91497712  0.27349966  1
  O  O281  1  0.58331878  0.91468133  0.77762086  1
  O  O282  1  0.93386723  0.23465781  0.26482619  1
  O  O283  1  0.91347529  0.24369502  0.77284890  1
  O  O284  1  0.92863629  0.56473629  0.25116943  1
  O  O285  1  0.93149467  0.57441889  0.76868681  1
  O  O286  1  0.94261971  0.89904764  0.26848496  1
  O  O287  1  0.92062818  0.90473101  0.76519461  1
  O  O288  1  0.27122962  0.23948793  0.47134754  1
  O  O289  1  0.26654612  0.24042488  0.97661830  1
  O  O290  1  0.26041723  0.56147824  0.47208944  1
  O  O291  1  0.26329403  0.57298510  0.97580173  1
  O  O292  1  0.26137275  0.89799494  0.47086710  1
  O  O293  1  0.26773606  0.90302960  0.99543274  1
  O  O294  1  0.59808811  0.23372773  0.48517708  1
  O  O295  1  0.58752574  0.23301965  0.97175555  1
  O  O296  1  0.58915110  0.56315978  0.47977205  1
  O  O297  1  0.59167460  0.57113804  0.97194024  1
  O  O298  1  0.59316842  0.91877322  0.46948336  1
  O  O299  1  0.58141496  0.90628448  0.98313280  1
  O  O300  1  0.93248170  0.23898890  0.48026553  1
  O  O301  1  0.92656224  0.24499696  0.98056226  1
  O  O302  1  0.93142056  0.57951179  0.47352520  1
  O  O303  1  0.94024471  0.56681623  0.99509115  1
  O  O304  1  0.93695270  0.89909175  0.47457436  1
  O  O305  1  0.93009244  0.90809267  0.99487510  1
  O  O306  1  0.24951399  0.08076886  0.46347946  1
  O  O307  1  0.23917628  0.07578224  0.98440787  1
  O  O308  1  0.24530924  0.40965852  0.46860728  1
  O  O309  1  0.24554092  0.40723177  0.98214116  1
  O  O310  1  0.23222241  0.74544118  0.47558760  1
  O  O311  1  0.23059209  0.73058357  0.98666722  1
  O  O312  1  0.57086217  0.07136750  0.46744629  1
  O  O313  1  0.55605655  0.07359444  0.97841601  1
  O  O314  1  0.56827246  0.39740395  0.48904766  1
  O  O315  1  0.57707971  0.40415819  0.97476063  1
  O  O316  1  0.57729956  0.74548039  0.47895984  1
  O  O317  1  0.55638094  0.74057585  0.97827725  1
  O  O318  1  0.90886242  0.08096015  0.48114434  1
  O  O319  1  0.90518695  0.08679502  0.98646271  1
  O  O320  1  0.91532951  0.40305628  0.48174972  1
  O  O321  1  0.90321305  0.40064988  0.98169453  1
  O  O322  1  0.91180253  0.73284308  0.47461528  1
  O  O323  1  0.91742725  0.73351769  0.98586247  1
  O  O324  1  0.09417623  0.26629812  0.21834160  1
  O  O325  1  0.08279121  0.25019870  0.72997692  1
  O  O326  1  0.10248723  0.59066731  0.22568809  1
  O  O327  1  0.10430767  0.60005098  0.74635378  1
  O  O328  1  0.10886558  0.93233229  0.22170500  1
  O  O329  1  0.09720947  0.92896718  0.72729761  1
  O  O330  1  0.43047801  0.26674133  0.22797702  1
  O  O331  1  0.43106719  0.25697107  0.71194374  1
  O  O332  1  0.42953729  0.58536909  0.23684642  1
  O  O333  1  0.43756703  0.59862889  0.74760880  1
  O  O334  1  0.42290135  0.93728322  0.21644690  1
  O  O335  1  0.42695162  0.94538129  0.73452587  1
  O  O336  1  0.76311557  0.26459544  0.22480079  1
  O  O337  1  0.75340335  0.25761927  0.72632633  1
  O  O338  1  0.76766083  0.59280149  0.23809222  1
  O  O339  1  0.76831742  0.59823902  0.72392564  1
  O  O340  1  0.75119076  0.91885534  0.22417051  1
  O  O341  1  0.75978594  0.92151625  0.73732739  1
  O  O342  1  0.07560605  0.10479951  0.21650258  1
  O  O343  1  0.07304082  0.09406456  0.71541693  1
  O  O344  1  0.06764534  0.42822233  0.21980457  1
  O  O345  1  0.07733027  0.42413433  0.73813567  1
  O  O346  1  0.07504280  0.77081556  0.22506844  1
  O  O347  1  0.06393385  0.76973278  0.72586603  1
  O  O348  1  0.40280399  0.09657533  0.22404218  1
  O  O349  1  0.39176768  0.09869760  0.72901508  1
  O  O350  1  0.40893963  0.42275358  0.22932038  1
  O  O351  1  0.41928395  0.41405562  0.72277460  1
  O  O352  1  0.39838770  0.76609388  0.22469878  1
  O  O353  1  0.39984651  0.76610017  0.73943396  1
  O  O354  1  0.74294421  0.10069513  0.23466954  1
  O  O355  1  0.73197148  0.10450270  0.73118914  1
  O  O356  1  0.74320084  0.41819923  0.22838564  1
  O  O357  1  0.73060534  0.42303960  0.74257621  1
  O  O358  1  0.73162058  0.75542055  0.22276533  1
  O  O359  1  0.74967766  0.76139974  0.72726945  1
