# generated using pymatgen
data_BaLaInIrO6
_symmetry_space_group_name_H-M   'P 1'
_cell_length_a   17.50672682
_cell_length_b   17.53421191
_cell_length_c   16.49145777
_cell_angle_alpha   89.97405481
_cell_angle_beta   90.07622089
_cell_angle_gamma   90.02750954
_symmetry_Int_Tables_number   1
_chemical_formula_structural   BaLaInIrO6
_chemical_formula_sum   'Ba36 La36 In36 Ir36 O216'
_cell_volume   5062.32209353
_cell_formula_units_Z   36
loop_
 _symmetry_equiv_pos_site_id
 _symmetry_equiv_pos_as_xyz
  1  'x, y, z'
loop_
 _atom_site_type_symbol
 _atom_site_label
 _atom_site_symmetry_multiplicity
 _atom_site_fract_x
 _atom_site_fract_y
 _atom_site_fract_z
 _atom_site_occupancy
  Ba  Ba0  1  0.16973102  0.65660143  0.37720605  1
  Ba  Ba1  1  0.49800055  0.34743342  0.12355911  1
  Ba  Ba2  1  0.33014865  0.49228240  0.37607212  1
  Ba  Ba3  1  0.83229225  0.99575423  0.87410116  1
  Ba  Ba4  1  0.00207368  0.82062155  0.37637409  1
  Ba  Ba5  1  0.16798946  0.67265015  0.12704248  1
  Ba  Ba6  1  0.33522991  0.51213318  0.12675361  1
  Ba  Ba7  1  0.33305190  0.15435295  0.87541333  1
  Ba  Ba8  1  0.33254166  0.81893519  0.87035420  1
  Ba  Ba9  1  0.83012835  0.67543139  0.12335451  1
  Ba  Ba10  1  0.66339301  0.49248282  0.37504480  1
  Ba  Ba11  1  0.99934279  0.16969691  0.12031163  1
  Ba  Ba12  1  0.67162606  0.84226550  0.12654839  1
  Ba  Ba13  1  0.66077641  0.49218107  0.86966084  1
  Ba  Ba14  1  0.83039548  0.34339452  0.62883653  1
  Ba  Ba15  1  0.50508951  0.65726530  0.38321219  1
  Ba  Ba16  1  0.16629131  0.66071152  0.87795467  1
  Ba  Ba17  1  0.16425432  0.32678278  0.37426161  1
  Ba  Ba18  1  0.82906449  0.67628757  0.62083130  1
  Ba  Ba19  1  0.83169294  0.65654812  0.37159928  1
  Ba  Ba20  1  0.16285972  0.34683539  0.62392231  1
  Ba  Ba21  1  0.83630601  0.32314771  0.37753243  1
  Ba  Ba22  1  0.33753784  0.83998091  0.62468465  1
  Ba  Ba23  1  0.66765731  0.15895892  0.37939790  1
  Ba  Ba24  1  0.83444464  0.00515298  0.12445337  1
  Ba  Ba25  1  0.00233124  0.82811384  0.88015996  1
  Ba  Ba26  1  0.00177996  0.15676626  0.86982597  1
  Ba  Ba27  1  0.49973356  0.65863628  0.87226492  1
  Ba  Ba28  1  0.66497861  0.17417326  0.62661623  1
  Ba  Ba29  1  0.82943234  0.32347550  0.87517237  1
  Ba  Ba30  1  0.50355593  0.32103715  0.87554718  1
  Ba  Ba31  1  0.17151988  0.98723769  0.87724895  1
  Ba  Ba32  1  0.99993995  0.83796336  0.12646277  1
  Ba  Ba33  1  0.66621895  0.83786965  0.62443991  1
  Ba  Ba34  1  0.49937753  0.67831058  0.62897980  1
  Ba  Ba35  1  0.16932416  0.00223085  0.12214089  1
  La  La36  1  0.67249782  0.18142527  0.12669168  1
  La  La37  1  0.66511145  0.51582983  0.62096038  1
  La  La38  1  0.50743230  0.32041417  0.37143756  1
  La  La39  1  0.51002353  0.98385941  0.37436128  1
  La  La40  1  0.83322959  0.01017056  0.62726743  1
  La  La41  1  0.50607508  0.98157443  0.87359090  1
  La  La42  1  0.16941237  0.98920486  0.37228027  1
  La  La43  1  0.16282080  0.68078022  0.62758194  1
  La  La44  1  0.49310933  0.35158034  0.62023740  1
  La  La45  1  0.67316567  0.81879772  0.38033038  1
  La  La46  1  0.66279237  0.81391700  0.87630549  1
  La  La47  1  -0.00521878  0.14798227  0.37649778  1
  La  La48  1  0.33110899  0.49428324  0.87920348  1
  La  La49  1  -0.00260785  0.49008224  0.37301774  1
  La  La50  1  0.33573054  0.84053413  0.11881322  1
  La  La51  1  0.66670714  0.51455140  0.12080796  1
  La  La52  1  0.34044691  0.18256329  0.12347653  1
  La  La53  1  0.49594633  0.01264898  0.62943665  1
  La  La54  1  0.16671509  0.01615880  0.62783125  1
  La  La55  1  1.00052915  0.51683803  0.62001035  1
  La  La56  1  0.33141579  0.15509725  0.37670143  1
  La  La57  1  1.00275617  0.51123032  0.12912832  1
  La  La58  1  0.16708232  0.34652866  0.12119776  1
  La  La59  1  0.83424276  0.98914090  0.37702170  1
  La  La60  1  0.65984598  0.15445261  0.87614179  1
  La  La61  1  0.33797980  0.18415130  0.62740498  1
  La  La62  1  0.49457290  0.68474919  0.12500629  1
  La  La63  1  0.49470064  0.01803206  0.12500738  1
  La  La64  1  0.33356667  0.52011961  0.62238195  1
  La  La65  1  0.83715057  0.65822265  0.87416117  1
  La  La66  1  1.00288291  0.18356096  0.62452210  1
  La  La67  1  0.17157361  0.31681977  0.87618778  1
  La  La68  1  -0.01061022  0.49122022  0.87371360  1
  La  La69  1  0.32892765  0.81582198  0.37603697  1
  La  La70  1  0.82380123  0.34619485  0.12782664  1
  La  La71  1  1.00545740  0.84844804  0.62431889  1
  In  In72  1  0.16207428  0.50196055  0.75122226  1
  In  In73  1  0.16924484  0.16648813  0.25052821  1
  In  In74  1  -0.00134807  0.66989108  0.74970941  1
  In  In75  1  0.17074057  0.83351937  0.25056108  1
  In  In76  1  0.83226343  0.49926546  0.50092233  1
  In  In77  1  0.83455896  0.83413503  0.74931441  1
  In  In78  1  0.33175921  0.33798592  0.74805937  1
  In  In79  1  0.49743867  0.16413715  0.49784505  1
  In  In80  1  0.66220923  0.66723958  0.24782988  1
  In  In81  1  0.66511698  0.00201969  0.24937734  1
  In  In82  1  0.49647724  0.50125355  0.74884098  1
  In  In83  1  0.00032031  0.33792943  0.75050583  1
  In  In84  1  0.33468579  -0.00046187  0.74976101  1
  In  In85  1  0.83466118  0.16532192  0.50224189  1
  In  In86  1  0.83032164  0.50074087  -0.00097795  1
  In  In87  1  0.33519337  0.33284174  0.25443277  1
  In  In88  1  0.66417920  0.33408111  0.50184029  1
  In  In89  1  -0.00076931  0.66659446  0.25012075  1
  In  In90  1  0.83325396  0.16558117  0.25074243  1
  In  In91  1  0.83415492  0.83568388  0.25169087  1
  In  In92  1  0.33861619  0.66574441  0.25154268  1
  In  In93  1  0.00141874  -0.00081578  -0.00081604  1
  In  In94  1  0.66256711  0.33382717  -0.00132398  1
  In  In95  1  0.16713282  0.16750861  0.49792364  1
  In  In96  1  0.83021782  0.83450252  -0.00315563  1
  In  In97  1  -0.00191419  0.32835832  0.24512600  1
  In  In98  1  0.16570102  0.49847682  0.25082296  1
  In  In99  1  0.83311358  0.16720713  0.75104528  1
  In  In100  1  0.66614038  -0.00236800  0.74702318  1
  In  In101  1  0.17194408  0.16421734  0.00313021  1
  In  In102  1  0.34003935  -0.00029780  0.25414866  1
  In  In103  1  0.16938001  0.83739199  0.50357943  1
  In  In104  1  -0.00285842  0.33275647  0.00115951  1
  In  In105  1  0.33575987  0.33520159  -0.00330291  1
  In  In106  1  0.49905858  0.83693096  0.50083966  1
  In  In107  1  0.16142954  0.49921110  -0.00282025  1
  Ir  Ir108  1  0.49878380  0.50555796  0.00194190  1
  Ir  Ir109  1  0.00456972  -0.00199900  0.74358554  1
  Ir  Ir110  1  0.49667008  0.49976598  0.49775582  1
  Ir  Ir111  1  0.50208510  0.16066951  0.00016602  1
  Ir  Ir112  1  0.50311934  0.83333048  0.75418454  1
  Ir  Ir113  1  0.83005040  0.49534357  0.24790664  1
  Ir  Ir114  1  -0.00002906  0.66539746  0.50177217  1
  Ir  Ir115  1  0.65992757  0.33218297  0.74792550  1
  Ir  Ir116  1  0.00357531  0.00026839  0.25671744  1
  Ir  Ir117  1  0.16859734  0.16459018  0.74530818  1
  Ir  Ir118  1  0.33307435  0.66538446  0.50388480  1
  Ir  Ir119  1  0.66597989  0.66839570  0.50233878  1
  Ir  Ir120  1  -0.00070422  0.66576429  -0.00222473  1
  Ir  Ir121  1  0.49979279  0.16574321  0.74990010  1
  Ir  Ir122  1  0.00129418  -0.00113606  0.50430413  1
  Ir  Ir123  1  0.66782292  0.66546288  0.74966203  1
  Ir  Ir124  1  0.33801343  0.66892109  -0.00207802  1
  Ir  Ir125  1  0.66055260  0.66574787  -0.00273603  1
  Ir  Ir126  1  0.33502850  0.33597934  0.50087226  1
  Ir  Ir127  1  0.65976401  0.00262178  0.00015279  1
  Ir  Ir128  1  0.50127231  0.83697388  0.24925934  1
  Ir  Ir129  1  0.82796198  0.16656105  0.00058437  1
  Ir  Ir130  1  0.50438743  0.83547322  0.00112024  1
  Ir  Ir131  1  0.49990344  0.16756874  0.24681504  1
  Ir  Ir132  1  0.16627804  0.50139669  0.50415523  1
  Ir  Ir133  1  0.00194189  0.33521882  0.50022763  1
  Ir  Ir134  1  0.66820050  -0.00407689  0.50141894  1
  Ir  Ir135  1  0.82801441  0.50180261  0.74966652  1
  Ir  Ir136  1  0.17449581  0.82913854  -0.00137606  1
  Ir  Ir137  1  0.83830417  0.83454984  0.50234117  1
  Ir  Ir138  1  0.50322184  0.50050663  0.24882206  1
  Ir  Ir139  1  0.66326443  0.33473673  0.24850218  1
  Ir  Ir140  1  0.34155916  -0.00491841  0.00221433  1
  Ir  Ir141  1  0.33046715  0.66632202  0.75119364  1
  Ir  Ir142  1  0.33675310  0.00328614  0.49915395  1
  Ir  Ir143  1  0.16821438  0.83325179  0.74871159  1
  O  O144  1  0.30779963  0.32260737  0.12353634  1
  O  O145  1  0.31075342  0.32291499  0.61897094  1
  O  O146  1  0.32483534  0.67674556  0.11802793  1
  O  O147  1  0.30145880  0.66127122  0.62775213  1
  O  O148  1  0.32374852  0.98360829  0.12274213  1
  O  O149  1  0.30499716  0.99590431  0.61767381  1
  O  O150  1  0.64548279  0.32184267  0.12891265  1
  O  O151  1  0.62964967  0.32907823  0.62960793  1
  O  O152  1  0.63225788  0.66126932  0.11805000  1
  O  O153  1  0.64689966  0.65828149  0.62614249  1
  O  O154  1  0.63057975  0.99454564  0.12038342  1
  O  O155  1  0.62998889  0.99223724  0.61953549  1
  O  O156  1  0.95469118  0.32281624  0.12314465  1
  O  O157  1  0.98273112  0.32165164  0.61994554  1
  O  O158  1  0.97717848  0.66008526  0.11642472  1
  O  O159  1  0.97742463  0.65946934  0.62019596  1
  O  O160  1  0.98662655  0.99678291  0.13594608  1
  O  O161  1  0.97088542  0.98778532  0.62302857  1
  O  O162  1  0.20807638  0.15493747  0.12755639  1
  O  O163  1  0.19834175  0.15671702  0.62375507  1
  O  O164  1  0.18876509  0.48599644  0.12237636  1
  O  O165  1  0.19743291  0.50133434  0.62250959  1
  O  O166  1  0.20005414  0.83294805  0.11986400  1
  O  O167  1  0.18721021  0.82624070  0.62943558  1
  O  O168  1  0.53425629  0.15518303  0.12387050  1
  O  O169  1  0.51697092  0.15175116  0.62917729  1
  O  O170  1  0.53136264  0.50088166  0.12519140  1
  O  O171  1  0.52616597  0.49144299  0.61687014  1
  O  O172  1  0.52590265  0.82261567  0.12489669  1
  O  O173  1  0.51561502  0.83718476  0.63204342  1
  O  O174  1  0.84716215  0.16583771  0.12014255  1
  O  O175  1  0.86789232  0.15264618  0.62442098  1
  O  O176  1  0.85963994  0.49326372  0.12789635  1
  O  O177  1  0.86022481  0.50038882  0.63088615  1
  O  O178  1  0.84165493  0.83270694  0.12330254  1
  O  O179  1  0.86855842  0.82773229  0.62088576  1
  O  O180  1  0.13156095  0.16910342  0.37679243  1
  O  O181  1  0.15194844  0.17305385  0.86573563  1
  O  O182  1  0.13485179  0.50149129  0.38492132  1
  O  O183  1  0.12438843  0.50930892  0.87468450  1
  O  O184  1  0.15283646  0.84997996  0.38046787  1
  O  O185  1  0.15128632  0.82869537  0.87127545  1
  O  O186  1  0.46752152  0.17725400  0.36765551  1
  O  O187  1  0.48027658  0.16671348  0.87545385  1
  O  O188  1  0.47866718  0.50553322  0.37187809  1
  O  O189  1  0.46930443  0.50516025  0.87942089  1
  O  O190  1  0.46776966  0.84566927  0.36947788  1
  O  O191  1  0.48009797  0.84452889  0.87836311  1
  O  O192  1  0.81783280  0.15539798  0.37757909  1
  O  O193  1  0.79755375  0.16497561  0.88088570  1
  O  O194  1  0.81415952  0.49550147  0.36927225  1
  O  O195  1  0.80709610  0.51722018  0.86935443  1
  O  O196  1  0.80891210  0.84870129  0.38420631  1
  O  O197  1  0.79760740  0.84042796  0.87317134  1
  O  O198  1  0.03347965  0.00923159  0.38243325  1
  O  O199  1  0.02270641  -0.00008827  0.86266674  1
  O  O200  1  0.01510209  0.35182696  0.37949451  1
  O  O201  1  0.03602676  0.34776645  0.87412989  1
  O  O202  1  0.01858155  0.65872707  0.38334922  1
  O  O203  1  0.01686323  0.66411790  0.87892910  1
  O  O204  1  0.37518112  0.01675334  0.38233651  1
  O  O205  1  0.36781682  -0.00079965  0.88047979  1
  O  O206  1  0.36997685  0.33739711  0.38386846  1
  O  O207  1  0.35944710  0.35403175  0.87119787  1
  O  O208  1  0.35599104  0.67217742  0.38343129  1
  O  O209  1  0.35386983  0.66000954  0.87397503  1
  O  O210  1  0.69713593  0.00332888  0.38358251  1
  O  O211  1  0.67907171  0.01568585  0.87964039  1
  O  O212  1  0.68037229  0.33748605  0.36818496  1
  O  O213  1  0.67831617  0.33402326  0.86905050  1
  O  O214  1  0.67575497  0.67438754  0.38019440  1
  O  O215  1  0.69617061  0.67021144  0.87328255  1
  O  O216  1  0.07991074  0.08737914  0.00993199  1
  O  O217  1  0.06664140  0.09286381  0.52983578  1
  O  O218  1  0.06809617  0.42638124  0.03928182  1
  O  O219  1  0.06593360  0.43691233  0.52283675  1
  O  O220  1  0.07551217  0.75678937  0.01754904  1
  O  O221  1  0.07059777  0.75835869  0.52668647  1
  O  O222  1  0.40628014  0.09222055  0.02925081  1
  O  O223  1  0.39485703  0.10047846  0.52589637  1
  O  O224  1  0.40730673  0.43741531  0.01493013  1
  O  O225  1  0.40094974  0.43258678  0.52736362  1
  O  O226  1  0.40960169  0.76572457  0.02419498  1
  O  O227  1  0.40453638  0.75772343  0.51114378  1
  O  O228  1  0.72381070  0.10117616  0.02241297  1
  O  O229  1  0.74244848  0.07919198  0.52999870  1
  O  O230  1  0.73815359  0.42529837  0.02835419  1
  O  O231  1  0.73260788  0.43215682  0.52542263  1
  O  O232  1  0.73003889  0.75556714  0.00790881  1
  O  O233  1  0.73658178  0.76761121  0.50730260  1
  O  O234  1  0.10136380  0.26572922  0.01922375  1
  O  O235  1  0.09022800  0.26242794  0.51934534  1
  O  O236  1  0.08409574  0.59299393  0.02293555  1
  O  O237  1  0.09621994  0.59654662  0.53069499  1
  O  O238  1  0.09928925  0.91427540  0.01055753  1
  O  O239  1  0.09655795  0.93479854  0.53091728  1
  O  O240  1  0.42920560  0.24946090  0.01976141  1
  O  O241  1  0.42534927  0.26692388  0.52685809  1
  O  O242  1  0.43451853  0.60395334  0.02230981  1
  O  O243  1  0.42282130  0.59033227  0.52720864  1
  O  O244  1  0.43894919  0.92998726  0.02608043  1
  O  O245  1  0.43508818  0.94311761  0.52073659  1
  O  O246  1  0.75989320  0.25880070  0.02415418  1
  O  O247  1  0.75658875  0.25662561  0.51692041  1
  O  O248  1  0.74768755  0.59189696  0.02053745  1
  O  O249  1  0.75280036  0.59318589  0.51412361  1
  O  O250  1  0.74866556  0.93517868  0.01402530  1
  O  O251  1  0.77001122  0.93046967  0.52462692  1
  O  O252  1  0.24333770  0.06906603  0.28612841  1
  O  O253  1  0.23550375  0.07210278  0.75826835  1
  O  O254  1  0.23786824  0.40197781  0.26344658  1
  O  O255  1  0.23015200  0.40281077  0.77638277  1
  O  O256  1  0.25209018  0.74636948  0.27597045  1
  O  O257  1  0.23153018  0.73391422  0.75860586  1
  O  O258  1  0.56173548  0.07040664  0.27252054  1
  O  O259  1  0.56387379  0.06905990  0.77036896  1
  O  O260  1  0.56583753  0.40102102  0.27063523  1
  O  O261  1  0.56765145  0.40083074  0.75950685  1
  O  O262  1  0.56140890  0.74089887  0.26220837  1
  O  O263  1  0.58044796  0.74379403  0.77635308  1
  O  O264  1  0.90790875  0.06477596  0.27641442  1
  O  O265  1  0.91261383  0.06510165  0.75915260  1
  O  O266  1  0.89390416  0.40306338  0.26041066  1
  O  O267  1  0.90038547  0.41629197  0.77365905  1
  O  O268  1  0.90632429  0.74020034  0.26498611  1
  O  O269  1  0.89962817  0.73433680  0.77493808  1
  O  O270  1  0.27391776  0.22885914  0.27717784  1
  O  O271  1  0.25974056  0.23572795  0.76099854  1
  O  O272  1  0.25803320  0.57788954  0.26349415  1
  O  O273  1  0.26754167  0.56946622  0.76999187  1
  O  O274  1  0.27376564  0.90242716  0.27429261  1
  O  O275  1  0.25972860  0.90342281  0.76312040  1
  O  O276  1  0.59248047  0.24055144  0.27229754  1
  O  O277  1  0.59805642  0.23125189  0.77249019  1
  O  O278  1  0.59639472  0.56517530  0.25722593  1
  O  O279  1  0.59279199  0.57704965  0.75677973  1
  O  O280  1  0.59601645  0.90013741  0.28120943  1
  O  O281  1  0.59571085  0.90117991  0.77949123  1
  O  O282  1  0.93531915  0.22895670  0.27819195  1
  O  O283  1  0.92582096  0.24294430  0.76107946  1
  O  O284  1  0.92505286  0.55984967  0.26786248  1
  O  O285  1  0.92121702  0.57018867  0.77179726  1
  O  O286  1  0.93276371  0.91319597  0.27549640  1
  O  O287  1  0.94053316  0.90334692  0.75557350  1
  O  O288  1  0.27267062  0.23701459  0.47941435  1
  O  O289  1  0.26024665  0.24249840  0.97535116  1
  O  O290  1  0.26288283  0.57061115  0.48934948  1
  O  O291  1  0.26991376  0.57451158  0.97967856  1
  O  O292  1  0.27536374  0.90888385  0.47276886  1
  O  O293  1  0.27457602  0.89714754  0.98705349  1
  O  O294  1  0.58292112  0.24473729  0.47798308  1
  O  O295  1  0.59867768  0.22629971  0.98232053  1
  O  O296  1  0.59661544  0.56921484  0.49265772  1
  O  O297  1  0.59358091  0.57183083  0.98449230  1
  O  O298  1  0.59877538  0.90699090  0.46946908  1
  O  O299  1  0.59713961  0.90548695  0.97050580  1
  O  O300  1  0.94101515  0.23598128  0.48203350  1
  O  O301  1  0.91764321  0.23474021  0.97648691  1
  O  O302  1  0.93515682  0.56793985  0.48422028  1
  O  O303  1  0.92602804  0.57782414  0.97515007  1
  O  O304  1  0.93439628  0.90192439  0.48557253  1
  O  O305  1  0.92309395  0.91169254  0.98565467  1
  O  O306  1  0.24000098  0.06505316  0.47491058  1
  O  O307  1  0.25309179  0.06441429  0.98396222  1
  O  O308  1  0.23886414  0.40687873  0.48169169  1
  O  O309  1  0.23550081  0.40562254  0.96804470  1
  O  O310  1  0.24613960  0.74065117  0.48638332  1
  O  O311  1  0.24533716  0.73728741  0.98356492  1
  O  O312  1  0.57114046  0.06233401  0.47968712  1
  O  O313  1  0.56361908  0.06420614  0.97805182  1
  O  O314  1  0.55735767  0.40229952  0.47936802  1
  O  O315  1  0.56818425  0.41364950  0.98583808  1
  O  O316  1  0.58092314  0.74666619  0.48850649  1
  O  O317  1  0.57275129  0.74290123  0.97546625  1
  O  O318  1  0.90922942  0.06273049  0.47754332  1
  O  O319  1  0.90131028  0.07974922  0.98530758  1
  O  O320  1  0.91242300  0.40576339  0.48775518  1
  O  O321  1  0.91038304  0.41534687  0.96923707  1
  O  O322  1  0.90654349  0.73631390  0.47884723  1
  O  O323  1  0.90417659  0.73359962  0.97526168  1
  O  O324  1  0.10448126  0.26814281  0.21876522  1
  O  O325  1  0.09541547  0.25192538  0.73034797  1
  O  O326  1  0.08373475  0.58541808  0.22707743  1
  O  O327  1  0.09502497  0.60139018  0.71894121  1
  O  O328  1  0.10037191  0.93647898  0.24585525  1
  O  O329  1  0.10159525  0.93062840  0.71999218  1
  O  O330  1  0.43174294  0.25682632  0.22620349  1
  O  O331  1  0.43271602  0.25985016  0.72179202  1
  O  O332  1  0.44132436  0.59908505  0.22791313  1
  O  O333  1  0.41834339  0.59501289  0.72926171  1
  O  O334  1  0.44675979  0.93694385  0.23343778  1
  O  O335  1  0.43921115  0.93224791  0.73562827  1
  O  O336  1  0.75905816  0.26840773  0.22844948  1
  O  O337  1  0.75079328  0.26319192  0.73376354  1
  O  O338  1  0.75716215  0.58475029  0.22835041  1
  O  O339  1  0.75254006  0.58745757  0.72175101  1
  O  O340  1  0.76519708  0.93605481  0.24738555  1
  O  O341  1  0.76551162  0.93049580  0.72069011  1
  O  O342  1  0.06735223  0.09279839  0.24255216  1
  O  O343  1  0.07372594  0.09391129  0.71610380  1
  O  O344  1  0.05968578  0.43182913  0.23399759  1
  O  O345  1  0.05959652  0.43936101  0.72029788  1
  O  O346  1  0.07976591  0.75722365  0.23664573  1
  O  O347  1  0.07236584  0.76836436  0.72491754  1
  O  O348  1  0.40697946  0.10073598  0.22042570  1
  O  O349  1  0.40489743  0.09904512  0.72349066  1
  O  O350  1  0.41298356  0.43123227  0.23603189  1
  O  O351  1  0.40253502  0.43173306  0.71269770  1
  O  O352  1  0.40741232  0.77296617  0.22617478  1
  O  O353  1  0.40690828  0.76029481  0.73473842  1
  O  O354  1  0.72894814  0.10352162  0.22772845  1
  O  O355  1  0.74288724  0.08964590  0.73258485  1
  O  O356  1  0.73170516  0.42872252  0.21842955  1
  O  O357  1  0.72789784  0.43083315  0.72406132  1
  O  O358  1  0.73262617  0.76335410  0.25270999  1
  O  O359  1  0.73699740  0.75490910  0.73756593  1
