# generated using pymatgen
data_BaLaInIrO6
_symmetry_space_group_name_H-M   'P 1'
_cell_length_a   17.50562331
_cell_length_b   17.53517357
_cell_length_c   16.47511148
_cell_angle_alpha   89.96427106
_cell_angle_beta   90.03198263
_cell_angle_gamma   89.99824593
_symmetry_Int_Tables_number   1
_chemical_formula_structural   BaLaInIrO6
_chemical_formula_sum   'Ba36 La36 In36 Ir36 O216'
_cell_volume   5057.26670656
_cell_formula_units_Z   36
loop_
 _symmetry_equiv_pos_site_id
 _symmetry_equiv_pos_as_xyz
  1  'x, y, z'
loop_
 _atom_site_type_symbol
 _atom_site_label
 _atom_site_symmetry_multiplicity
 _atom_site_fract_x
 _atom_site_fract_y
 _atom_site_fract_z
 _atom_site_occupancy
  Ba  Ba0  1  0.33549507  0.49424362  0.37259926  1
  Ba  Ba1  1  0.66337785  0.84188527  0.12595438  1
  Ba  Ba2  1  0.50381046  0.66035117  0.37765797  1
  Ba  Ba3  1  -0.00231471  0.16195258  0.87731504  1
  Ba  Ba4  1  0.33521376  0.17168276  0.62153906  1
  Ba  Ba5  1  -0.00206020  0.82666184  0.87557759  1
  Ba  Ba6  1  -0.00237918  0.49516454  0.87454870  1
  Ba  Ba7  1  0.50863979  0.32011856  0.37086396  1
  Ba  Ba8  1  0.66660066  0.15508436  0.37122110  1
  Ba  Ba9  1  0.83704767  0.98986651  0.38003408  1
  Ba  Ba10  1  0.33229617  0.51179713  0.12626441  1
  Ba  Ba11  1  0.16480760  0.66031113  0.37524118  1
  Ba  Ba12  1  0.17169566  0.65606190  0.87808864  1
  Ba  Ba13  1  0.83152569  0.32227669  0.37418588  1
  Ba  Ba14  1  -0.00238542  0.82188036  0.37751856  1
  Ba  Ba15  1  0.16845259  0.34058379  0.62792235  1
  Ba  Ba16  1  0.49893916  0.67576363  0.12815543  1
  Ba  Ba17  1  0.33862734  0.84045250  0.12710205  1
  Ba  Ba18  1  0.83501879  0.32512993  0.87540764  1
  Ba  Ba19  1  0.83045099  0.67757333  0.62598511  1
  Ba  Ba20  1  0.83355075  0.34348358  0.12203729  1
  Ba  Ba21  1  0.49840081  0.65949840  0.87818848  1
  Ba  Ba22  1  0.66126428  0.49095043  0.87805281  1
  Ba  Ba23  1  0.66642612  0.82670516  0.87535240  1
  Ba  Ba24  1  0.16513535  0.34220438  0.12092619  1
  Ba  Ba25  1  0.66519205  0.15821095  0.87585326  1
  Ba  Ba26  1  0.16744145  0.67799210  0.12943117  1
  Ba  Ba27  1  0.66868921  0.17456406  0.62370857  1
  Ba  Ba28  1  0.16600999  0.32229930  0.87644036  1
  Ba  Ba29  1  0.67111269  0.82560165  0.37606225  1
  Ba  Ba30  1  0.49697035  0.33717076  0.62488147  1
  Ba  Ba31  1  0.66187522  0.49204250  0.37830890  1
  Ba  Ba32  1  0.33127537  0.15563931  0.86982564  1
  Ba  Ba33  1  0.83278254  0.99476429  0.87311278  1
  Ba  Ba34  1  0.33600819  0.84101794  0.62819539  1
  Ba  Ba35  1  0.17161860  0.99069134  0.37362229  1
  La  La36  1  0.66568354  0.17951298  0.12443806  1
  La  La37  1  0.34044113  0.16510838  0.38129435  1
  La  La38  1  0.49379081  0.00763272  0.12241253  1
  La  La39  1  0.83152436  0.01255304  0.12279834  1
  La  La40  1  1.00458734  0.85277532  0.12721309  1
  La  La41  1  0.15966501  0.67965242  0.62451220  1
  La  La42  1  0.33813414  0.18188102  0.12103261  1
  La  La43  1  0.50272006  0.99315587  0.37609750  1
  La  La44  1  0.99718286  0.51545471  0.62488803  1
  La  La45  1  0.33060975  0.81745363  0.87899099  1
  La  La46  1  0.82787134  0.67988650  0.12250690  1
  La  La47  1  0.16865247  0.32079856  0.37621270  1
  La  La48  1  0.49404824  0.34976321  0.12536161  1
  La  La49  1  0.49881482  0.01499787  0.62541670  1
  La  La50  1  0.66663074  0.51488930  0.12816458  1
  La  La51  1  0.32361008  0.48381833  0.87519719  1
  La  La52  1  1.00386505  0.84809611  0.62385256  1
  La  La53  1  0.50131229  0.67768592  0.62700313  1
  La  La54  1  0.67034107  0.51920984  0.62196738  1
  La  La55  1  0.83324665  0.01189947  0.62512243  1
  La  La56  1  0.83990230  0.65242426  0.37647218  1
  La  La57  1  1.00308285  0.18245261  0.62409819  1
  La  La58  1  -0.00681492  0.48864852  0.37323190  1
  La  La59  1  0.50521010  0.98743300  0.87142123  1
  La  La60  1  0.33541317  0.51384555  0.62613594  1
  La  La61  1  0.32758659  0.81422762  0.37374531  1
  La  La62  1  0.82089273  0.35097295  0.62391740  1
  La  La63  1  1.00378413  0.18170179  0.12494619  1
  La  La64  1  0.16542097  0.01602419  0.62595210  1
  La  La65  1  0.16975615  0.01175465  0.12372918  1
  La  La66  1  1.00649241  0.51346900  0.12392335  1
  La  La67  1  0.83811107  0.65381611  0.87557244  1
  La  La68  1  0.50280963  0.31467871  0.87522492  1
  La  La69  1  0.17328411  0.98801540  0.87608739  1
  La  La70  1  -0.00817155  0.14983348  0.37433782  1
  La  La71  1  0.67057982  0.84669344  0.62123494  1
  In  In72  1  0.16219318  0.50017975  0.25302048  1
  In  In73  1  0.50093993  0.50021814  0.50479048  1
  In  In74  1  0.66748470  0.33451833  0.24691016  1
  In  In75  1  0.83455846  0.83480312  0.00037890  1
  In  In76  1  0.16348251  0.16533659  0.49657675  1
  In  In77  1  0.16484253  0.16518433  0.75115363  1
  In  In78  1  0.50015024  0.83481361  0.50187338  1
  In  In79  1  0.33289580  0.33285738  0.74947561  1
  In  In80  1  -0.00050954  0.33594638  -0.00312675  1
  In  In81  1  0.50016175  0.50138866  0.25048879  1
  In  In82  1  0.00135779  0.00083811  0.74920782  1
  In  In83  1  0.49953243  0.49990235  0.75129516  1
  In  In84  1  0.16903271  0.83560279  0.00254501  1
  In  In85  1  0.00351065  0.00279049  -0.00030308  1
  In  In86  1  0.33388785  0.66609771  0.74934768  1
  In  In87  1  0.16253508  0.49937544  0.50021738  1
  In  In88  1  0.49884793  0.83546485  -0.00104205  1
  In  In89  1  0.83433521  0.16841519  0.50104680  1
  In  In90  1  0.66398560  0.33329647  0.75148923  1
  In  In91  1  -0.00138962  0.67015067  0.00221328  1
  In  In92  1  0.83486343  0.83442395  0.25183644  1
  In  In93  1  0.66625326  0.66689400  -0.00241336  1
  In  In94  1  -0.00240525  0.66985628  0.24915444  1
  In  In95  1  0.33578986  -0.00280335  0.49805236  1
  In  In96  1  0.00024337  0.67167315  0.75105722  1
  In  In97  1  0.83389501  0.16496607  0.24883770  1
  In  In98  1  0.83158601  0.16633307  -0.00072027  1
  In  In99  1  0.82919384  0.50128908  0.75119930  1
  In  In100  1  0.66827396  0.00086143  0.74923766  1
  In  In101  1  0.33330626  0.33141084  0.25091916  1
  In  In102  1  0.16764037  0.83529955  0.49956909  1
  In  In103  1  0.16796726  0.16426015  0.25076081  1
  In  In104  1  0.00068590  0.33339931  0.25198807  1
  In  In105  1  0.50084601  0.83612257  0.25403015  1
  In  In106  1  0.33223343  0.33621665  0.49753889  1
  In  In107  1  0.16568088  0.49945258  0.74838357  1
  Ir  Ir108  1  0.66396260  0.00126921  0.24748022  1
  Ir  Ir109  1  0.33139317  0.66585581  0.50238231  1
  Ir  Ir110  1  0.16860291  0.50032511  0.00172278  1
  Ir  Ir111  1  0.66624331  0.67244737  0.74787602  1
  Ir  Ir112  1  0.83691728  0.16748997  0.74586246  1
  Ir  Ir113  1  0.50202140  0.83454224  0.74889792  1
  Ir  Ir114  1  -0.00100534  -0.00245942  0.50242390  1
  Ir  Ir115  1  0.33615898  0.00269601  -0.00266892  1
  Ir  Ir116  1  0.50505449  0.16382918  0.49825972  1
  Ir  Ir117  1  0.33253726  0.66953978  0.25195979  1
  Ir  Ir118  1  0.83262267  0.83340345  0.74588669  1
  Ir  Ir119  1  0.00196306  -0.00071716  0.25093023  1
  Ir  Ir120  1  0.83564991  0.83242850  0.50544473  1
  Ir  Ir121  1  0.66192282  0.00334879  0.00416946  1
  Ir  Ir122  1  0.17152229  0.16321620  0.00189801  1
  Ir  Ir123  1  0.67124870  0.66947168  0.50090940  1
  Ir  Ir124  1  0.17089271  0.83725467  0.74822558  1
  Ir  Ir125  1  0.49554518  0.49793590  -0.00092484  1
  Ir  Ir126  1  0.65861804  0.33334591  0.00135826  1
  Ir  Ir127  1  -0.00376992  0.66651121  0.50293701  1
  Ir  Ir128  1  0.49812334  0.16184866  0.75186418  1
  Ir  Ir129  1  0.33463989  0.66499014  0.00216416  1
  Ir  Ir130  1  0.83007483  0.49989981  0.00643463  1
  Ir  Ir131  1  0.33567262  -0.00462418  0.75222821  1
  Ir  Ir132  1  -0.00863383  0.33313253  0.74194581  1
  Ir  Ir133  1  0.49925851  0.16439033  0.00117778  1
  Ir  Ir134  1  0.33559941  0.00332962  0.24541484  1
  Ir  Ir135  1  0.66797744  -0.00202730  0.49813446  1
  Ir  Ir136  1  0.33736647  0.33205688  0.00096759  1
  Ir  Ir137  1  0.67221553  0.66606590  0.25199869  1
  Ir  Ir138  1  0.66657581  0.33278871  0.50164885  1
  Ir  Ir139  1  0.50059439  0.15928244  0.24339447  1
  Ir  Ir140  1  0.17002753  0.84018475  0.24956285  1
  Ir  Ir141  1  -0.00370156  0.33678008  0.50225201  1
  Ir  Ir142  1  0.83326396  0.49942245  0.49653533  1
  Ir  Ir143  1  0.83310748  0.50211757  0.24975745  1
  O  O144  1  0.31435039  0.32022147  0.12077203  1
  O  O145  1  0.31826670  0.32335790  0.62256409  1
  O  O146  1  0.31561522  0.67134795  0.12756368  1
  O  O147  1  0.29797973  0.65990400  0.62134002  1
  O  O148  1  0.30625805  0.99501314  0.12008465  1
  O  O149  1  0.30289849  0.99528449  0.63246991  1
  O  O150  1  0.63023124  0.32261318  0.11789597  1
  O  O151  1  0.65098630  0.33064237  0.62093362  1
  O  O152  1  0.65134942  0.65757722  0.13179162  1
  O  O153  1  0.63806363  0.66561969  0.62486296  1
  O  O154  1  0.62983226  0.99925227  0.12685734  1
  O  O155  1  0.63829257  0.99031648  0.61926403  1
  O  O156  1  0.98383230  0.31953364  0.12382916  1
  O  O157  1  0.95823564  0.32189362  0.61985953  1
  O  O158  1  0.96369111  0.65307886  0.12508245  1
  O  O159  1  0.97774134  0.66114701  0.62189345  1
  O  O160  1  0.97297767  0.99063506  0.13254427  1
  O  O161  1  0.97014343  0.98573014  0.62109522  1
  O  O162  1  0.20105925  0.15810723  0.11985723  1
  O  O163  1  0.18476375  0.15489835  0.62251885  1
  O  O164  1  0.18317519  0.49765398  0.12069521  1
  O  O165  1  0.19951307  0.49616466  0.62286479  1
  O  O166  1  0.19083218  0.84690876  0.13167090  1
  O  O167  1  0.18746963  0.82233333  0.62838448  1
  O  O168  1  0.53099107  0.14649490  0.12184185  1
  O  O169  1  0.52269606  0.15066667  0.62551863  1
  O  O170  1  0.52843429  0.49257567  0.11782839  1
  O  O171  1  0.53869240  0.49670010  0.62737124  1
  O  O172  1  0.50893837  0.84216041  0.12715727  1
  O  O173  1  0.53279135  0.82085669  0.62894274  1
  O  O174  1  0.86631936  0.15167304  0.12610994  1
  O  O175  1  0.86460456  0.15704081  0.62586468  1
  O  O176  1  0.86541155  0.49819544  0.12894828  1
  O  O177  1  0.86051188  0.49185471  0.61694618  1
  O  O178  1  0.86939466  0.81797469  0.12845144  1
  O  O179  1  0.86540118  0.82917656  0.62559991  1
  O  O180  1  0.12631526  0.17289684  0.37432421  1
  O  O181  1  0.14836683  0.15457521  0.88279695  1
  O  O182  1  0.12690087  0.50886971  0.37805592  1
  O  O183  1  0.14981017  0.50155353  0.88233681  1
  O  O184  1  0.14893995  0.83399481  0.36958310  1
  O  O185  1  0.15029632  0.84781456  0.86900550  1
  O  O186  1  0.47516696  0.16346415  0.36946947  1
  O  O187  1  0.47736427  0.17553596  0.87721939  1
  O  O188  1  0.48872093  0.50534744  0.37799888  1
  O  O189  1  0.46362008  0.50479114  0.88125449  1
  O  O190  1  0.46591867  0.85102275  0.37761352  1
  O  O191  1  0.46893299  0.84845572  0.86928319  1
  O  O192  1  0.81905659  0.16059119  0.37578821  1
  O  O193  1  0.81589649  0.16851716  0.86668202  1
  O  O194  1  0.80794886  0.51226943  0.37240613  1
  O  O195  1  0.80969739  0.50959268  0.88375769  1
  O  O196  1  0.81922473  0.83709544  0.38448493  1
  O  O197  1  0.81385272  0.84209047  0.86571664  1
  O  O198  1  0.02370405  0.01127717  0.37723691  1
  O  O199  1  0.03468258  0.00190338  0.87266779  1
  O  O200  1  0.03205508  0.34978312  0.38383463  1
  O  O201  1  0.01273290  0.33777103  0.86378277  1
  O  O202  1  0.01323561  0.66522844  0.38364745  1
  O  O203  1  0.02072751  0.66733592  0.87611414  1
  O  O204  1  0.36455017  0.01964940  0.36478342  1
  O  O205  1  0.36863117  0.00313427  0.87530901  1
  O  O206  1  0.36149817  0.32769098  0.37403597  1
  O  O207  1  0.36691180  0.34308345  0.88175115  1
  O  O208  1  0.35485984  0.67618161  0.37772339  1
  O  O209  1  0.34814134  0.67454540  0.88100057  1
  O  O210  1  0.69185754  0.00293496  0.37143605  1
  O  O211  1  0.68272994  0.00263888  0.88137968  1
  O  O212  1  0.68145963  0.33158087  0.37986029  1
  O  O213  1  0.68419885  0.33367550  0.88234057  1
  O  O214  1  0.70294360  0.66925449  0.37775621  1
  O  O215  1  0.70034693  0.67084657  0.86770993  1
  O  O216  1  0.07929830  0.09830198  0.03400051  1
  O  O217  1  0.06451153  0.09060526  0.52472462  1
  O  O218  1  0.07371594  0.43277237  0.01950539  1
  O  O219  1  0.05452787  0.43317910  0.52906540  1
  O  O220  1  0.06863593  0.76960668  0.02746522  1
  O  O221  1  0.06729854  0.75875685  0.52690834  1
  O  O222  1  0.40428436  0.09676048  0.02775844  1
  O  O223  1  0.41794401  0.09118232  0.51335122  1
  O  O224  1  0.40841250  0.42237984  0.02694812  1
  O  O225  1  0.39900185  0.43625216  0.52598213  1
  O  O226  1  0.40104278  0.75986498  0.00664866  1
  O  O227  1  0.40728735  0.75300804  0.52012181  1
  O  O228  1  0.73136838  0.09319604  0.02911898  1
  O  O229  1  0.74581861  0.08081535  0.52376998  1
  O  O230  1  0.72778111  0.42930325  0.02808977  1
  O  O231  1  0.73733470  0.42941690  0.52583187  1
  O  O232  1  0.74414035  0.75673413  0.02418036  1
  O  O233  1  0.73730171  0.76862403  0.52465729  1
  O  O234  1  0.09641722  0.24991891  0.01609804  1
  O  O235  1  0.08407824  0.26523390  0.52342622  1
  O  O236  1  0.09305960  0.58682310  0.02246338  1
  O  O237  1  0.08917312  0.60001831  0.53065786  1
  O  O238  1  0.10614951  0.93805492  0.02009107  1
  O  O239  1  0.09343467  0.93132630  0.52798695  1
  O  O240  1  0.43174279  0.26034563  0.02735532  1
  O  O241  1  0.43090068  0.24888101  0.50928082  1
  O  O242  1  0.42769971  0.59213803  0.02240642  1
  O  O243  1  0.42373083  0.59946698  0.53139483  1
  O  O244  1  0.43160554  0.94143516  0.01330707  1
  O  O245  1  0.43475854  0.93394551  0.52890178  1
  O  O246  1  0.74561369  0.25766460  0.02346747  1
  O  O247  1  0.76406691  0.26777228  0.52181667  1
  O  O248  1  0.75898756  0.58806513  0.03016287  1
  O  O249  1  0.76007339  0.59013454  0.52152765  1
  O  O250  1  0.75840261  0.93748058  0.02733383  1
  O  O251  1  0.76427517  0.92617740  0.53064760  1
  O  O252  1  0.23846989  0.06210782  0.25514284  1
  O  O253  1  0.23649706  0.05667012  0.76888559  1
  O  O254  1  0.23045411  0.39889869  0.27353561  1
  O  O255  1  0.23939577  0.40771683  0.77591919  1
  O  O256  1  0.24259596  0.74811878  0.27367986  1
  O  O257  1  0.24102452  0.74751295  0.76887783  1
  O  O258  1  0.56474832  0.06415067  0.27080393  1
  O  O259  1  0.56549250  0.06773099  0.76621250  1
  O  O260  1  0.57264515  0.40378791  0.25250113  1
  O  O261  1  0.56350163  0.39833487  0.77840067  1
  O  O262  1  0.58270907  0.73976117  0.26718667  1
  O  O263  1  0.57191708  0.74031543  0.76774560  1
  O  O264  1  0.91207569  0.06700668  0.26898223  1
  O  O265  1  0.90340027  0.07435226  0.75937939  1
  O  O266  1  0.89989418  0.41126546  0.27130747  1
  O  O267  1  0.89861330  0.39892487  0.75312167  1
  O  O268  1  0.89762352  0.73091528  0.27607675  1
  O  O269  1  0.89509885  0.73925112  0.77174362  1
  O  O270  1  0.27139415  0.22577340  0.27248876  1
  O  O271  1  0.25470064  0.24059674  0.76665695  1
  O  O272  1  0.25826077  0.58183434  0.26447047  1
  O  O273  1  0.26782923  0.56767494  0.77241839  1
  O  O274  1  0.27155628  0.90488459  0.27458024  1
  O  O275  1  0.26818182  0.90236657  0.77926014  1
  O  O276  1  0.59284184  0.22572513  0.25383852  1
  O  O277  1  0.58795886  0.23465090  0.76568931  1
  O  O278  1  0.60241477  0.57579880  0.25967087  1
  O  O279  1  0.59744407  0.58188529  0.76559047  1
  O  O280  1  0.59303848  0.91581049  0.27532778  1
  O  O281  1  0.58999612  0.90656308  0.76539617  1
  O  O282  1  0.93502336  0.23270137  0.27307335  1
  O  O283  1  0.93041449  0.23405037  0.75805700  1
  O  O284  1  0.92422662  0.56682578  0.27680601  1
  O  O285  1  0.91944576  0.57811105  0.76395452  1
  O  O286  1  0.93681627  0.90619558  0.26448903  1
  O  O287  1  0.92824334  0.89910723  0.75660449  1
  O  O288  1  0.25513457  0.24034511  0.46550688  1
  O  O289  1  0.26649743  0.23534415  0.98283101  1
  O  O290  1  0.26300742  0.57711366  0.48296293  1
  O  O291  1  0.26647656  0.56753462  0.98057443  1
  O  O292  1  0.26906964  0.89891387  0.47469963  1
  O  O293  1  0.27134381  0.90932653  0.96993079  1
  O  O294  1  0.59987256  0.23623804  0.48425640  1
  O  O295  1  0.58863672  0.23963418  0.97764922  1
  O  O296  1  0.60095054  0.57983085  0.49224503  1
  O  O297  1  0.58690019  0.56903143  0.98702675  1
  O  O298  1  0.59495654  0.91208379  0.47933462  1
  O  O299  1  0.59049299  0.91719910  0.97970931  1
  O  O300  1  0.93742773  0.23841258  0.47684092  1
  O  O301  1  0.92405288  0.24214731  0.98898294  1
  O  O302  1  0.92847588  0.56961096  0.47579956  1
  O  O303  1  0.91632267  0.57068133  0.98473824  1
  O  O304  1  0.93497042  0.89768368  0.49229739  1
  O  O305  1  0.93528471  0.90145082  0.99638267  1
  O  O306  1  0.24726654  0.07614925  0.48051427  1
  O  O307  1  0.23618770  0.06341413  0.98162932  1
  O  O308  1  0.22656073  0.39962889  0.47072614  1
  O  O309  1  0.24711432  0.40883830  0.97624003  1
  O  O310  1  0.24250520  0.73784755  0.48456893  1
  O  O311  1  0.24630972  0.74129069  0.98503218  1
  O  O312  1  0.57298047  0.06564578  0.47688091  1
  O  O313  1  0.56324684  0.06833213  0.97657740  1
  O  O314  1  0.57653554  0.40083182  0.48714101  1
  O  O315  1  0.56011783  0.39991740  0.97821170  1
  O  O316  1  0.58177821  0.74145290  0.48591445  1
  O  O317  1  0.57536881  0.74410807  0.98607533  1
  O  O318  1  0.91225452  0.06984510  0.48871837  1
  O  O319  1  0.90327152  0.06825690  0.98872542  1
  O  O320  1  0.90512567  0.40856705  0.47383972  1
  O  O321  1  0.90144032  0.41383275  0.98679704  1
  O  O322  1  0.89911992  0.73330679  0.47984844  1
  O  O323  1  0.89476765  0.72965852  0.97476778  1
  O  O324  1  0.09636673  0.25825235  0.22967006  1
  O  O325  1  0.07977503  0.25986150  0.72784942  1
  O  O326  1  0.08569594  0.59321474  0.22662759  1
  O  O327  1  0.09531413  0.59670161  0.72150441  1
  O  O328  1  0.09900984  0.93390565  0.22343510  1
  O  O329  1  0.10422013  0.92965237  0.72113681  1
  O  O330  1  0.43514682  0.25123959  0.21571215  1
  O  O331  1  0.43132490  0.25428782  0.74416826  1
  O  O332  1  0.42128175  0.59654246  0.23805315  1
  O  O333  1  0.43109103  0.59874935  0.71720711  1
  O  O334  1  0.43141081  0.94337311  0.23317042  1
  O  O335  1  0.43697330  0.93238670  0.72749328  1
  O  O336  1  0.75340266  0.25437954  0.22523609  1
  O  O337  1  0.76857708  0.26173297  0.72668385  1
  O  O338  1  0.76809576  0.59818240  0.22623649  1
  O  O339  1  0.75039478  0.59690690  0.72817277  1
  O  O340  1  0.76020732  0.93456991  0.22536730  1
  O  O341  1  0.76418980  0.92572979  0.71787940  1
  O  O342  1  0.06741162  0.09194713  0.22405467  1
  O  O343  1  0.07143262  0.09352347  0.71527536  1
  O  O344  1  0.05829289  0.43720796  0.22964003  1
  O  O345  1  0.05632749  0.42913957  0.72219682  1
  O  O346  1  0.07367967  0.77358481  0.22755331  1
  O  O347  1  0.07555960  0.76978781  0.72387907  1
  O  O348  1  0.40111891  0.09676491  0.21749262  1
  O  O349  1  0.40810939  0.08476237  0.72674415  1
  O  O350  1  0.41137813  0.42064310  0.22499847  1
  O  O351  1  0.39629116  0.43764779  0.72956321  1
  O  O352  1  0.40387372  0.75945229  0.24694108  1
  O  O353  1  0.41453822  0.76078722  0.73472635  1
  O  O354  1  0.73377265  0.08945240  0.21668669  1
  O  O355  1  0.74988808  0.09148913  0.72766597  1
  O  O356  1  0.73879376  0.43741310  0.22470681  1
  O  O357  1  0.73388559  0.43177158  0.72267376  1
  O  O358  1  0.74119170  0.75440919  0.23104919  1
  O  O359  1  0.73245469  0.77032095  0.72362271  1
