# generated using pymatgen
data_BaLaInIrO6
_symmetry_space_group_name_H-M   'P 1'
_cell_length_a   17.55157294
_cell_length_b   17.59110489
_cell_length_c   16.51314811
_cell_angle_alpha   89.97947814
_cell_angle_beta   89.96878603
_cell_angle_gamma   90.05803375
_symmetry_Int_Tables_number   1
_chemical_formula_structural   BaLaInIrO6
_chemical_formula_sum   'Ba36 La36 In36 Ir36 O216'
_cell_volume   5098.45654676
_cell_formula_units_Z   36
loop_
 _symmetry_equiv_pos_site_id
 _symmetry_equiv_pos_as_xyz
  1  'x, y, z'
loop_
 _atom_site_type_symbol
 _atom_site_label
 _atom_site_symmetry_multiplicity
 _atom_site_fract_x
 _atom_site_fract_y
 _atom_site_fract_z
 _atom_site_occupancy
  Ba  Ba0  1  0.16858144  0.32695436  0.88010312  1
  Ba  Ba1  1  0.16786291  0.00561462  0.62513261  1
  Ba  Ba2  1  0.50384004  0.32650245  0.87579790  1
  Ba  Ba3  1  0.50236306  0.99129160  0.37100802  1
  Ba  Ba4  1  0.49623459  0.67261049  0.12635187  1
  Ba  Ba5  1  0.33751066  0.82726967  0.87041827  1
  Ba  Ba6  1  -0.00155123  0.15898251  0.37716312  1
  Ba  Ba7  1  0.33277016  0.49547887  0.37028463  1
  Ba  Ba8  1  0.66798272  0.50769923  0.62581468  1
  Ba  Ba9  1  1.00492375  0.50584991  0.12339947  1
  Ba  Ba10  1  0.50014222  0.32613729  0.37666678  1
  Ba  Ba11  1  0.16811018  0.00827176  0.12618433  1
  Ba  Ba12  1  0.67013675  0.17991692  0.12526559  1
  Ba  Ba13  1  0.82863550  0.67755615  0.62552704  1
  Ba  Ba14  1  0.49696658  0.65652977  0.37394835  1
  Ba  Ba15  1  0.33387877  0.17671002  0.13074171  1
  Ba  Ba16  1  0.66126550  0.82606467  0.87753607  1
  Ba  Ba17  1  0.67106965  0.84477024  0.62174111  1
  Ba  Ba18  1  0.16900396  0.66005213  0.37473536  1
  Ba  Ba19  1  0.33048659  0.50495917  0.12222385  1
  Ba  Ba20  1  0.16594570  0.34009629  0.62850615  1
  Ba  Ba21  1  0.33200878  0.82634037  0.37523965  1
  Ba  Ba22  1  0.66550912  0.15937934  0.87337818  1
  Ba  Ba23  1  1.00125490  0.84415691  0.62480660  1
  Ba  Ba24  1  0.33569094  0.84232881  0.62008913  1
  Ba  Ba25  1  0.16836531  0.33790566  0.12673497  1
  Ba  Ba26  1  0.50295611  0.33920564  0.62532934  1
  Ba  Ba27  1  0.16319561  0.32789006  0.37564434  1
  Ba  Ba28  1  0.33359485  0.16087586  0.87577504  1
  Ba  Ba29  1  0.16719561  0.67326240  0.12592647  1
  Ba  Ba30  1  0.66711891  0.48676200  0.87651039  1
  Ba  Ba31  1  0.66621565  0.17510312  0.62201370  1
  Ba  Ba32  1  0.16723580  0.99121584  0.37281360  1
  Ba  Ba33  1  0.82926451  0.99088582  0.87838111  1
  Ba  Ba34  1  0.49757512  0.00721811  0.62407091  1
  Ba  Ba35  1  0.00021618  0.82628759  0.37363147  1
  La  La36  1  0.49658962  0.01538479  0.12080699  1
  La  La37  1  1.00172809  0.17829175  0.62715687  1
  La  La38  1  0.33322268  0.49001652  0.87551393  1
  La  La39  1  0.33887448  0.51219431  0.62293394  1
  La  La40  1  0.67147904  0.51613760  0.12452529  1
  La  La41  1  0.82417009  0.34607732  0.62017560  1
  La  La42  1  -0.00373105  0.47940890  0.87372913  1
  La  La43  1  0.66448148  0.15280865  0.37577717  1
  La  La44  1  0.50967682  0.64768213  0.88044032  1
  La  La45  1  0.16674692  0.98558893  0.87669607  1
  La  La46  1  0.83097864  0.02048796  0.12758538  1
  La  La47  1  -0.00534624  0.14767702  0.87961768  1
  La  La48  1  0.16204928  0.68334046  0.62153655  1
  La  La49  1  0.16832824  0.65059867  0.87309922  1
  La  La50  1  0.82908190  0.65541037  0.87514013  1
  La  La51  1  1.00739035  0.18291423  0.12590534  1
  La  La52  1  0.66914082  0.85497750  0.12937214  1
  La  La53  1  0.82922063  0.34561386  0.12449874  1
  La  La54  1  0.50936208  0.98999159  0.87071073  1
  La  La55  1  -0.01150207  0.82022352  0.88048203  1
  La  La56  1  0.33868071  0.84599300  0.13007650  1
  La  La57  1  0.66167198  0.81503707  0.37487169  1
  La  La58  1  0.33876161  0.17954951  0.62474764  1
  La  La59  1  0.65886717  0.48334727  0.37366267  1
  La  La60  1  0.83993721  0.31502851  0.37335695  1
  La  La61  1  0.00044421  0.48782106  0.36958999  1
  La  La62  1  0.82638721  0.68667032  0.12878069  1
  La  La63  1  0.32385416  0.15790414  0.38126992  1
  La  La64  1  0.82564321  0.01409710  0.62011948  1
  La  La65  1  0.49686316  0.67693647  0.62546031  1
  La  La66  1  1.00549347  0.51358023  0.62731525  1
  La  La67  1  1.00437368  0.84755474  0.12570736  1
  La  La68  1  0.84023186  0.98550854  0.37467459  1
  La  La69  1  0.49581543  0.34879892  0.12339996  1
  La  La70  1  0.83858722  0.31240420  0.87439496  1
  La  La71  1  0.83713308  0.64954984  0.37890170  1
  In  In72  1  0.16424364  0.16456530  -0.00233431  1
  In  In73  1  0.49863466  0.16801483  0.75027064  1
  In  In74  1  0.33520286  0.00054119  0.50041994  1
  In  In75  1  0.33289329  0.67044576  -0.00507317  1
  In  In76  1  -0.00140495  0.66392598  0.49811104  1
  In  In77  1  0.16513230  0.49946865  -0.00239076  1
  In  In78  1  0.66876101  0.00157331  0.74742184  1
  In  In79  1  0.83683955  0.49893508  0.74888597  1
  In  In80  1  0.33667403  0.00195686  0.24995674  1
  In  In81  1  0.66885646  0.00269570  0.00474211  1
  In  In82  1  0.16497799  0.16929489  0.25180063  1
  In  In83  1  0.33099101  0.33706020  0.49990671  1
  In  In84  1  -0.00407958  0.33529223  0.50465067  1
  In  In85  1  0.16304736  0.83174267  0.75474535  1
  In  In86  1  0.00147491  0.66471670  0.75260145  1
  In  In87  1  -0.00372242  0.66596777  0.24978086  1
  In  In88  1  0.83509221  0.50044085  0.00016381  1
  In  In89  1  0.67133688  0.33093690  0.75167363  1
  In  In90  1  -0.00159664  0.00194300  0.50201053  1
  In  In91  1  0.33230716  0.00219353  0.75256504  1
  In  In92  1  0.50269318  0.50067897  0.50041574  1
  In  In93  1  0.83189855  0.83177014  0.49612621  1
  In  In94  1  0.50014581  0.49783638  0.75089708  1
  In  In95  1  0.50228745  0.83239643  0.00593724  1
  In  In96  1  0.33417988  0.66617363  0.24717887  1
  In  In97  1  0.33663191  0.33262231  -0.00060339  1
  In  In98  1  0.33252460  0.66675856  0.50142376  1
  In  In99  1  -0.00341702  0.00199110  0.24770212  1
  In  In100  1  -0.00098332  0.66552304  0.00111313  1
  In  In101  1  0.49962661  0.83131808  0.74928565  1
  In  In102  1  0.50335413  0.17126344  0.25220977  1
  In  In103  1  0.16265559  0.16590802  0.75174229  1
  In  In104  1  0.33509969  -0.00020421  -0.00196588  1
  In  In105  1  0.83276601  0.83503065  0.75093024  1
  In  In106  1  0.66472735  0.66731996  0.74917595  1
  In  In107  1  0.83020971  0.49876431  0.25064332  1
  Ir  Ir108  1  0.66905581  0.66725317  0.24835186  1
  Ir  Ir109  1  0.83072535  0.16880837  0.24891612  1
  Ir  Ir110  1  -0.00449479  0.00178227  0.75349175  1
  Ir  Ir111  1  0.16597812  0.16819994  0.50344628  1
  Ir  Ir112  1  -0.00775901  0.33271722  0.25030273  1
  Ir  Ir113  1  0.83339673  0.83202513  0.00687671  1
  Ir  Ir114  1  0.32933725  0.33743870  0.74920320  1
  Ir  Ir115  1  0.15853625  0.83469607  0.00045476  1
  Ir  Ir116  1  -0.00469994  -0.00250483  0.00069735  1
  Ir  Ir117  1  0.16585023  0.49966036  0.50517580  1
  Ir  Ir118  1  0.84148297  0.16579721  0.74911984  1
  Ir  Ir119  1  0.82703941  0.83413507  0.24780798  1
  Ir  Ir120  1  0.83003882  0.49656308  0.49455360  1
  Ir  Ir121  1  0.50793122  0.83048088  0.49450034  1
  Ir  Ir122  1  0.33150170  0.66142367  0.74929578  1
  Ir  Ir123  1  0.50795295  0.49680616  0.24787330  1
  Ir  Ir124  1  0.16811407  0.49927752  0.74554845  1
  Ir  Ir125  1  0.33724615  0.33780290  0.25074016  1
  Ir  Ir126  1  0.49967353  0.16938192  0.49671462  1
  Ir  Ir127  1  -0.00362620  0.33068735  0.75181453  1
  Ir  Ir128  1  0.83883934  0.16786923  0.00241916  1
  Ir  Ir129  1  -0.00514866  0.33017863  -0.00275836  1
  Ir  Ir130  1  0.50348363  0.16869161  0.00331091  1
  Ir  Ir131  1  0.66816380  0.33245652  0.00722918  1
  Ir  Ir132  1  0.16703877  0.83319356  0.24474065  1
  Ir  Ir133  1  0.66931538  0.33467729  0.24852117  1
  Ir  Ir134  1  0.66874597  0.66431516  0.49277778  1
  Ir  Ir135  1  0.16315348  0.49628452  0.25330879  1
  Ir  Ir136  1  0.83022572  0.16676240  0.49716241  1
  Ir  Ir137  1  0.50639069  0.50030390  0.00335031  1
  Ir  Ir138  1  0.66867219  0.66834709  0.00783531  1
  Ir  Ir139  1  0.66917253  0.00419180  0.49286296  1
  Ir  Ir140  1  0.50923814  0.83242046  0.25151502  1
  Ir  Ir141  1  0.67340802  0.33192852  0.49306473  1
  Ir  Ir142  1  0.67258930  0.00104822  0.25330004  1
  Ir  Ir143  1  0.16629864  0.83360383  0.49791252  1
  O  O144  1  0.32091279  0.33738613  0.13164356  1
  O  O145  1  0.31467218  0.32185836  0.62915421  1
  O  O146  1  0.31821355  0.66004443  0.12230472  1
  O  O147  1  0.29748448  0.65382688  0.63125311  1
  O  O148  1  0.31570232  0.98628735  0.12462263  1
  O  O149  1  0.31714234  1.00150843  0.62375575  1
  O  O150  1  0.63433563  0.33067213  0.12931337  1
  O  O151  1  0.65720140  0.32872194  0.61304774  1
  O  O152  1  0.64323707  0.65492666  0.12812840  1
  O  O153  1  0.63582541  0.66192667  0.61285776  1
  O  O154  1  0.63855925  0.99735375  0.13553865  1
  O  O155  1  0.65079628  1.00627572  0.61208077  1
  O  O156  1  0.96417540  0.32212685  0.12211677  1
  O  O157  1  0.96137354  0.32291001  0.63177525  1
  O  O158  1  0.96205017  0.65927215  0.12639433  1
  O  O159  1  0.97754619  0.64961955  0.62363081  1
  O  O160  1  0.96384407  0.98617130  0.12022494  1
  O  O161  1  0.96307853  0.99847805  0.63390501  1
  O  O162  1  0.17709250  0.16975307  0.12467221  1
  O  O163  1  0.19636763  0.16600230  0.62229276  1
  O  O164  1  0.17625131  0.49234159  0.13138218  1
  O  O165  1  0.20128988  0.49354300  0.62491038  1
  O  O166  1  0.19664219  0.83250523  0.12193797  1
  O  O167  1  0.18313533  0.83136759  0.61921441  1
  O  O168  1  0.52375692  0.16221899  0.12194222  1
  O  O169  1  0.51699662  0.16934252  0.61504257  1
  O  O170  1  0.53786310  0.49080583  0.12574396  1
  O  O171  1  0.52033593  0.50078109  0.62525054  1
  O  O172  1  0.53777925  0.82385846  0.13566321  1
  O  O173  1  0.52376788  0.81655224  0.61412410  1
  O  O174  1  0.86775968  0.16004395  0.12638497  1
  O  O175  1  0.86528702  0.15354213  0.62351236  1
  O  O176  1  0.85597931  0.48299818  0.12501226  1
  O  O177  1  0.86633212  0.48590859  0.61464243  1
  O  O178  1  0.86511500  0.82097327  0.12799199  1
  O  O179  1  0.85149984  0.83086898  0.62264794  1
  O  O180  1  0.14671936  0.17001551  0.38309816  1
  O  O181  1  0.12637043  0.17460722  0.87554844  1
  O  O182  1  0.13461787  0.50188262  0.38167981  1
  O  O183  1  0.13309212  0.50714866  0.86375143  1
  O  O184  1  0.14657632  0.83172588  0.36881181  1
  O  O185  1  0.12327268  0.84431307  0.88344292  1
  O  O186  1  0.46737369  0.16957772  0.37859395  1
  O  O187  1  0.48568395  0.17000613  0.88479976  1
  O  O188  1  0.48921448  0.49652085  0.36869759  1
  O  O189  1  0.47345602  0.50565328  0.88168596  1
  O  O190  1  0.48634853  0.83473211  0.37093106  1
  O  O191  1  0.48947362  0.85292944  0.87979461  1
  O  O192  1  0.80019091  0.17996892  0.37318808  1
  O  O193  1  0.81545354  0.17646817  0.87571739  1
  O  O194  1  0.79400933  0.50774125  0.37710924  1
  O  O195  1  0.81264355  0.51452618  0.87632050  1
  O  O196  1  0.79547554  0.84910760  0.36599194  1
  O  O197  1  0.81212410  0.83767320  0.88849623  1
  O  O198  1  0.01262968  0.00524650  0.37365936  1
  O  O199  1  0.02816423  0.01011586  0.87724074  1
  O  O200  1  0.00903558  0.34115198  0.37322061  1
  O  O201  1  0.02211561  0.34062761  0.87496180  1
  O  O202  1  0.01938789  0.66566882  0.37383468  1
  O  O203  1  0.03548151  0.68563829  0.87641111  1
  O  O204  1  0.35204840  0.01399755  0.37642420  1
  O  O205  1  0.37486681  0.00252059  0.87722400  1
  O  O206  1  0.35164074  0.33936991  0.37012894  1
  O  O207  1  0.35168969  0.34988735  0.86906133  1
  O  O208  1  0.34385851  0.66514115  0.37338246  1
  O  O209  1  0.37043068  0.66721714  0.86613297  1
  O  O210  1  0.70482703  0.01073673  0.37267182  1
  O  O211  1  0.67801381  0.00159930  0.87821537  1
  O  O212  1  0.70408368  0.34437113  0.36940218  1
  O  O213  1  0.70114327  0.33099977  0.88662919  1
  O  O214  1  0.70248623  0.67387995  0.36911694  1
  O  O215  1  0.69677683  0.67154106  0.88956763  1
  O  O216  1  0.05513026  0.09452189  0.02074264  1
  O  O217  1  0.07083020  0.10015963  0.52831783  1
  O  O218  1  0.06522833  0.42129527  0.00606043  1
  O  O219  1  0.06575245  0.43641625  0.52082368  1
  O  O220  1  0.06417931  0.77188348  0.02658161  1
  O  O221  1  0.08097629  0.75657678  0.51797098  1
  O  O222  1  0.41363391  0.09974105  0.02303609  1
  O  O223  1  0.40560804  0.10549763  0.51772111  1
  O  O224  1  0.41996040  0.42624505  0.02027596  1
  O  O225  1  0.40181111  0.43243964  0.52072081  1
  O  O226  1  0.39767986  0.76954801  0.02357963  1
  O  O227  1  0.42093636  0.75572201  0.51421191  1
  O  O228  1  0.75163716  0.09328083  0.02492609  1
  O  O229  1  0.73587207  0.09973164  0.50976421  1
  O  O230  1  0.73443748  0.42471754  0.03084476  1
  O  O231  1  0.74147168  0.42508600  0.51860716  1
  O  O232  1  0.73638621  0.76526518  0.03600243  1
  O  O233  1  0.73336440  0.75718358  0.50606527  1
  O  O234  1  0.07959629  0.25860563  0.02316951  1
  O  O235  1  0.08765379  0.25392485  0.52356681  1
  O  O236  1  0.09797636  0.59647927  0.00962098  1
  O  O237  1  0.09931390  0.58990595  0.53097360  1
  O  O238  1  0.08760578  0.92805078  0.02557897  1
  O  O239  1  0.09261345  0.92093187  0.51061397  1
  O  O240  1  0.43860900  0.26388000  0.02293918  1
  O  O241  1  0.42578609  0.25569098  0.51711178  1
  O  O242  1  0.43691910  0.59087819  0.00847703  1
  O  O243  1  0.42777075  0.59624826  0.52734413  1
  O  O244  1  0.43074788  0.92814275  0.03503424  1
  O  O245  1  0.43493232  0.91778583  0.50887011  1
  O  O246  1  0.77182586  0.26624536  0.02428396  1
  O  O247  1  0.76942748  0.26711286  0.51367327  1
  O  O248  1  0.76347036  0.60183161  0.03079423  1
  O  O249  1  0.76490229  0.59509703  0.51277601  1
  O  O250  1  0.77035458  0.92673880  0.03575834  1
  O  O251  1  0.76305550  0.94056403  0.51286152  1
  O  O252  1  0.25034253  0.08629698  0.27033480  1
  O  O253  1  0.22910225  0.06898658  0.78040665  1
  O  O254  1  0.23908088  0.40717939  0.26809653  1
  O  O255  1  0.23819363  0.41073647  0.77164644  1
  O  O256  1  0.24015796  0.74821034  0.25856491  1
  O  O257  1  0.23857743  0.72759415  0.77380886  1
  O  O258  1  0.58895041  0.07741260  0.27622504  1
  O  O259  1  0.56744058  0.06923028  0.76701196  1
  O  O260  1  0.57819005  0.40352564  0.26971619  1
  O  O261  1  0.57924966  0.40751177  0.76489964  1
  O  O262  1  0.57974004  0.73925167  0.27640300  1
  O  O263  1  0.55953964  0.72883370  0.76978299  1
  O  O264  1  0.89011961  0.06995704  0.26681388  1
  O  O265  1  0.90895191  0.07451150  0.77673122  1
  O  O266  1  0.89832275  0.39803114  0.27199908  1
  O  O267  1  0.90816206  0.39844814  0.78180592  1
  O  O268  1  0.88586291  0.73637118  0.27107126  1
  O  O269  1  0.90400699  0.73585979  0.78304133  1
  O  O270  1  0.26754111  0.24710166  0.27272982  1
  O  O271  1  0.25882296  0.24712811  0.76519000  1
  O  O272  1  0.24993433  0.56931329  0.26069480  1
  O  O273  1  0.26381712  0.56465501  0.77585753  1
  O  O274  1  0.25764178  0.90419378  0.26051200  1
  O  O275  1  0.24787804  0.91091615  0.77758286  1
  O  O276  1  0.60620606  0.24057257  0.27553805  1
  O  O277  1  0.59433914  0.24083463  0.76009564  1
  O  O278  1  0.60803826  0.56417751  0.26701614  1
  O  O279  1  0.58739012  0.57857083  0.78043271  1
  O  O280  1  0.60977693  0.90033732  0.27172223  1
  O  O281  1  0.59343963  0.90799550  0.75740015  1
  O  O282  1  0.92297384  0.23799296  0.26947567  1
  O  O283  1  0.93419357  0.23462016  0.77961819  1
  O  O284  1  0.92281203  0.56884255  0.28332861  1
  O  O285  1  0.94303960  0.55869884  0.76617902  1
  O  O286  1  0.91635674  0.90406081  0.26634320  1
  O  O287  1  0.93487796  0.90530750  0.78009795  1
  O  O288  1  0.25965422  0.23630935  0.48140189  1
  O  O289  1  0.25798134  0.24333035  0.98766269  1
  O  O290  1  0.25803844  0.56575013  0.49102810  1
  O  O291  1  0.25961040  0.57820050  0.96232421  1
  O  O292  1  0.25267124  0.90741929  0.48247895  1
  O  O293  1  0.24771514  0.90270629  0.97649707  1
  O  O294  1  0.60193492  0.23770962  0.47100223  1
  O  O295  1  0.59912670  0.23940501  0.98528620  1
  O  O296  1  0.60414343  0.57136651  0.47059691  1
  O  O297  1  0.60235318  0.57253636  0.98594434  1
  O  O298  1  0.60479272  0.90508291  0.47110487  1
  O  O299  1  0.60297164  0.90180257  1.00477648  1
  O  O300  1  0.91942047  0.23776492  0.48426247  1
  O  O301  1  0.92959520  0.23564893  0.97407295  1
  O  O302  1  0.92370475  0.56003969  0.47114526  1
  O  O303  1  0.93205140  0.56897684  0.96613986  1
  O  O304  1  0.91941264  0.91264517  0.47550827  1
  O  O305  1  0.93306228  0.89479850  0.98503701  1
  O  O306  1  0.23959825  0.08407513  0.48062455  1
  O  O307  1  0.23310159  0.06554315  0.97485430  1
  O  O308  1  0.23077701  0.40895676  0.48657504  1
  O  O309  1  0.25254368  0.41993773  0.98195758  1
  O  O310  1  0.23833840  0.74424013  0.49394140  1
  O  O311  1  0.22172239  0.74080007  0.97205886  1
  O  O312  1  0.57729087  0.08032142  0.47013245  1
  O  O313  1  0.56384959  0.06906718  0.98748807  1
  O  O314  1  0.58584406  0.40592878  0.47823824  1
  O  O315  1  0.57461261  0.40085123  0.99083776  1
  O  O316  1  0.58062064  0.73854779  0.46918072  1
  O  O317  1  0.57187779  0.72832768  0.98083898  1
  O  O318  1  0.89150138  0.07112827  0.47954809  1
  O  O319  1  0.90501851  0.07138437  0.98058952  1
  O  O320  1  0.89387394  0.40281657  0.47270223  1
  O  O321  1  0.90175412  0.39593580  0.97399852  1
  O  O322  1  0.89883717  0.73223908  0.47253844  1
  O  O323  1  0.89514994  0.73647253  0.97897749  1
  O  O324  1  0.08161691  0.26218994  0.23398610  1
  O  O325  1  0.08025612  0.25712126  0.72278588  1
  O  O326  1  0.09080942  0.58243848  0.23877174  1
  O  O327  1  0.10578264  0.59202010  0.72111610  1
  O  O328  1  0.08891211  0.91817183  0.22698962  1
  O  O329  1  0.08501961  0.93468830  0.73856325  1
  O  O330  1  0.43089799  0.27082181  0.22966828  1
  O  O331  1  0.41802977  0.26646529  0.73587061  1
  O  O332  1  0.43370199  0.58279202  0.23556225  1
  O  O333  1  0.42018827  0.59407102  0.71982090  1
  O  O334  1  0.43983877  0.92160932  0.22434052  1
  O  O335  1  0.42301689  0.92171184  0.73379398  1
  O  O336  1  0.76845674  0.27115695  0.22852294  1
  O  O337  1  0.77888764  0.26096141  0.73012414  1
  O  O338  1  0.76147476  0.60064874  0.22319209  1
  O  O339  1  0.76384247  0.59568837  0.73978208  1
  O  O340  1  0.76490987  0.93266242  0.22116591  1
  O  O341  1  0.77039599  0.93783947  0.72607680  1
  O  O342  1  0.06475775  0.09842846  0.22568021  1
  O  O343  1  0.05755271  0.09690200  0.72806563  1
  O  O344  1  0.06061602  0.42837346  0.24515328  1
  O  O345  1  0.06590630  0.43177643  0.72503468  1
  O  O346  1  0.07142882  0.76460854  0.22381012  1
  O  O347  1  0.07965434  0.75320226  0.72236002  1
  O  O348  1  0.42422395  0.08434899  0.22464581  1
  O  O349  1  0.39711353  0.10657232  0.72759992  1
  O  O350  1  0.41681701  0.42580868  0.22310891  1
  O  O351  1  0.39304104  0.43339246  0.73216287  1
  O  O352  1  0.41299348  0.76871250  0.23038789  1
  O  O353  1  0.40058848  0.74810505  0.72171959  1
  O  O354  1  0.74136373  0.09445543  0.22815870  1
  O  O355  1  0.75138060  0.09744455  0.72800242  1
  O  O356  1  0.73072671  0.42919051  0.22323210  1
  O  O357  1  0.75161905  0.41718124  0.72466854  1
  O  O358  1  0.73191033  0.76574656  0.22328865  1
  O  O359  1  0.73583725  0.76254073  0.74001397  1
