# generated using pymatgen
data_BaLaInIrO6
_symmetry_space_group_name_H-M   'P 1'
_cell_length_a   17.55122962
_cell_length_b   17.58203524
_cell_length_c   16.50774279
_cell_angle_alpha   89.95199297
_cell_angle_beta   90.01627274
_cell_angle_gamma   90.07841930
_symmetry_Int_Tables_number   1
_chemical_formula_structural   BaLaInIrO6
_chemical_formula_sum   'Ba36 La36 In36 Ir36 O216'
_cell_volume   5094.05712640
_cell_formula_units_Z   36
loop_
 _symmetry_equiv_pos_site_id
 _symmetry_equiv_pos_as_xyz
  1  'x, y, z'
loop_
 _atom_site_type_symbol
 _atom_site_label
 _atom_site_symmetry_multiplicity
 _atom_site_fract_x
 _atom_site_fract_y
 _atom_site_fract_z
 _atom_site_occupancy
  Ba  Ba0  1  0.83412816  0.32458690  0.37716621  1
  Ba  Ba1  1  0.17036428  0.32803502  0.87526936  1
  Ba  Ba2  1  0.33410300  0.82729075  0.37626381  1
  Ba  Ba3  1  0.50170978  0.67594265  0.62399381  1
  Ba  Ba4  1  0.83981818  0.65865906  0.87395716  1
  Ba  Ba5  1  0.50091891  0.32459862  0.37861261  1
  Ba  Ba6  1  0.16881773  0.00584306  0.12809061  1
  Ba  Ba7  1  0.83535523  0.99292191  0.87401681  1
  Ba  Ba8  1  0.50503617  0.98997107  0.37799224  1
  Ba  Ba9  1  0.00172085  0.49195225  0.87985585  1
  Ba  Ba10  1  0.49892191  0.65749213  0.37686270  1
  Ba  Ba11  1  0.33766089  0.84108429  0.12764177  1
  Ba  Ba12  1  0.50417436  0.99086617  0.87313215  1
  Ba  Ba13  1  0.83089509  0.99396717  0.37421427  1
  Ba  Ba14  1  -0.00480987  0.48671745  0.37575782  1
  Ba  Ba15  1  0.33475461  0.15711178  0.37913808  1
  Ba  Ba16  1  0.50040274  0.34376706  0.62003893  1
  Ba  Ba17  1  0.66405288  0.17306931  0.12202935  1
  Ba  Ba18  1  1.00297071  0.84248077  0.12086083  1
  Ba  Ba19  1  0.49580668  0.67430323  0.12514030  1
  Ba  Ba20  1  0.65989178  0.15710221  0.37678266  1
  Ba  Ba21  1  0.00094000  0.82607405  0.87383056  1
  Ba  Ba22  1  0.99586230  0.84033410  0.62369385  1
  Ba  Ba23  1  0.49821893  0.34194783  0.13311478  1
  Ba  Ba24  1  0.66940996  0.84114206  0.12402029  1
  Ba  Ba25  1  0.16433226  0.67283513  0.12422877  1
  Ba  Ba26  1  0.84264720  0.32457002  0.87584808  1
  Ba  Ba27  1  0.83253183  0.67503630  0.12500965  1
  Ba  Ba28  1  0.16071771  0.00976788  0.62239265  1
  Ba  Ba29  1  0.16628763  0.65926752  0.37610410  1
  Ba  Ba30  1  0.33767253  0.84367788  0.61982424  1
  Ba  Ba31  1  0.83620440  0.01088179  0.62722897  1
  Ba  Ba32  1  0.16261382  0.65192936  0.87375177  1
  Ba  Ba33  1  0.17082742  0.99088670  0.37662710  1
  Ba  Ba34  1  0.50015384  0.32631916  0.87396977  1
  Ba  Ba35  1  0.83288825  0.65861674  0.37727444  1
  La  La36  1  0.16226948  0.68078135  0.62385093  1
  La  La37  1  0.33587596  0.49641618  0.87441534  1
  La  La38  1  0.49369924  0.01592321  0.62161552  1
  La  La39  1  0.16306192  0.34627514  0.12665560  1
  La  La40  1  0.33254721  0.50999343  0.12423572  1
  La  La41  1  0.67252823  0.85179573  0.62471384  1
  La  La42  1  0.67145552  0.51742947  0.62330054  1
  La  La43  1  0.82963234  0.34785022  0.12356413  1
  La  La44  1  0.50382976  0.65390070  0.87519439  1
  La  La45  1  0.32985805  0.80968529  0.87197479  1
  La  La46  1  0.83424360  0.34994074  0.62357543  1
  La  La47  1  0.66949599  0.18527788  0.62652191  1
  La  La48  1  0.00114343  0.82655910  0.36481602  1
  La  La49  1  0.32802575  0.15148719  0.87719240  1
  La  La50  1  0.66690357  0.15325653  0.87358439  1
  La  La51  1  -0.00367233  0.15611310  0.87522663  1
  La  La52  1  0.99801800  0.51187999  0.12462875  1
  La  La53  1  0.33100340  0.49758895  0.37449437  1
  La  La54  1  0.16815695  0.31906936  0.38016744  1
  La  La55  1  1.00038219  0.18063726  0.12749576  1
  La  La56  1  0.65907706  0.48681875  0.37688965  1
  La  La57  1  0.66416494  0.81430181  0.87259652  1
  La  La58  1  0.33572187  0.51281149  0.62544589  1
  La  La59  1  0.33615370  0.17747617  0.62410296  1
  La  La60  1  0.82818538  0.01441714  0.12161647  1
  La  La61  1  0.67183503  0.51095132  0.12467282  1
  La  La62  1  0.66551820  0.48516049  0.87307395  1
  La  La63  1  1.00104986  0.51304954  0.62636797  1
  La  La64  1  0.82661976  0.68576765  0.62285361  1
  La  La65  1  0.49355324  0.01338406  0.13091228  1
  La  La66  1  0.33936110  0.17666329  0.12445950  1
  La  La67  1  1.00499140  0.18230322  0.61923159  1
  La  La68  1  0.16529789  0.35258941  0.62326459  1
  La  La69  1  -0.00426426  0.15189500  0.37545298  1
  La  La70  1  0.65902131  0.81755998  0.37720328  1
  La  La71  1  0.16956766  0.98207952  0.87508463  1
  In  In72  1  0.83304419  0.16976405  0.24842250  1
  In  In73  1  0.49912392  0.16718784  0.25216634  1
  In  In74  1  0.66640203  -0.00229819  0.24817984  1
  In  In75  1  0.00381570  0.33493453  0.75120818  1
  In  In76  1  0.16830774  0.83237786  0.74883078  1
  In  In77  1  0.50117262  0.83502993  -0.00118637  1
  In  In78  1  0.33405135  0.66424024  0.25040385  1
  In  In79  1  0.16632640  0.16581118  -0.00161642  1
  In  In80  1  0.83130183  0.83680448  0.00072862  1
  In  In81  1  0.50202513  0.49922583  0.74641418  1
  In  In82  1  -0.00299849  -0.00374243  0.49659883  1
  In  In83  1  0.33226124  0.33585188  0.49999562  1
  In  In84  1  0.83540365  0.17001843  0.74993815  1
  In  In85  1  0.50078706  0.83349572  0.74796963  1
  In  In86  1  0.16665668  0.16853176  0.24999930  1
  In  In87  1  -0.00126542  0.66693486  -0.00135024  1
  In  In88  1  0.66747179  0.33357943  0.24830117  1
  In  In89  1  0.33525717  -0.00223023  -0.00280536  1
  In  In90  1  0.33170845  0.33482720  0.74823920  1
  In  In91  1  -0.00108971  0.66604021  0.25241798  1
  In  In92  1  0.50029460  0.17032155  0.74927827  1
  In  In93  1  0.83184601  0.16814830  0.50069199  1
  In  In94  1  -0.00284103  0.66613104  0.50145958  1
  In  In95  1  0.66539129  0.66591318  0.24919343  1
  In  In96  1  0.00213602  0.00294647  0.75043122  1
  In  In97  1  0.33428049  0.66607569  0.50220983  1
  In  In98  1  0.33314913  0.33417849  0.00168808  1
  In  In99  1  0.33245786  0.00096976  0.25289119  1
  In  In100  1  0.50250088  0.49726848  0.00301791  1
  In  In101  1  0.83209371  0.49848904  0.25378494  1
  In  In102  1  0.49918580  0.16938885  -0.00325905  1
  In  In103  1  0.83093257  0.83476005  0.75112517  1
  In  In104  1  0.16787206  0.83226760  0.25028683  1
  In  In105  1  0.17141798  0.83020909  -0.00078116  1
  In  In106  1  0.33510250  -0.00100780  0.74812962  1
  In  In107  1  0.83314170  0.49809012  -0.00427683  1
  Ir  Ir108  1  -0.00065814  0.00786097  0.00268498  1
  Ir  Ir109  1  0.66797552  0.66629731  0.50417952  1
  Ir  Ir110  1  0.83544798  0.16828824  -0.00016296  1
  Ir  Ir111  1  0.00214318  0.33455419  0.49954890  1
  Ir  Ir112  1  0.83130791  0.49813608  0.50451026  1
  Ir  Ir113  1  0.50419026  0.16601967  0.50560963  1
  Ir  Ir114  1  0.66859961  0.66419818  0.75017429  1
  Ir  Ir115  1  0.82599619  0.83395179  0.49692135  1
  Ir  Ir116  1  0.16707773  0.49425746  0.00438558  1
  Ir  Ir117  1  -0.00374424  0.66048428  0.74348441  1
  Ir  Ir118  1  0.66693036  0.33806793  0.50758372  1
  Ir  Ir119  1  -0.00006935  0.33086229  0.00716374  1
  Ir  Ir120  1  0.49848764  0.49799048  0.25326856  1
  Ir  Ir121  1  0.33331770  0.00217617  0.50384781  1
  Ir  Ir122  1  0.33589757  0.65990891  -0.00420033  1
  Ir  Ir123  1  -0.00424497  0.00241402  0.24706771  1
  Ir  Ir124  1  0.67310506  0.33670550  0.74997227  1
  Ir  Ir125  1  0.66819629  0.00095055  -0.00494070  1
  Ir  Ir126  1  0.66505182  0.00115524  0.74933166  1
  Ir  Ir127  1  0.00249041  0.33206561  0.25003908  1
  Ir  Ir128  1  0.66441588  -0.00038790  0.50637284  1
  Ir  Ir129  1  0.16493394  0.49318826  0.25259249  1
  Ir  Ir130  1  0.16631868  0.83222475  0.50241515  1
  Ir  Ir131  1  0.32667517  0.33763291  0.25424725  1
  Ir  Ir132  1  0.16581764  0.16946199  0.74749788  1
  Ir  Ir133  1  0.50268457  0.50104165  0.50062495  1
  Ir  Ir134  1  0.16450938  0.49738097  0.50079943  1
  Ir  Ir135  1  0.66508936  0.66336045  -0.00637091  1
  Ir  Ir136  1  0.16743531  0.50081683  0.74590953  1
  Ir  Ir137  1  0.83158700  0.83744753  0.25275425  1
  Ir  Ir138  1  0.16605900  0.17085309  0.50412398  1
  Ir  Ir139  1  0.50780571  0.83322510  0.50085124  1
  Ir  Ir140  1  0.33203386  0.66104509  0.74938193  1
  Ir  Ir141  1  0.67202280  0.33280635  -0.00510129  1
  Ir  Ir142  1  0.50479928  0.83202199  0.25295080  1
  Ir  Ir143  1  0.83206473  0.50103532  0.74407631  1
  O  O144  1  0.29994499  0.32117401  0.13535397  1
  O  O145  1  0.29977589  0.32133078  0.62251264  1
  O  O146  1  0.31686796  0.64943880  0.11738696  1
  O  O147  1  0.30087723  0.65161041  0.62890296  1
  O  O148  1  0.32079339  0.99687479  0.12422373  1
  O  O149  1  0.30979113  1.00160190  0.62088680  1
  O  O150  1  0.64862224  0.33145662  0.11228854  1
  O  O151  1  0.64618428  0.32406376  0.63031359  1
  O  O152  1  0.64291335  0.65225591  0.11464231  1
  O  O153  1  0.64736585  0.65280294  0.62741618  1
  O  O154  1  0.63386558  0.99490804  0.11259585  1
  O  O155  1  0.63326024  0.98670584  0.62911385  1
  O  O156  1  0.96758055  0.31996839  0.12927926  1
  O  O157  1  0.97193082  0.32388443  0.61896602  1
  O  O158  1  0.98466438  0.64954197  0.12695236  1
  O  O159  1  0.96717181  0.65179818  0.62513252  1
  O  O160  1  0.96515655  0.99964312  0.12461671  1
  O  O161  1  0.98682753  0.99900392  0.62241007  1
  O  O162  1  0.20152397  0.16808937  0.12471515  1
  O  O163  1  0.20013121  0.16433803  0.62593615  1
  O  O164  1  0.19619653  0.48658294  0.12989278  1
  O  O165  1  0.19755028  0.49263870  0.62207877  1
  O  O166  1  0.18411882  0.84097546  0.12322106  1
  O  O167  1  0.18722209  0.82446229  0.62233610  1
  O  O168  1  0.51372606  0.15427594  0.12215080  1
  O  O169  1  0.53390170  0.16264408  0.62382315  1
  O  O170  1  0.53407109  0.49942330  0.13220095  1
  O  O171  1  0.53552455  0.50221706  0.61979080  1
  O  O172  1  0.51999876  0.82732693  0.13139961  1
  O  O173  1  0.53626819  0.82748984  0.62027460  1
  O  O174  1  0.86561301  0.15879371  0.11868540  1
  O  O175  1  0.86699384  0.17009153  0.62386835  1
  O  O176  1  0.86032826  0.48729324  0.12500300  1
  O  O177  1  0.86368643  0.49111174  0.62409541  1
  O  O178  1  0.85072307  0.83408928  0.13319996  1
  O  O179  1  0.84129332  0.83109755  0.61838297  1
  O  O180  1  0.13182749  0.18078688  0.38352856  1
  O  O181  1  0.13090465  0.17738450  0.86546395  1
  O  O182  1  0.14095758  0.50263984  0.37650249  1
  O  O183  1  0.14824392  0.49672587  0.87247064  1
  O  O184  1  0.13841043  0.83058862  0.38321317  1
  O  O185  1  0.15018328  0.83748179  0.87415045  1
  O  O186  1  0.48828069  0.16426421  0.38503620  1
  O  O187  1  0.46786164  0.17065873  0.87212584  1
  O  O188  1  0.46794247  0.49940764  0.37660183  1
  O  O189  1  0.47374271  0.50699654  0.87339019  1
  O  O190  1  0.48574035  0.83476116  0.37732812  1
  O  O191  1  0.46720811  0.83304683  0.87266427  1
  O  O192  1  0.81042410  0.17204811  0.37554451  1
  O  O193  1  0.80247850  0.17318020  0.88011153  1
  O  O194  1  0.79805728  0.49826438  0.38511653  1
  O  O195  1  0.80292956  0.50157208  0.86488069  1
  O  O196  1  0.79708942  0.83694287  0.37632024  1
  O  O197  1  0.79780943  0.83496294  0.87453098  1
  O  O198  1  0.01945495  0.01172805  0.36788488  1
  O  O199  1  0.03164293  0.02012298  0.88298970  1
  O  O200  1  0.03410018  0.33812806  0.37313645  1
  O  O201  1  0.02077306  0.33796489  0.88545962  1
  O  O202  1  0.01274335  0.68469304  0.37975073  1
  O  O203  1  0.01178215  0.66307005  0.86304809  1
  O  O204  1  0.35460861  0.00087200  0.38538572  1
  O  O205  1  0.35791995  0.02039954  0.87072755  1
  O  O206  1  0.35043007  0.35627380  0.37354582  1
  O  O207  1  0.34722135  0.36125480  0.87373202  1
  O  O208  1  0.34675230  0.64819355  0.37734790  1
  O  O209  1  0.36477388  0.66337588  0.87157579  1
  O  O210  1  0.68085604  0.00475272  0.38538419  1
  O  O211  1  0.69081760  0.01703562  0.87060796  1
  O  O212  1  0.68499242  0.34802772  0.38558739  1
  O  O213  1  0.69714325  0.34914729  0.87166826  1
  O  O214  1  0.68451579  0.67517262  0.38352005  1
  O  O215  1  0.69281374  0.67619440  0.87101405  1
  O  O216  1  0.06060897  0.10304984  0.02586298  1
  O  O217  1  0.07163995  0.10680157  0.51908344  1
  O  O218  1  0.06812492  0.42641050  0.03456527  1
  O  O219  1  0.06781846  0.43127781  0.52869962  1
  O  O220  1  0.07956559  0.75306180  0.01065693  1
  O  O221  1  0.08223414  0.75479960  0.52583209  1
  O  O222  1  0.39297107  0.10600765  0.01539635  1
  O  O223  1  0.40698111  0.09620388  0.53000765  1
  O  O224  1  0.40131867  0.43482123  0.02715141  1
  O  O225  1  0.40505935  0.43515358  0.52200151  1
  O  O226  1  0.40176346  0.75398960  0.00834478  1
  O  O227  1  0.41628661  0.76036080  0.51353264  1
  O  O228  1  0.74339861  0.09423151  0.02020271  1
  O  O229  1  0.72829116  0.09564815  0.52986348  1
  O  O230  1  0.73753118  0.42534608  0.02209760  1
  O  O231  1  0.73587449  0.43107184  0.53291566  1
  O  O232  1  0.73228820  0.75370464  0.01131015  1
  O  O233  1  0.73166427  0.76408276  0.52731137  1
  O  O234  1  0.09179190  0.26491589  0.03203487  1
  O  O235  1  0.09957696  0.26913915  0.52668450  1
  O  O236  1  0.09325696  0.57970830  0.01524663  1
  O  O237  1  0.09791489  0.59003985  0.52867366  1
  O  O238  1  0.09034204  0.94006512  0.00814479  1
  O  O239  1  0.09246809  0.91835732  0.51257191  1
  O  O240  1  0.42767413  0.26515084  0.02323278  1
  O  O241  1  0.42561184  0.25175505  0.51877214  1
  O  O242  1  0.42777352  0.59507498  0.00919526  1
  O  O243  1  0.42639778  0.58443860  0.52536103  1
  O  O244  1  0.44375927  0.93749233  0.02217043  1
  O  O245  1  0.43462239  0.93226991  0.52508281  1
  O  O246  1  0.76916597  0.26494265  0.02263689  1
  O  O247  1  0.75880103  0.26829959  0.53108256  1
  O  O248  1  0.74896208  0.58719998  0.01775855  1
  O  O249  1  0.76323637  0.59488289  0.53119267  1
  O  O250  1  0.76128220  0.93669019  0.02311881  1
  O  O251  1  0.75654873  0.92991101  0.52154924  1
  O  O252  1  0.23954468  0.07906283  0.27155201  1
  O  O253  1  0.22732331  0.07468738  0.77541688  1
  O  O254  1  0.22939221  0.40075879  0.27497358  1
  O  O255  1  0.23087405  0.40739386  0.75409450  1
  O  O256  1  0.24007442  0.73432577  0.26106647  1
  O  O257  1  0.24200855  0.72943925  0.76487043  1
  O  O258  1  0.57063785  0.06752954  0.25612378  1
  O  O259  1  0.57834936  0.07319447  0.76455416  1
  O  O260  1  0.57295626  0.41449108  0.27426301  1
  O  O261  1  0.58340033  0.40757502  0.77114441  1
  O  O262  1  0.57446261  0.74172509  0.26981691  1
  O  O263  1  0.57448184  0.73128394  0.77645750  1
  O  O264  1  0.91093156  0.07402368  0.26431900  1
  O  O265  1  0.91227621  0.08072472  0.77554595  1
  O  O266  1  0.90905658  0.39739966  0.26348102  1
  O  O267  1  0.89926324  0.40743989  0.75436975  1
  O  O268  1  0.90319568  0.75205550  0.27329502  1
  O  O269  1  0.90308720  0.73075783  0.74939363  1
  O  O270  1  0.25496331  0.25341170  0.28470181  1
  O  O271  1  0.26217373  0.22860425  0.77103787  1
  O  O272  1  0.26183699  0.55521923  0.26538733  1
  O  O273  1  0.26879527  0.56157271  0.76779639  1
  O  O274  1  0.25926325  0.90747994  0.26949646  1
  O  O275  1  0.27145311  0.89791286  0.77378398  1
  O  O276  1  0.58923643  0.24599413  0.26255658  1
  O  O277  1  0.61031757  0.23874186  0.76955229  1
  O  O278  1  0.59100501  0.56539435  0.27695982  1
  O  O279  1  0.60139342  0.57163271  0.77564597  1
  O  O280  1  0.60061885  0.89520267  0.27269332  1
  O  O281  1  0.60627070  0.90106311  0.77150194  1
  O  O282  1  0.94244368  0.23459270  0.27053992  1
  O  O283  1  0.93761559  0.23777479  0.77268255  1
  O  O284  1  0.92319677  0.57346828  0.26849817  1
  O  O285  1  0.92974546  0.56316026  0.76026927  1
  O  O286  1  0.92897686  0.90627717  0.27360948  1
  O  O287  1  0.92465773  0.90753954  0.76381065  1
  O  O288  1  0.25407674  0.24063886  0.48104210  1
  O  O289  1  0.26591361  0.23398399  0.97313181  1
  O  O290  1  0.26212708  0.55757583  0.48522180  1
  O  O291  1  0.26971714  0.55741278  0.98257008  1
  O  O292  1  0.25885333  0.90657233  0.48375688  1
  O  O293  1  0.27060496  0.89807563  0.96670641  1
  O  O294  1  0.59986135  0.23852539  0.49223819  1
  O  O295  1  0.60612611  0.24092190  0.96938216  1
  O  O296  1  0.60316069  0.56685737  0.48053918  1
  O  O297  1  0.59544408  0.57419582  0.96633556  1
  O  O298  1  0.60598174  0.89809552  0.48477531  1
  O  O299  1  0.60920831  0.90382571  0.96951300  1
  O  O300  1  0.94122908  0.23939124  0.47667904  1
  O  O301  1  0.93522807  0.23288816  0.98122564  1
  O  O302  1  0.92310572  0.56519833  0.48751356  1
  O  O303  1  0.92604656  0.57060431  0.98914075  1
  O  O304  1  0.92249915  0.89592356  0.47168497  1
  O  O305  1  0.92979801  0.91895893  0.98287416  1
  O  O306  1  0.23694133  0.07749373  0.48350474  1
  O  O307  1  0.22919839  0.06644323  0.96850790  1
  O  O308  1  0.22521173  0.40140116  0.48237562  1
  O  O309  1  0.23076216  0.40102203  1.00014251  1
  O  O310  1  0.23775971  0.74142806  0.49191269  1
  O  O311  1  0.24924019  0.72942341  0.97683012  1
  O  O312  1  0.56926860  0.06547603  0.49709080  1
  O  O313  1  0.58463177  0.07741092  0.97450197  1
  O  O314  1  0.57745481  0.41349794  0.47813465  1
  O  O315  1  0.58533767  0.40793174  0.97383673  1
  O  O316  1  0.57810979  0.74106897  0.47681187  1
  O  O317  1  0.57382261  0.73473097  0.96907185  1
  O  O318  1  0.91140604  0.07908620  0.47700021  1
  O  O319  1  0.90552972  0.07782027  0.97935058  1
  O  O320  1  0.90004248  0.40019588  0.49021369  1
  O  O321  1  0.90803261  0.39767568  0.99375448  1
  O  O322  1  0.89274208  0.74010825  0.49644991  1
  O  O323  1  0.90754956  0.74688302  0.98703257  1
  O  O324  1  0.09548150  0.26792335  0.22666951  1
  O  O325  1  0.10375904  0.26531814  0.71711160  1
  O  O326  1  0.09594089  0.58115589  0.23298036  1
  O  O327  1  0.09528547  0.59321026  0.71914075  1
  O  O328  1  0.08135283  0.93093844  0.23894494  1
  O  O329  1  0.10065242  0.93360084  0.74850880  1
  O  O330  1  0.41201346  0.26291307  0.23886849  1
  O  O331  1  0.42396526  0.26090634  0.72396275  1
  O  O332  1  0.42392466  0.58090120  0.22889108  1
  O  O333  1  0.42275733  0.59434212  0.73116753  1
  O  O334  1  0.44033349  0.92682774  0.23442136  1
  O  O335  1  0.43820661  0.93303342  0.72050745  1
  O  O336  1  0.76854815  0.26855031  0.22409401  1
  O  O337  1  0.76588643  0.27073516  0.72408061  1
  O  O338  1  0.75076182  0.58701677  0.22718434  1
  O  O339  1  0.76471109  0.59663532  0.72077568  1
  O  O340  1  0.76786610  0.92976296  0.22707384  1
  O  O341  1  0.75180878  0.93047799  0.72841741  1
  O  O342  1  0.06137588  0.09814811  0.22775913  1
  O  O343  1  0.07060243  0.11167590  0.72403500  1
  O  O344  1  0.06876642  0.42742192  0.22185638  1
  O  O345  1  0.07274817  0.43352839  0.72028261  1
  O  O346  1  0.06768611  0.76424092  0.24286050  1
  O  O347  1  0.07152324  0.74755974  0.72445006  1
  O  O348  1  0.40307723  0.09764449  0.22726368  1
  O  O349  1  0.40533129  0.09750895  0.71541996  1
  O  O350  1  0.39740473  0.43100367  0.22752605  1
  O  O351  1  0.40217925  0.43403882  0.72103512  1
  O  O352  1  0.41484106  0.75971553  0.24133521  1
  O  O353  1  0.39974313  0.75400068  0.73509680  1
  O  O354  1  0.74745839  0.08630125  0.22216100  1
  O  O355  1  0.73005142  0.09948672  0.72847975  1
  O  O356  1  0.73523610  0.42968292  0.22312201  1
  O  O357  1  0.73577071  0.43597624  0.72257463  1
  O  O358  1  0.74201595  0.76558281  0.24105202  1
  O  O359  1  0.73233613  0.75892593  0.72352215  1
