# generated using pymatgen
data_BaLaInIrO6
_symmetry_space_group_name_H-M   'P 1'
_cell_length_a   17.51600028
_cell_length_b   17.53589149
_cell_length_c   16.47840527
_cell_angle_alpha   90.01535863
_cell_angle_beta   90.02065066
_cell_angle_gamma   90.02247325
_symmetry_Int_Tables_number   1
_chemical_formula_structural   BaLaInIrO6
_chemical_formula_sum   'Ba36 La36 In36 Ir36 O216'
_cell_volume   5061.48431637
_cell_formula_units_Z   36
loop_
 _symmetry_equiv_pos_site_id
 _symmetry_equiv_pos_as_xyz
  1  'x, y, z'
loop_
 _atom_site_type_symbol
 _atom_site_label
 _atom_site_symmetry_multiplicity
 _atom_site_fract_x
 _atom_site_fract_y
 _atom_site_fract_z
 _atom_site_occupancy
  Ba  Ba0  1  0.49888123  0.33945679  0.62353515  1
  Ba  Ba1  1  0.66874130  0.17669730  0.12126106  1
  Ba  Ba2  1  0.33097013  0.17446355  0.62769311  1
  Ba  Ba3  1  0.00032576  0.49167108  0.87240623  1
  Ba  Ba4  1  0.33234413  0.15355481  0.87336646  1
  Ba  Ba5  1  0.32947470  0.49217025  0.87412947  1
  Ba  Ba6  1  0.83479662  0.65536801  0.87565907  1
  Ba  Ba7  1  0.83105919  0.34339458  0.12688145  1
  Ba  Ba8  1  0.83373413  0.67192838  0.62448344  1
  Ba  Ba9  1  0.49813477  0.01055609  0.12346635  1
  Ba  Ba10  1  0.50387135  0.65647702  0.87752052  1
  Ba  Ba11  1  -0.00385047  0.15672050  0.37363504  1
  Ba  Ba12  1  0.16970085  0.66065908  0.87323686  1
  Ba  Ba13  1  0.66117502  0.15647125  0.87239770  1
  Ba  Ba14  1  0.33687925  0.50708274  0.62156326  1
  Ba  Ba15  1  0.99920145  0.83875029  0.12737359  1
  Ba  Ba16  1  0.66476010  0.50722050  0.62431478  1
  Ba  Ba17  1  1.00375915  0.50816049  0.62265850  1
  Ba  Ba18  1  0.49920647  0.32305000  0.37564676  1
  Ba  Ba19  1  0.16482100  0.32773568  0.37583442  1
  Ba  Ba20  1  0.83573222  0.65320761  0.36920645  1
  Ba  Ba21  1  0.33587208  0.51095009  0.12207314  1
  Ba  Ba22  1  1.00075412  0.50964015  0.12478039  1
  Ba  Ba23  1  0.32825445  0.16216304  0.37842732  1
  Ba  Ba24  1  0.16589009  0.67339213  0.62583331  1
  Ba  Ba25  1  0.16557286  0.99794497  0.37769376  1
  Ba  Ba26  1  0.66571954  0.82359021  0.37535114  1
  Ba  Ba27  1  0.16779213  0.66202100  0.37176353  1
  Ba  Ba28  1  0.33212522  0.84684285  0.62709630  1
  Ba  Ba29  1  0.83498691  0.67125947  0.12255462  1
  Ba  Ba30  1  0.83822170  0.98735796  0.37785415  1
  Ba  Ba31  1  1.00064398  0.17600403  0.62947896  1
  Ba  Ba32  1  0.66459942  0.82332062  0.87630460  1
  Ba  Ba33  1  0.16905900  0.98924050  0.87536387  1
  Ba  Ba34  1  0.16803592  0.00964806  0.12293607  1
  Ba  Ba35  1  -0.00123793  0.82325552  0.87991520  1
  La  La36  1  0.66276462  0.15595823  0.37460894  1
  La  La37  1  -0.00355466  0.48444938  0.37420948  1
  La  La38  1  0.33100899  0.82372911  0.37373583  1
  La  La39  1  0.66944031  0.18252187  0.62352804  1
  La  La40  1  0.32866312  0.82085377  0.87458031  1
  La  La41  1  0.49707597  0.34260407  0.11842630  1
  La  La42  1  -0.00408199  0.15180028  0.87578409  1
  La  La43  1  0.49980599  0.31868880  0.86958828  1
  La  La44  1  0.82648733  0.01072672  0.12819512  1
  La  La45  1  0.83155924  0.01401240  0.63136237  1
  La  La46  1  0.32649825  0.48589227  0.37733600  1
  La  La47  1  0.33511935  0.17695649  0.12832754  1
  La  La48  1  0.50100900  0.98450059  0.87363686  1
  La  La49  1  0.82602931  0.34879338  0.62405867  1
  La  La50  1  1.00997018  0.83965688  0.62015444  1
  La  La51  1  0.50745693  0.65142998  0.37514888  1
  La  La52  1  0.66189918  0.48951793  0.87780980  1
  La  La53  1  0.83908088  0.98489877  0.88374916  1
  La  La54  1  0.16851070  0.32511909  0.87684448  1
  La  La55  1  0.16376192  0.68215893  0.12353403  1
  La  La56  1  0.49504241  0.68553636  0.12104709  1
  La  La57  1  0.50685601  0.99161887  0.37942326  1
  La  La58  1  0.33745574  0.85053422  0.12359915  1
  La  La59  1  0.84271748  0.31961399  0.37049790  1
  La  La60  1  0.16683642  0.33938388  0.63333093  1
  La  La61  1  0.49245027  0.68334192  0.62830879  1
  La  La62  1  1.00317162  0.18152233  0.12377140  1
  La  La63  1  0.66660363  0.48525168  0.37556881  1
  La  La64  1  0.16335681  0.34543474  0.12498021  1
  La  La65  1  0.66959563  0.84617142  0.62925427  1
  La  La66  1  0.16586552  0.01688392  0.62869469  1
  La  La67  1  0.83515781  0.32448212  0.87411125  1
  La  La68  1  -0.00441724  0.81763519  0.37230680  1
  La  La69  1  0.49724010  0.01658464  0.62790580  1
  La  La70  1  0.67456783  0.84613506  0.12279626  1
  La  La71  1  0.67529403  0.51165477  0.12855995  1
  In  In72  1  0.16963476  0.83688773  0.49793789  1
  In  In73  1  -0.00135573  0.66735786  0.75001836  1
  In  In74  1  0.50119002  0.50006567  0.24656245  1
  In  In75  1  0.66578735  0.66681947  0.49981719  1
  In  In76  1  0.16465592  0.16627292  0.24811646  1
  In  In77  1  0.66534411  0.66627762  0.00273127  1
  In  In78  1  0.16335821  0.16966992  0.50236983  1
  In  In79  1  0.16643465  0.83719221  0.25197408  1
  In  In80  1  0.83256481  0.16865000  -0.00056896  1
  In  In81  1  0.66668915  0.33120688  0.25108749  1
  In  In82  1  0.16631000  0.50213600  0.00015932  1
  In  In83  1  0.00179949  0.00024609  0.00523864  1
  In  In84  1  0.66661305  0.00134738  0.25060854  1
  In  In85  1  0.83449884  0.49671585  -0.00091832  1
  In  In86  1  -0.00151052  -0.00192420  0.75241684  1
  In  In87  1  0.83176646  0.16596920  0.50039137  1
  In  In88  1  0.33586461  0.66651819  0.24805982  1
  In  In89  1  0.50011737  0.83513924  0.49996006  1
  In  In90  1  0.67067923  -0.00016860  0.50343657  1
  In  In91  1  -0.00334987  0.33430058  0.50545139  1
  In  In92  1  0.66512491  0.66488513  0.74917992  1
  In  In93  1  0.33395388  0.33362628  0.24557502  1
  In  In94  1  0.33215368  0.33155146  -0.00265215  1
  In  In95  1  -0.00168840  -0.00279105  0.50319314  1
  In  In96  1  0.50049783  0.50057936  0.49815321  1
  In  In97  1  0.83276781  0.82983695  0.25187246  1
  In  In98  1  0.66387366  0.00111502  -0.00419251  1
  In  In99  1  0.49909293  0.49815364  0.75227665  1
  In  In100  1  0.16805531  0.50005228  0.74910897  1
  In  In101  1  0.33602170  0.00271397  0.25464638  1
  In  In102  1  0.16849562  0.83620217  0.74849224  1
  In  In103  1  0.66689866  0.33166741  0.75256700  1
  In  In104  1  0.16432354  0.50363336  0.49642890  1
  In  In105  1  0.49966795  0.83500505  0.24914749  1
  In  In106  1  0.83332931  0.83271327  0.74931972  1
  In  In107  1  0.33329323  0.33302363  0.50070559  1
  Ir  Ir108  1  0.49952143  0.16322239  0.75091331  1
  Ir  Ir109  1  0.33868934  0.67095989  0.74814480  1
  Ir  Ir110  1  -0.00196181  0.33513828  0.24391338  1
  Ir  Ir111  1  0.83192040  0.49773353  0.49683788  1
  Ir  Ir112  1  0.50362140  0.49666026  0.00084703  1
  Ir  Ir113  1  0.83866052  0.83063192  0.50389352  1
  Ir  Ir114  1  0.66187380  0.33506433  0.00004883  1
  Ir  Ir115  1  0.66356755  0.66379577  0.25014448  1
  Ir  Ir116  1  0.83531016  0.16689263  0.24767111  1
  Ir  Ir117  1  -0.00417691  0.66650303  0.49466059  1
  Ir  Ir118  1  0.00319294  0.66862288  0.00550156  1
  Ir  Ir119  1  0.83269520  0.50085673  0.25241066  1
  Ir  Ir120  1  0.50095091  0.16711059  0.24908794  1
  Ir  Ir121  1  0.33222302  0.32823543  0.75314143  1
  Ir  Ir122  1  0.00380124  0.66278363  0.24883775  1
  Ir  Ir123  1  0.49700299  0.16776100  0.00044629  1
  Ir  Ir124  1  0.16537076  0.50040272  0.24823345  1
  Ir  Ir125  1  0.34071110  0.67149579  0.49978641  1
  Ir  Ir126  1  0.83003630  0.16745351  0.75283957  1
  Ir  Ir127  1  0.83228848  0.49464366  0.74728669  1
  Ir  Ir128  1  0.50008472  0.83721997  0.75161080  1
  Ir  Ir129  1  0.16454286  0.16909198  0.75620836  1
  Ir  Ir130  1  0.49694821  0.83478084  -0.00154508  1
  Ir  Ir131  1  0.17303912  0.83189690  0.00076918  1
  Ir  Ir132  1  0.16682536  0.16859345  -0.00172316  1
  Ir  Ir133  1  -0.00492788  0.00123930  0.24833639  1
  Ir  Ir134  1  0.67247438  0.33155104  0.49853647  1
  Ir  Ir135  1  0.00285691  0.32896573  -0.00250453  1
  Ir  Ir136  1  0.66398841  0.00149877  0.74903215  1
  Ir  Ir137  1  0.50317746  0.16402012  0.49845632  1
  Ir  Ir138  1  -0.00325351  0.32883762  0.75424876  1
  Ir  Ir139  1  0.33563713  0.66968016  0.00039432  1
  Ir  Ir140  1  0.33700154  0.00195180  0.75108248  1
  Ir  Ir141  1  0.34011974  0.00277098  0.50417317  1
  Ir  Ir142  1  0.83331027  0.83250033  0.00388078  1
  Ir  Ir143  1  0.33395445  0.00145829  -0.00320668  1
  O  O144  1  0.30049131  0.31923183  0.12044917  1
  O  O145  1  0.30309004  0.33147984  0.63386921  1
  O  O146  1  0.30186885  0.66573918  0.11781443  1
  O  O147  1  0.31570852  0.66384880  0.62355624  1
  O  O148  1  0.31523133  0.99395772  0.11611032  1
  O  O149  1  0.30572994  1.00099405  0.62806008  1
  O  O150  1  0.63354434  0.33069896  0.12088409  1
  O  O151  1  0.64902465  0.32521286  0.62025738  1
  O  O152  1  0.63215535  0.65215609  0.13093321  1
  O  O153  1  0.62896198  0.66199232  0.62435171  1
  O  O154  1  0.64806568  0.98570242  0.12284088  1
  O  O155  1  0.63287149  0.99125869  0.63091416  1
  O  O156  1  0.97649988  0.31999504  0.11903062  1
  O  O157  1  0.96192784  0.32905052  0.63556039  1
  O  O158  1  0.98362721  0.66739256  0.12744401  1
  O  O159  1  0.98250338  0.66635228  0.61371512  1
  O  O160  1  0.96407288  0.99895548  0.12945843  1
  O  O161  1  0.96300096  0.98295363  0.63009874  1
  O  O162  1  0.19750291  0.16590484  0.11565180  1
  O  O163  1  0.18185108  0.16060123  0.63656496  1
  O  O164  1  0.18644509  0.48814463  0.12862757  1
  O  O165  1  0.18159215  0.48067645  0.62374872  1
  O  O166  1  0.19926617  0.82720158  0.12133021  1
  O  O167  1  0.18445468  0.82496101  0.62234905  1
  O  O168  1  0.52380597  0.16439160  0.12485719  1
  O  O169  1  0.53336240  0.15519976  0.62481027  1
  O  O170  1  0.53880399  0.48508009  0.11843887  1
  O  O171  1  0.51542076  0.49648377  0.62580565  1
  O  O172  1  0.53485660  0.82906181  0.11831784  1
  O  O173  1  0.53157521  0.82889514  0.63152366  1
  O  O174  1  0.86631756  0.16007210  0.12783072  1
  O  O175  1  0.85132053  0.15528937  0.63476575  1
  O  O176  1  0.85054299  0.49786735  0.13170123  1
  O  O177  1  0.85702926  0.48562568  0.62161386  1
  O  O178  1  0.84893564  0.83179147  0.12232722  1
  O  O179  1  0.87120554  0.83116528  0.62016682  1
  O  O180  1  0.14385417  0.16896995  0.37479728  1
  O  O181  1  0.13200751  0.17978819  0.87823311  1
  O  O182  1  0.13347997  0.50608723  0.36449348  1
  O  O183  1  0.15121241  0.49711151  0.87439446  1
  O  O184  1  0.13129807  0.83935292  0.37605291  1
  O  O185  1  0.15404080  0.83092408  0.88007864  1
  O  O186  1  0.47717280  0.16625153  0.37295963  1
  O  O187  1  0.47766850  0.18112299  0.87552285  1
  O  O188  1  0.46144594  0.51527748  0.37147061  1
  O  O189  1  0.47683840  0.50049711  0.88325260  1
  O  O190  1  0.46422122  0.85059152  0.37585751  1
  O  O191  1  0.46484433  0.84492970  0.87433959  1
  O  O192  1  0.80299269  0.17426331  0.36929862  1
  O  O193  1  0.80869308  0.18587294  0.87111175  1
  O  O194  1  0.80305708  0.49854179  0.37523995  1
  O  O195  1  0.80407825  0.49228110  0.86864287  1
  O  O196  1  0.81535598  0.83123626  0.38359891  1
  O  O197  1  0.81267496  0.83925442  0.88469888  1
  O  O198  1  0.01411873  0.00340136  0.36870244  1
  O  O199  1  0.01995422  0.01244994  0.87865091  1
  O  O200  1  0.01199196  0.34192917  0.36491698  1
  O  O201  1  0.03150592  0.33198265  0.87579707  1
  O  O202  1  0.01816822  0.67636424  0.37078911  1
  O  O203  1  0.01807025  0.66680832  0.88671425  1
  O  O204  1  0.37223097  0.00776908  0.38513252  1
  O  O205  1  0.36613605  0.00166965  0.87397524  1
  O  O206  1  0.35101201  0.34601315  0.37061139  1
  O  O207  1  0.36360724  0.32891659  0.87199014  1
  O  O208  1  0.37115176  0.68243785  0.37962049  1
  O  O209  1  0.35913085  0.68308918  0.87278580  1
  O  O210  1  0.69043276  0.01962372  0.37641426  1
  O  O211  1  0.69966869  0.00167736  0.86793036  1
  O  O212  1  0.70486413  0.33609881  0.37939334  1
  O  O213  1  0.69672701  0.34409701  0.88083363  1
  O  O214  1  0.68761322  0.67171774  0.36733590  1
  O  O215  1  0.68310001  0.66911376  0.87660851  1
  O  O216  1  0.07111508  0.10518455  0.02278776  1
  O  O217  1  0.07891960  0.08668878  0.52733003  1
  O  O218  1  0.07247648  0.41759682  0.01897604  1
  O  O219  1  0.06388272  0.43274731  0.49829910  1
  O  O220  1  0.08454567  0.75613661  0.02881380  1
  O  O221  1  0.05963509  0.76218019  0.50968389  1
  O  O222  1  0.40008060  0.09986281  0.02276123  1
  O  O223  1  0.41401534  0.09213122  0.53041863  1
  O  O224  1  0.41580796  0.42307524  0.02156200  1
  O  O225  1  0.41012557  0.42394379  0.51048216  1
  O  O226  1  0.40380806  0.76500042  0.02644140  1
  O  O227  1  0.40707619  0.76078699  0.52593569  1
  O  O228  1  0.74765828  0.08530795  0.02156036  1
  O  O229  1  0.73134581  0.10094656  0.52897891  1
  O  O230  1  0.72795702  0.42698951  0.02341629  1
  O  O231  1  0.74140020  0.42460504  0.52209818  1
  O  O232  1  0.73775887  0.76538016  0.02575903  1
  O  O233  1  0.73843049  0.77020511  0.52775884  1
  O  O234  1  0.10019164  0.26322913  0.02522057  1
  O  O235  1  0.09473812  0.26936519  0.53211236  1
  O  O236  1  0.09676313  0.60147299  0.02590811  1
  O  O237  1  0.08950414  0.60128255  0.50895190  1
  O  O238  1  0.09648113  0.91775812  0.01704633  1
  O  O239  1  0.09603496  0.92903046  0.53407667  1
  O  O240  1  0.42710648  0.25656578  0.02773472  1
  O  O241  1  0.43124853  0.25151094  0.51476064  1
  O  O242  1  0.43589966  0.59672931  0.02560228  1
  O  O243  1  0.43431414  0.60789279  0.51963404  1
  O  O244  1  0.42436514  0.92728923  0.01765952  1
  O  O245  1  0.43271893  0.93852514  0.52736861  1
  O  O246  1  0.75461614  0.26565804  0.01567484  1
  O  O247  1  0.76078834  0.26325784  0.52846125  1
  O  O248  1  0.75350354  0.58406963  0.02142594  1
  O  O249  1  0.76191328  0.58735460  0.51365955  1
  O  O250  1  0.76302407  0.92324382  0.02257884  1
  O  O251  1  0.77195443  0.92646454  0.53146247  1
  O  O252  1  0.23956446  0.07164556  0.26060664  1
  O  O253  1  0.23506434  0.06929951  0.76383653  1
  O  O254  1  0.23681615  0.41332527  0.26708837  1
  O  O255  1  0.23849015  0.39454702  0.77306157  1
  O  O256  1  0.24711145  0.74473182  0.26923012  1
  O  O257  1  0.25238362  0.74489773  0.76645682  1
  O  O258  1  0.56799267  0.07632920  0.27625784  1
  O  O259  1  0.56567809  0.06650648  0.77404171  1
  O  O260  1  0.58236693  0.41223252  0.28025063  1
  O  O261  1  0.57336656  0.40184748  0.78090245  1
  O  O262  1  0.56773696  0.72873703  0.26883017  1
  O  O263  1  0.56517020  0.74549039  0.76572768  1
  O  O264  1  0.89989736  0.06970606  0.26342078  1
  O  O265  1  0.89583575  0.07590700  0.77890747  1
  O  O266  1  0.90403214  0.40862570  0.27648102  1
  O  O267  1  0.89938312  0.39487641  0.77310425  1
  O  O268  1  0.91566640  0.73906448  0.26490092  1
  O  O269  1  0.90445794  0.73811753  0.76680516  1
  O  O270  1  0.26178017  0.23790185  0.25654991  1
  O  O271  1  0.25385584  0.24269064  0.77662933  1
  O  O272  1  0.26018720  0.56618848  0.27265244  1
  O  O273  1  0.26703599  0.58182520  0.76076069  1
  O  O274  1  0.26607719  0.90314908  0.27474805  1
  O  O275  1  0.27168636  0.90896620  0.77378668  1
  O  O276  1  0.59758322  0.23051424  0.27367904  1
  O  O277  1  0.58904864  0.23592972  0.76210154  1
  O  O278  1  0.60187106  0.57001217  0.27654645  1
  O  O279  1  0.59980774  0.56349068  0.77761584  1
  O  O280  1  0.58696012  0.91335475  0.27732431  1
  O  O281  1  0.59083794  0.91042845  0.77557474  1
  O  O282  1  0.92293875  0.24537073  0.26967250  1
  O  O283  1  0.92490624  0.23566608  0.78303074  1
  O  O284  1  0.93343658  0.56669561  0.27157051  1
  O  O285  1  0.91935968  0.56569489  0.76134916  1
  O  O286  1  0.93193801  0.90445930  0.27113758  1
  O  O287  1  0.91327623  0.91670436  0.78422282  1
  O  O288  1  0.25642562  0.24347098  0.49163332  1
  O  O289  1  0.25140774  0.23923680  0.97154949  1
  O  O290  1  0.27191506  0.57898888  0.47499978  1
  O  O291  1  0.26545434  0.58017586  0.98322918  1
  O  O292  1  0.27435870  0.91015725  0.47474050  1
  O  O293  1  0.26981520  0.90066629  0.97827453  1
  O  O294  1  0.60506640  0.23161229  0.47873798  1
  O  O295  1  0.58622440  0.24600307  0.97350962  1
  O  O296  1  0.59575919  0.56972931  0.46394470  1
  O  O297  1  0.59665801  0.56092687  0.98096840  1
  O  O298  1  0.59400760  0.91009585  0.48276678  1
  O  O299  1  0.58286798  0.90976875  0.97370687  1
  O  O300  1  0.91946188  0.24578316  0.47688557  1
  O  O301  1  0.93631349  0.23647312  0.97690461  1
  O  O302  1  0.92938296  0.56437610  0.47255839  1
  O  O303  1  0.92937548  0.57833176  0.98898073  1
  O  O304  1  0.93646687  0.88934751  0.47894761  1
  O  O305  1  0.91895468  0.90860959  0.98469017  1
  O  O306  1  0.24831756  0.06933689  0.49416249  1
  O  O307  1  0.23831719  0.07346522  0.97809485  1
  O  O308  1  0.24553846  0.41854709  0.47485859  1
  O  O309  1  0.23511226  0.40167954  0.98176867  1
  O  O310  1  0.25304807  0.74462836  0.47462545  1
  O  O311  1  0.24740363  0.74313450  0.97600864  1
  O  O312  1  0.57018461  0.07324288  0.47751208  1
  O  O313  1  0.56398533  0.07472335  0.97385525  1
  O  O314  1  0.58735257  0.40581856  0.47478323  1
  O  O315  1  0.56751655  0.40163496  0.97123946  1
  O  O316  1  0.56561324  0.73422750  0.47421323  1
  O  O317  1  0.56554134  0.74244847  0.99031991  1
  O  O318  1  0.89981319  0.06782029  0.49657492  1
  O  O319  1  0.90635816  0.07482277  0.97230991  1
  O  O320  1  0.89687762  0.40522468  0.47546744  1
  O  O321  1  0.90588656  0.39522987  0.97558610  1
  O  O322  1  0.90245336  0.73567708  0.47740150  1
  O  O323  1  0.90713532  0.74111770  0.98548940  1
  O  O324  1  0.08733523  0.26269282  0.21628545  1
  O  O325  1  0.09834728  0.26527341  0.73541039  1
  O  O326  1  0.10011227  0.59596183  0.22308037  1
  O  O327  1  0.08872269  0.59003801  0.73653261  1
  O  O328  1  0.08640347  0.93323695  0.23085961  1
  O  O329  1  0.09845034  0.93410315  0.72387847  1
  O  O330  1  0.43617886  0.25839313  0.22021952  1
  O  O331  1  0.42935772  0.25881411  0.73450925  1
  O  O332  1  0.43647984  0.60188005  0.22093220  1
  O  O333  1  0.43044391  0.60290461  0.73068451  1
  O  O334  1  0.42025925  0.92377239  0.22184243  1
  O  O335  1  0.43646744  0.93820460  0.73278492  1
  O  O336  1  0.76532728  0.25758377  0.23450111  1
  O  O337  1  0.76369299  0.25958209  0.72520443  1
  O  O338  1  0.75553822  0.59130680  0.22615803  1
  O  O339  1  0.76302510  0.58454561  0.73125738  1
  O  O340  1  0.76134893  0.92520586  0.22619680  1
  O  O341  1  0.75406132  0.93193733  0.71970320  1
  O  O342  1  0.05946902  0.09720808  0.22340592  1
  O  O343  1  0.07330998  0.09961268  0.74177234  1
  O  O344  1  0.07599089  0.42233315  0.22288711  1
  O  O345  1  0.07143877  0.41192565  0.72998057  1
  O  O346  1  0.07814835  0.75075762  0.23126477  1
  O  O347  1  0.06839356  0.76692811  0.73056964  1
  O  O348  1  0.40578224  0.10439441  0.22728141  1
  O  O349  1  0.41053916  0.09048238  0.72865484  1
  O  O350  1  0.41755315  0.41764441  0.21537785  1
  O  O351  1  0.40288711  0.41655805  0.73750835  1
  O  O352  1  0.40723053  0.76291331  0.21207130  1
  O  O353  1  0.41083878  0.76450491  0.72847435  1
  O  O354  1  0.74922633  0.09324612  0.22413295  1
  O  O355  1  0.73339285  0.09745435  0.72178959  1
  O  O356  1  0.73857247  0.43422807  0.23336539  1
  O  O357  1  0.74685192  0.42157588  0.72801742  1
  O  O358  1  0.72772054  0.75964701  0.22478136  1
  O  O359  1  0.73250322  0.76716445  0.72449484  1
