# generated using pymatgen
data_BaLaInIrO6
_symmetry_space_group_name_H-M   'P 1'
_cell_length_a   17.50622165
_cell_length_b   17.54520524
_cell_length_c   16.48632703
_cell_angle_alpha   90.05479221
_cell_angle_beta   90.00773344
_cell_angle_gamma   89.95711170
_symmetry_Int_Tables_number   1
_chemical_formula_structural   BaLaInIrO6
_chemical_formula_sum   'Ba36 La36 In36 Ir36 O216'
_cell_volume   5063.77571776
_cell_formula_units_Z   36
loop_
 _symmetry_equiv_pos_site_id
 _symmetry_equiv_pos_as_xyz
  1  'x, y, z'
loop_
 _atom_site_type_symbol
 _atom_site_label
 _atom_site_symmetry_multiplicity
 _atom_site_fract_x
 _atom_site_fract_y
 _atom_site_fract_z
 _atom_site_occupancy
  Ba  Ba0  1  0.16830406  0.66036018  0.87295014  1
  Ba  Ba1  1  0.49990651  0.67602634  0.12027033  1
  Ba  Ba2  1  0.66440149  0.17411454  0.12556831  1
  Ba  Ba3  1  0.50287447  0.32380489  0.87424045  1
  Ba  Ba4  1  0.66258659  0.48920587  0.87304309  1
  Ba  Ba5  1  0.16632347  0.33875612  0.12477593  1
  Ba  Ba6  1  0.32857445  0.49164345  0.37137585  1
  Ba  Ba7  1  0.33072392  0.82991085  0.87334942  1
  Ba  Ba8  1  0.33320162  0.49140496  0.87289525  1
  Ba  Ba9  1  0.33569867  0.82640227  0.37544494  1
  Ba  Ba10  1  0.49868960  0.65798566  0.37382501  1
  Ba  Ba11  1  0.83232506  0.67494820  0.12402599  1
  Ba  Ba12  1  0.83540770  0.98995796  0.87713803  1
  Ba  Ba13  1  0.16580979  0.99688418  0.87465212  1
  Ba  Ba14  1  0.16597930  0.32593559  0.88239950  1
  Ba  Ba15  1  0.33539919  0.17765100  0.13102833  1
  Ba  Ba16  1  0.49848866  0.98891659  0.37714225  1
  Ba  Ba17  1  1.00063525  0.50686080  0.12408259  1
  Ba  Ba18  1  -0.00056151  0.48828836  0.37206564  1
  Ba  Ba19  1  -0.00106989  0.82647327  0.87506339  1
  Ba  Ba20  1  -0.00185915  0.49276370  0.87848328  1
  Ba  Ba21  1  0.32768058  0.15633532  0.87892338  1
  Ba  Ba22  1  0.16712979  0.00874963  0.12560597  1
  Ba  Ba23  1  0.33766838  0.50934788  0.62296195  1
  Ba  Ba24  1  0.66789218  0.51440714  0.62821059  1
  Ba  Ba25  1  0.33663845  0.84402265  0.62552890  1
  Ba  Ba26  1  0.66607186  0.15629559  0.87167937  1
  Ba  Ba27  1  0.33035955  0.15058754  0.37677881  1
  Ba  Ba28  1  -0.00103130  0.15886654  0.88195376  1
  Ba  Ba29  1  0.83269336  0.34181870  0.12191502  1
  Ba  Ba30  1  0.16615433  0.67162406  0.12443098  1
  Ba  Ba31  1  0.00526630  0.15870501  0.37402329  1
  Ba  Ba32  1  0.33622920  0.17327012  0.62607671  1
  Ba  Ba33  1  0.66893572  0.17836774  0.62312002  1
  Ba  Ba34  1  1.00106832  0.17511950  0.62721626  1
  Ba  Ba35  1  1.00421594  0.17835261  0.12998675  1
  La  La36  1  0.82763848  0.34802344  0.62452450  1
  La  La37  1  0.84072295  0.31739741  0.37298138  1
  La  La38  1  0.17681680  0.98509652  0.37663926  1
  La  La39  1  -0.00152207  0.82065951  0.37339320  1
  La  La40  1  0.67102110  0.84865591  0.62820515  1
  La  La41  1  0.49712913  0.68275331  0.62620954  1
  La  La42  1  0.66191572  0.48689478  0.37034727  1
  La  La43  1  0.82701387  0.68120454  0.63202683  1
  La  La44  1  0.83738073  0.65229906  0.87589327  1
  La  La45  1  0.50027452  0.32077392  0.37844591  1
  La  La46  1  0.49391624  0.34868309  0.12602388  1
  La  La47  1  0.17566867  0.65134598  0.37141437  1
  La  La48  1  0.16771441  0.01406151  0.62696362  1
  La  La49  1  0.16793576  0.68249916  0.62216083  1
  La  La50  1  0.16764973  0.34438268  0.62767991  1
  La  La51  1  0.33059998  0.50950320  0.12137250  1
  La  La52  1  0.49015801  0.01559289  0.12521032  1
  La  La53  1  0.17161359  0.31682518  0.37176225  1
  La  La54  1  0.83723116  0.31725620  0.87715440  1
  La  La55  1  0.67560383  0.51621177  0.11982592  1
  La  La56  1  0.67050728  0.84393623  0.12450008  1
  La  La57  1  0.50046103  0.99485744  0.87270925  1
  La  La58  1  0.49462551  0.01317685  0.62327022  1
  La  La59  1  1.00522695  0.51269686  0.62800461  1
  La  La60  1  0.66272890  0.81791563  0.87463057  1
  La  La61  1  0.65617195  0.81742729  0.37738237  1
  La  La62  1  0.83292786  0.01314724  0.12406039  1
  La  La63  1  1.00318474  0.84290396  0.12174483  1
  La  La64  1  0.65933293  0.15207801  0.37483287  1
  La  La65  1  1.00204383  0.85078414  0.62253606  1
  La  La66  1  0.33788298  0.85091598  0.12061237  1
  La  La67  1  0.83872181  0.65109945  0.37492201  1
  La  La68  1  0.83146387  0.99292339  0.37019939  1
  La  La69  1  0.49493842  0.34975940  0.62966984  1
  La  La70  1  0.50250952  0.65081090  0.86994558  1
  La  La71  1  0.82838594  0.01640091  0.62919770  1
  In  In72  1  -0.00169442  0.66773638  0.49959691  1
  In  In73  1  0.66291563  -0.00424049  0.00035145  1
  In  In74  1  0.66509184  0.33321413  0.24904597  1
  In  In75  1  0.33339402  0.33187758  0.49986678  1
  In  In76  1  0.16461119  0.49859139  0.50077224  1
  In  In77  1  0.33363665  0.66789470  0.74929497  1
  In  In78  1  0.16464939  0.83584684  0.74752283  1
  In  In79  1  -0.00342561  0.33553154  0.74943251  1
  In  In80  1  0.83223474  0.83382965  0.49843686  1
  In  In81  1  0.49912418  0.16687785  -0.00080278  1
  In  In82  1  0.00258515  -0.00127454  0.25342464  1
  In  In83  1  0.50340450  0.50235070  0.49748748  1
  In  In84  1  0.16745291  0.17061369  0.75084114  1
  In  In85  1  0.66558641  -0.00220340  0.24877096  1
  In  In86  1  0.50233726  0.50244875  0.00187172  1
  In  In87  1  0.66688917  0.66718548  0.25023100  1
  In  In88  1  0.83231690  0.83450674  0.25083181  1
  In  In89  1  -0.00107692  0.33306657  0.50063314  1
  In  In90  1  0.83129769  0.16564022  0.00355005  1
  In  In91  1  -0.00336914  0.00109322  0.74920517  1
  In  In92  1  0.83134010  0.49838142  0.24878328  1
  In  In93  1  -0.00306928  0.66863780  0.74683124  1
  In  In94  1  0.50065336  0.16898397  0.74744188  1
  In  In95  1  0.16808497  0.83373200  0.00261980  1
  In  In96  1  -0.00135527  0.66887481  0.00114502  1
  In  In97  1  0.66803678  -0.00181129  0.50258058  1
  In  In98  1  0.83335536  0.16597882  0.49782751  1
  In  In99  1  0.50107872  0.83359919  0.24625661  1
  In  In100  1  0.66460731  0.33232808  -0.00019287  1
  In  In101  1  0.66888883  0.33487209  0.49894339  1
  In  In102  1  0.16720838  0.50102151  -0.00172285  1
  In  In103  1  0.83234141  0.50052820  0.50009997  1
  In  In104  1  0.33419096  0.66953981  0.24540218  1
  In  In105  1  0.33403356  0.33406402  0.00120757  1
  In  In106  1  0.33438756  0.66766089  0.49907594  1
  In  In107  1  0.00085322  -0.00084338  0.49582573  1
  Ir  Ir108  1  0.33693302  -0.00108476  0.74748844  1
  Ir  Ir109  1  0.66730030  0.67079362  -0.00668009  1
  Ir  Ir110  1  0.82952772  0.83129036  0.75101421  1
  Ir  Ir111  1  0.50144842  0.16513766  0.49773022  1
  Ir  Ir112  1  0.83100755  0.83361000  0.00018161  1
  Ir  Ir113  1  0.66887186  0.33557025  0.74660127  1
  Ir  Ir114  1  0.00310180  0.33237238  0.25137178  1
  Ir  Ir115  1  0.82935650  0.50137035  -0.00376864  1
  Ir  Ir116  1  0.33275992  -0.00311154  0.50104175  1
  Ir  Ir117  1  -0.00367545  -0.00343816  0.00365466  1
  Ir  Ir118  1  0.50010883  0.49703003  0.24999925  1
  Ir  Ir119  1  0.16898931  0.16694046  0.25254988  1
  Ir  Ir120  1  0.66635629  -0.00533345  0.75016123  1
  Ir  Ir121  1  -0.00194942  0.33219616  0.00182942  1
  Ir  Ir122  1  0.83117435  0.16704102  0.25149294  1
  Ir  Ir123  1  0.33204808  -0.00071401  0.25167093  1
  Ir  Ir124  1  0.50606014  0.83158559  0.50479184  1
  Ir  Ir125  1  0.50445414  0.50148342  0.74797169  1
  Ir  Ir126  1  0.33594326  0.33572631  0.25164389  1
  Ir  Ir127  1  0.83218479  0.49859555  0.75238505  1
  Ir  Ir128  1  0.16483864  0.16302179  0.00506003  1
  Ir  Ir129  1  0.66916320  0.67077079  0.50512894  1
  Ir  Ir130  1  0.33640081  -0.00044073  0.00249059  1
  Ir  Ir131  1  0.50550562  0.83506751  0.75100910  1
  Ir  Ir132  1  0.66639389  0.66981046  0.74901575  1
  Ir  Ir133  1  0.16981028  0.16465407  0.50022558  1
  Ir  Ir134  1  0.33866994  0.66989674  -0.00160657  1
  Ir  Ir135  1  0.16477693  0.83261664  0.25144881  1
  Ir  Ir136  1  0.50231168  0.83282421  -0.00593025  1
  Ir  Ir137  1  0.16843750  0.49892068  0.74597423  1
  Ir  Ir138  1  0.33288819  0.33624835  0.74879035  1
  Ir  Ir139  1  0.49912503  0.16747527  0.25707802  1
  Ir  Ir140  1  0.16549297  0.49759606  0.25058282  1
  Ir  Ir141  1  0.00398568  0.66812605  0.25387842  1
  Ir  Ir142  1  0.16341470  0.83567511  0.49819065  1
  Ir  Ir143  1  0.82997435  0.16675312  0.74967341  1
  O  O144  1  0.31759744  0.33718540  0.13431990  1
  O  O145  1  0.30549444  0.33533493  0.62954273  1
  O  O146  1  0.31946860  0.65284800  0.11872382  1
  O  O147  1  0.30507236  0.66931214  0.62309752  1
  O  O148  1  0.31515563  0.98964300  0.12763498  1
  O  O149  1  0.30531360  0.99890742  0.62390638  1
  O  O150  1  0.62875138  0.32613159  0.12752588  1
  O  O151  1  0.63370415  0.33378421  0.62800419  1
  O  O152  1  0.64889355  0.66054597  0.11417434  1
  O  O153  1  0.63297023  0.66742147  0.62687395  1
  O  O154  1  0.62631456  0.98340226  0.12609483  1
  O  O155  1  0.63354576  0.98818326  0.63129327  1
  O  O156  1  0.98022369  0.33650889  0.12762790  1
  O  O157  1  0.96296290  0.33237743  0.62616699  1
  O  O158  1  0.98121948  0.66896759  0.13492140  1
  O  O159  1  0.96045271  0.65199259  0.62463555  1
  O  O160  1  0.96961880  0.98693316  0.12639528  1
  O  O161  1  0.96453772  0.99120027  0.62186064  1
  O  O162  1  0.18675312  0.16492312  0.13097952  1
  O  O163  1  0.18763685  0.15384076  0.61960961  1
  O  O164  1  0.19352904  0.49625315  0.13101247  1
  O  O165  1  0.18906583  0.48217642  0.62912515  1
  O  O166  1  0.20040509  0.82897883  0.13372816  1
  O  O167  1  0.18849480  0.82164016  0.61453760  1
  O  O168  1  0.51504931  0.15424011  0.13636348  1
  O  O169  1  0.52033937  0.15217455  0.61902372  1
  O  O170  1  0.53530651  0.49162524  0.13214749  1
  O  O171  1  0.52092591  0.48846717  0.62817177  1
  O  O172  1  0.53311517  0.82846731  0.11333078  1
  O  O173  1  0.53568774  0.82241302  0.62907430  1
  O  O174  1  0.85452823  0.15549737  0.13318744  1
  O  O175  1  0.84980032  0.15698374  0.63072920  1
  O  O176  1  0.84868813  0.50058937  0.11660997  1
  O  O177  1  0.86586002  0.48965211  0.63316208  1
  O  O178  1  0.86545040  0.82831651  0.11939184  1
  O  O179  1  0.86339777  0.81781535  0.63108985  1
  O  O180  1  0.15256572  0.17817847  0.37588263  1
  O  O181  1  0.15120302  0.16367897  0.88333975  1
  O  O182  1  0.14716295  0.51046867  0.37014847  1
  O  O183  1  0.15044046  0.50421150  0.86471082  1
  O  O184  1  0.13329477  0.84648829  0.37479351  1
  O  O185  1  0.15104711  0.83806738  0.87574882  1
  O  O186  1  0.47603882  0.17981077  0.37741098  1
  O  O187  1  0.47955784  0.15831643  0.87091263  1
  O  O188  1  0.47666777  0.50368763  0.36747542  1
  O  O189  1  0.48539420  0.51047859  0.86882133  1
  O  O190  1  0.48710960  0.83251864  0.38391138  1
  O  O191  1  0.47853083  0.85201719  0.87203034  1
  O  O192  1  0.79783157  0.17568158  0.36931679  1
  O  O193  1  0.81599524  0.17290262  0.87019768  1
  O  O194  1  0.79593303  0.51533196  0.37408185  1
  O  O195  1  0.80733688  0.51436038  0.87342437  1
  O  O196  1  0.78968154  0.85471917  0.37660263  1
  O  O197  1  0.79771601  0.83881228  0.87574385  1
  O  O198  1  0.04195914  -0.00032986  0.37480459  1
  O  O199  1  0.01304134  -0.00220165  0.88128124  1
  O  O200  1  0.03313707  0.33228483  0.37041313  1
  O  O201  1  0.01128004  0.32916803  0.88060175  1
  O  O202  1  0.03856314  0.67754369  0.37154937  1
  O  O203  1  0.01483374  0.67041989  0.87194094  1
  O  O204  1  0.35093027  -0.00647770  0.37522621  1
  O  O205  1  0.36559160  0.00088197  0.87471160  1
  O  O206  1  0.36320992  0.33545058  0.37089088  1
  O  O207  1  0.35262026  0.33395957  0.86842340  1
  O  O208  1  0.34702814  0.66848783  0.37176774  1
  O  O209  1  0.36444889  0.67516380  0.87673455  1
  O  O210  1  0.69590181  0.01102755  0.37488113  1
  O  O211  1  0.68582030  -0.00413320  0.86912676  1
  O  O212  1  0.70422573  0.34912682  0.37187074  1
  O  O213  1  0.69977412  0.33582920  0.86497404  1
  O  O214  1  0.70110979  0.68212806  0.38500327  1
  O  O215  1  0.69994915  0.67888475  0.87050811  1
  O  O216  1  0.06806267  0.08822827  0.02085069  1
  O  O217  1  0.08059905  0.09426291  0.51951832  1
  O  O218  1  0.07170269  0.41817964  0.01114763  1
  O  O219  1  0.06482118  0.43225469  0.52918159  1
  O  O220  1  0.06919728  0.76549507  0.02574431  1
  O  O221  1  0.06661030  0.77307589  0.51957189  1
  O  O222  1  0.40462430  0.08841586  0.02312836  1
  O  O223  1  0.41028960  0.08504336  0.52183770  1
  O  O224  1  0.40632720  0.43399783  0.03028339  1
  O  O225  1  0.41505621  0.41916102  0.51916465  1
  O  O226  1  0.40380923  0.76983898  0.02012803  1
  O  O227  1  0.41611200  0.76169092  0.52209422  1
  O  O228  1  0.74364041  0.08337501  0.02251217  1
  O  O229  1  0.74078973  0.09124909  0.51951051  1
  O  O230  1  0.73667554  0.43590728  0.01948678  1
  O  O231  1  0.74142550  0.42873126  0.52857557  1
  O  O232  1  0.73154600  0.77060630  0.01662250  1
  O  O233  1  0.73243020  0.76352237  0.53349430  1
  O  O234  1  0.08911221  0.25757772  0.02036739  1
  O  O235  1  0.10656814  0.26200158  0.52043111  1
  O  O236  1  0.08942663  0.58946356  0.01299387  1
  O  O237  1  0.09359698  0.59799400  0.53181493  1
  O  O238  1  0.08253805  0.92413658  0.02400693  1
  O  O239  1  0.10276050  0.92980932  0.52817006  1
  O  O240  1  0.43159969  0.26646121  0.02547173  1
  O  O241  1  0.43743254  0.25988633  0.52062195  1
  O  O242  1  0.43013154  0.60207680  0.00532325  1
  O  O243  1  0.43689955  0.60046773  0.52567621  1
  O  O244  1  0.43376791  0.92884056  0.02440207  1
  O  O245  1  0.43583254  0.92832779  0.52529883  1
  O  O246  1  0.76360122  0.26411428  0.00645899  1
  O  O247  1  0.76678434  0.26704013  0.52261922  1
  O  O248  1  0.75873660  0.59604941  0.01546487  1
  O  O249  1  0.76418788  0.60928159  0.52679769  1
  O  O250  1  0.76326075  0.92254676  0.03125537  1
  O  O251  1  0.76438100  0.92819255  0.53852446  1
  O  O252  1  0.23542462  0.06844375  0.27435702  1
  O  O253  1  0.24814263  0.07195438  0.75934384  1
  O  O254  1  0.23530893  0.40239828  0.27474179  1
  O  O255  1  0.23497280  0.40218617  0.76587866  1
  O  O256  1  0.22983719  0.74044762  0.27472541  1
  O  O257  1  0.23779670  0.74044310  0.75704671  1
  O  O258  1  0.57400105  0.08034648  0.27604257  1
  O  O259  1  0.57208980  0.06048478  0.76781704  1
  O  O260  1  0.56268851  0.40326272  0.27786908  1
  O  O261  1  0.57303386  0.40358422  0.76448098  1
  O  O262  1  0.57404176  0.73891896  0.26827813  1
  O  O263  1  0.57154159  0.73835169  0.77729763  1
  O  O264  1  0.89834606  0.07121400  0.27203559  1
  O  O265  1  0.89827212  0.07484272  0.76237877  1
  O  O266  1  0.90612475  0.39940670  0.27133168  1
  O  O267  1  0.89431307  0.40480192  0.77719751  1
  O  O268  1  0.91258893  0.73832996  0.28187161  1
  O  O269  1  0.88838435  0.73432794  0.77174077  1
  O  O270  1  0.26199953  0.24540374  0.27652581  1
  O  O271  1  0.26407644  0.24601000  0.76385695  1
  O  O272  1  0.25161478  0.57366938  0.26225224  1
  O  O273  1  0.25950292  0.56809040  0.76037921  1
  O  O274  1  0.25366811  0.90842566  0.27468012  1
  O  O275  1  0.26146046  0.91553654  0.76035681  1
  O  O276  1  0.58923483  0.23734904  0.28498284  1
  O  O277  1  0.59846732  0.24588063  0.76324636  1
  O  O278  1  0.59573699  0.56259970  0.27092964  1
  O  O279  1  0.59207100  0.58080014  0.77330870  1
  O  O280  1  0.60060360  0.89814307  0.27553372  1
  O  O281  1  0.60256591  0.89866868  0.77240838  1
  O  O282  1  0.92398617  0.24285304  0.27551806  1
  O  O283  1  0.91684083  0.23925658  0.76928334  1
  O  O284  1  0.92713908  0.58235007  0.27273677  1
  O  O285  1  0.91881742  0.57033524  0.77002856  1
  O  O286  1  0.92495987  0.90713257  0.28651335  1
  O  O287  1  0.92140544  0.89873334  0.76218995  1
  O  O288  1  0.26018724  0.23297975  0.48552596  1
  O  O289  1  0.25303279  0.23677004  0.99420635  1
  O  O290  1  0.25457846  0.57682405  0.48153258  1
  O  O291  1  0.27095221  0.57718742  0.98740358  1
  O  O292  1  0.25725144  0.90642917  0.47793832  1
  O  O293  1  0.26679489  0.90830810  0.99425869  1
  O  O294  1  0.59323905  0.23454006  0.47157098  1
  O  O295  1  0.59662237  0.23327235  0.98226628  1
  O  O296  1  0.60834848  0.57531992  0.47510844  1
  O  O297  1  0.59516030  0.58279952  0.97791161  1
  O  O298  1  0.60259075  0.89505128  0.48611330  1
  O  O299  1  0.59795707  0.89309190  0.97273502  1
  O  O300  1  0.92661871  0.23864373  0.47650180  1
  O  O301  1  0.92395730  0.24647443  0.98898063  1
  O  O302  1  0.92162627  0.57688472  0.47077262  1
  O  O303  1  0.91538570  0.57658408  0.98126334  1
  O  O304  1  0.93824990  0.89401392  0.47898345  1
  O  O305  1  0.92718136  0.90099907  0.98717630  1
  O  O306  1  0.23322673  0.06246966  0.48240403  1
  O  O307  1  0.23937080  0.06931713  0.98697188  1
  O  O308  1  0.22992582  0.39545293  0.47923374  1
  O  O309  1  0.24521205  0.41233794  0.98770299  1
  O  O310  1  0.22320146  0.73873540  0.47649440  1
  O  O311  1  0.24909270  0.73798270  0.98769843  1
  O  O312  1  0.57294714  0.07612539  0.47934703  1
  O  O313  1  0.55998890  0.05841791  0.98589384  1
  O  O314  1  0.57548128  0.40714358  0.46568239  1
  O  O315  1  0.57235748  0.40780288  0.98481443  1
  O  O316  1  0.57475520  0.73716322  0.48302787  1
  O  O317  1  0.57051397  0.73837034  0.96358789  1
  O  O318  1  0.89826032  0.06245828  0.47130271  1
  O  O319  1  0.90850374  0.06877645  0.99299468  1
  O  O320  1  0.89843523  0.39985229  0.46984815  1
  O  O321  1  0.89863395  0.40398292  0.97557318  1
  O  O322  1  0.90107455  0.73754705  0.46551356  1
  O  O323  1  0.89454586  0.74087791  0.97448286  1
  O  O324  1  0.10032650  0.26329769  0.23919559  1
  O  O325  1  0.09712979  0.26779615  0.72633212  1
  O  O326  1  0.09518498  0.59360975  0.23347759  1
  O  O327  1  0.09935262  0.59106497  0.71811454  1
  O  O328  1  0.09031626  0.91477779  0.22407390  1
  O  O329  1  0.09027213  0.92676041  0.71394366  1
  O  O330  1  0.43464622  0.27036800  0.23324138  1
  O  O331  1  0.42716904  0.26869459  0.72475325  1
  O  O332  1  0.42654629  0.58303964  0.22452738  1
  O  O333  1  0.43873318  0.59844001  0.73029262  1
  O  O334  1  0.42582866  0.93084025  0.22504162  1
  O  O335  1  0.43911036  0.93062837  0.72703558  1
  O  O336  1  0.76276759  0.25646115  0.23210489  1
  O  O337  1  0.76499795  0.26735269  0.72627265  1
  O  O338  1  0.75758948  0.59420350  0.23009834  1
  O  O339  1  0.76452372  0.60143768  0.72933895  1
  O  O340  1  0.76613570  0.93354868  0.21643153  1
  O  O341  1  0.76215509  0.92699224  0.72231489  1
  O  O342  1  0.07979978  0.09477934  0.23534511  1
  O  O343  1  0.08002822  0.08813224  0.73308866  1
  O  O344  1  0.07429544  0.42449927  0.23152671  1
  O  O345  1  0.07087663  0.43433862  0.72710359  1
  O  O346  1  0.06919048  0.76599160  0.22919632  1
  O  O347  1  0.06807508  0.76158743  0.71244840  1
  O  O348  1  0.40901582  0.08720822  0.23143647  1
  O  O349  1  0.41245562  0.08208933  0.72702562  1
  O  O350  1  0.40547820  0.42937834  0.22152012  1
  O  O351  1  0.41275163  0.42469743  0.72624811  1
  O  O352  1  0.40042791  0.76912076  0.22205805  1
  O  O353  1  0.41955054  0.76131368  0.72965188  1
  O  O354  1  0.74464062  0.09420547  0.23211141  1
  O  O355  1  0.73821596  0.08682237  0.72611091  1
  O  O356  1  0.72781974  0.43617905  0.22340018  1
  O  O357  1  0.74319005  0.42450824  0.72496472  1
  O  O358  1  0.73363611  0.76899087  0.22592051  1
  O  O359  1  0.73264961  0.76456037  0.72506071  1
