# generated using pymatgen
data_BaLaInIrO6
_symmetry_space_group_name_H-M   'P 1'
_cell_length_a   17.51040170
_cell_length_b   17.53170335
_cell_length_c   16.48289790
_cell_angle_alpha   90.01629383
_cell_angle_beta   89.98835976
_cell_angle_gamma   90.11573254
_symmetry_Int_Tables_number   1
_chemical_formula_structural   BaLaInIrO6
_chemical_formula_sum   'Ba36 La36 In36 Ir36 O216'
_cell_volume   5060.02751916
_cell_formula_units_Z   36
loop_
 _symmetry_equiv_pos_site_id
 _symmetry_equiv_pos_as_xyz
  1  'x, y, z'
loop_
 _atom_site_type_symbol
 _atom_site_label
 _atom_site_symmetry_multiplicity
 _atom_site_fract_x
 _atom_site_fract_y
 _atom_site_fract_z
 _atom_site_occupancy
  Ba  Ba0  1  0.66983041  0.83547317  0.12489367  1
  Ba  Ba1  1  0.66793337  0.15613146  0.87689472  1
  Ba  Ba2  1  0.50148614  0.65779646  0.37855100  1
  Ba  Ba3  1  0.17002596  0.99119870  0.37758120  1
  Ba  Ba4  1  0.33302900  0.16083768  0.37772374  1
  Ba  Ba5  1  0.83183772  0.66031010  0.37598794  1
  Ba  Ba6  1  1.00441326  0.51188225  0.12270100  1
  Ba  Ba7  1  0.16463279  0.67680900  0.11986643  1
  Ba  Ba8  1  0.16452177  0.67854840  0.62003166  1
  Ba  Ba9  1  0.50493577  0.98754258  0.87333407  1
  Ba  Ba10  1  0.49407414  0.34048373  0.62656661  1
  Ba  Ba11  1  0.83202815  0.67798365  0.61925521  1
  Ba  Ba12  1  0.16334124  0.00710718  0.12312867  1
  Ba  Ba13  1  0.49888219  0.99225589  0.37641910  1
  Ba  Ba14  1  0.83003433  0.00506434  0.12961950  1
  Ba  Ba15  1  0.83756161  0.32325969  0.87992812  1
  Ba  Ba16  1  0.66625929  0.82463479  0.37470828  1
  Ba  Ba17  1  0.33204716  0.83566357  0.62668633  1
  Ba  Ba18  1  0.33168807  0.17524166  0.62679654  1
  Ba  Ba19  1  0.33530452  0.82769529  0.86937755  1
  Ba  Ba20  1  0.49946517  0.32637654  0.37565211  1
  Ba  Ba21  1  0.16195969  0.34331571  0.12665569  1
  Ba  Ba22  1  0.66608725  0.49580622  0.37443367  1
  Ba  Ba23  1  -0.00198163  0.49572065  0.37945190  1
  Ba  Ba24  1  0.50207833  0.65857903  0.87183676  1
  Ba  Ba25  1  0.17161774  0.66021534  0.87285764  1
  Ba  Ba26  1  0.99703760  0.83964355  0.12592254  1
  Ba  Ba27  1  -0.00016087  0.82464681  0.36768055  1
  Ba  Ba28  1  0.49756703  0.34360693  0.12393406  1
  Ba  Ba29  1  0.66258833  0.50541716  0.12781711  1
  Ba  Ba30  1  0.16369663  0.32507261  0.87529690  1
  Ba  Ba31  1  0.16856974  0.99189721  0.87535800  1
  Ba  Ba32  1  0.49963036  0.00444820  0.62495359  1
  Ba  Ba33  1  0.66489924  0.49073145  0.87066299  1
  Ba  Ba34  1  0.83295227  0.34357690  0.12459138  1
  Ba  Ba35  1  0.32844363  0.48882200  0.37773514  1
  La  La36  1  -0.00366640  0.48812670  0.88023039  1
  La  La37  1  0.33230292  0.15358359  0.87213022  1
  La  La38  1  0.17248979  0.65330535  0.36350125  1
  La  La39  1  0.83591794  0.67220183  0.13550015  1
  La  La40  1  0.33446853  0.18151278  0.12531328  1
  La  La41  1  0.33953925  0.51772101  0.12311889  1
  La  La42  1  0.66772529  0.84328504  0.62273256  1
  La  La43  1  0.50129788  0.01312584  0.12462416  1
  La  La44  1  0.50553689  0.31910290  0.87408439  1
  La  La45  1  -0.00119433  0.15203357  0.37527664  1
  La  La46  1  0.66529082  0.81945541  0.87587458  1
  La  La47  1  1.00118840  0.52023210  0.62908724  1
  La  La48  1  -0.00513535  0.15057470  0.87597417  1
  La  La49  1  0.49607146  0.67770524  0.62227503  1
  La  La50  1  0.16532556  0.34911994  0.62278959  1
  La  La51  1  1.00127311  0.17304876  0.11513671  1
  La  La52  1  0.49935906  0.67683712  0.12612844  1
  La  La53  1  0.66802113  0.18358231  0.62604137  1
  La  La54  1  0.83612540  0.98591561  0.87723905  1
  La  La55  1  0.83686410  0.98022308  0.37589566  1
  La  La56  1  1.00514166  0.18178024  0.62704028  1
  La  La57  1  0.33725462  0.84992530  0.11775924  1
  La  La58  1  0.66688086  0.51703992  0.62462369  1
  La  La59  1  -0.00164906  0.81840897  0.87777681  1
  La  La60  1  0.17280388  0.32100761  0.37356713  1
  La  La61  1  0.83753989  0.65481720  0.87808859  1
  La  La62  1  1.00680619  0.85051464  0.62139140  1
  La  La63  1  0.33119361  0.48119449  0.87471418  1
  La  La64  1  0.16821123  0.00915605  0.62842881  1
  La  La65  1  0.83942246  0.32632483  0.36924477  1
  La  La66  1  0.67402004  0.17887018  0.12956355  1
  La  La67  1  0.33876527  0.51022334  0.63061539  1
  La  La68  1  0.82754372  0.01193539  0.62455110  1
  La  La69  1  0.32528169  0.82384685  0.37092502  1
  La  La70  1  0.82314511  0.35308090  0.63246881  1
  La  La71  1  0.66090007  0.15129954  0.37761129  1
  In  In72  1  0.83338570  0.16570395  0.25425533  1
  In  In73  1  0.16275720  0.83357483  0.75058211  1
  In  In74  1  0.83534071  0.83287294  0.74707336  1
  In  In75  1  0.00084720  0.67147461  0.49737027  1
  In  In76  1  0.16674030  0.50161464  0.75004988  1
  In  In77  1  0.83497462  0.16941682  0.50281574  1
  In  In78  1  0.16458903  0.16676168  0.24970327  1
  In  In79  1  0.66975648  0.33279136  0.25418818  1
  In  In80  1  0.83376015  0.49931954  0.50089494  1
  In  In81  1  0.66858280  0.66536567  -0.00132351  1
  In  In82  1  0.66490235  0.33295923  -0.00176894  1
  In  In83  1  0.50091815  0.16390985  0.00002813  1
  In  In84  1  -0.00151520  0.00258306  0.25039946  1
  In  In85  1  0.16924649  0.16765066  -0.00235062  1
  In  In86  1  0.16236819  0.16697913  0.50343752  1
  In  In87  1  0.33369284  0.00121589  0.24870478  1
  In  In88  1  -0.00064525  -0.00423110  -0.00125336  1
  In  In89  1  0.00018061  0.33340279  0.00293439  1
  In  In90  1  0.16906761  0.50259723  -0.00024276  1
  In  In91  1  0.67009494  0.33526629  0.50140576  1
  In  In92  1  0.33538255  0.66443549  0.75223964  1
  In  In93  1  0.33167294  0.66638136  0.49753980  1
  In  In94  1  0.50119486  0.16421122  0.74999488  1
  In  In95  1  0.66504698  -0.00436520  0.24877331  1
  In  In96  1  0.16748812  0.83355857  0.24571964  1
  In  In97  1  0.66360614  0.66618419  0.25170923  1
  In  In98  1  0.49810271  0.50107000  -0.00489278  1
  In  In99  1  0.83174300  0.50370573  0.00227636  1
  In  In100  1  0.16448249  0.50049100  0.50046875  1
  In  In101  1  0.49636291  0.49923794  0.25280495  1
  In  In102  1  0.33533824  -0.00338570  0.74936019  1
  In  In103  1  -0.00142827  0.33499220  0.74577743  1
  In  In104  1  0.49972475  0.16593936  0.50168775  1
  In  In105  1  0.49879526  0.83487428  0.49641870  1
  In  In106  1  0.50117405  0.16708170  0.24979887  1
  In  In107  1  0.83547562  0.16543348  0.74890447  1
  Ir  Ir108  1  0.50227746  0.83402960  -0.00092597  1
  Ir  Ir109  1  -0.00275881  0.33228524  0.50204849  1
  Ir  Ir110  1  0.83398118  0.82958955  0.24905500  1
  Ir  Ir111  1  0.51035423  0.83004101  0.75257817  1
  Ir  Ir112  1  0.32789020  0.33582533  0.24844737  1
  Ir  Ir113  1  0.83355981  0.50422043  0.74902481  1
  Ir  Ir114  1  0.67140961  -0.00108712  0.50565245  1
  Ir  Ir115  1  0.49451374  0.83221144  0.24322537  1
  Ir  Ir116  1  0.33191495  0.67044315  0.24488607  1
  Ir  Ir117  1  0.49956075  0.49833156  0.50615290  1
  Ir  Ir118  1  0.67157622  -0.00154852  0.74848971  1
  Ir  Ir119  1  0.33421518  0.33369840  -0.00092769  1
  Ir  Ir120  1  -0.00319920  0.66848582  0.75306793  1
  Ir  Ir121  1  0.33253212  0.33252312  0.75255759  1
  Ir  Ir122  1  -0.00011379  0.67131570  -0.00460284  1
  Ir  Ir123  1  0.83309926  0.15919455  -0.00017927  1
  Ir  Ir124  1  0.00240097  0.66431056  0.24603595  1
  Ir  Ir125  1  0.33484010  -0.00088386  0.00072786  1
  Ir  Ir126  1  0.66817304  0.66708301  0.74592139  1
  Ir  Ir127  1  -0.00331012  0.00027876  0.74755672  1
  Ir  Ir128  1  0.16387873  0.16756862  0.74911455  1
  Ir  Ir129  1  0.50016698  0.49804622  0.74632439  1
  Ir  Ir130  1  0.16803451  0.50046679  0.24958614  1
  Ir  Ir131  1  0.66885272  -0.00464457  -0.00306202  1
  Ir  Ir132  1  0.00484638  0.33576747  0.25969562  1
  Ir  Ir133  1  -0.00555342  0.00045438  0.50366460  1
  Ir  Ir134  1  0.16477729  0.83878898  0.49858414  1
  Ir  Ir135  1  0.66345592  0.66738610  0.50513825  1
  Ir  Ir136  1  0.33008230  -0.00345715  0.50138518  1
  Ir  Ir137  1  0.66566623  0.33591445  0.74996889  1
  Ir  Ir138  1  0.32805089  0.33488669  0.50119909  1
  Ir  Ir139  1  0.83586903  0.83635588  0.50055760  1
  Ir  Ir140  1  0.16889727  0.83265200  -0.00192310  1
  Ir  Ir141  1  0.83871112  0.50167102  0.25003449  1
  Ir  Ir142  1  0.33520339  0.67158231  0.00192832  1
  Ir  Ir143  1  0.83052786  0.83336972  -0.00463518  1
  O  O144  1  0.30780847  0.32020628  0.12288717  1
  O  O145  1  0.30023134  0.33211304  0.62714834  1
  O  O146  1  0.31155270  0.65628119  0.12266908  1
  O  O147  1  0.31428134  0.64998064  0.62452547  1
  O  O148  1  0.31139185  0.98738964  0.11771408  1
  O  O149  1  0.30346034  0.99230593  0.62063603  1
  O  O150  1  0.64834860  0.31652002  0.12489753  1
  O  O151  1  0.64452415  0.32550628  0.63231298  1
  O  O152  1  0.63855920  0.66810277  0.12427655  1
  O  O153  1  0.63347900  0.66247291  0.62691713  1
  O  O154  1  0.63937505  0.98812651  0.11607445  1
  O  O155  1  0.64770257  0.98098737  0.62796370  1
  O  O156  1  0.98348878  0.31510154  0.13905547  1
  O  O157  1  0.95988253  0.31818657  0.61960626  1
  O  O158  1  0.97124128  0.66647837  0.11965142  1
  O  O159  1  0.97960206  0.66295448  0.63351984  1
  O  O160  1  0.98012892  1.00472381  0.12365266  1
  O  O161  1  0.96404912  0.98680448  0.62597252  1
  O  O162  1  0.19787238  0.16703901  0.12397490  1
  O  O163  1  0.18174009  0.15184362  0.62966259  1
  O  O164  1  0.19962710  0.50073313  0.12991421  1
  O  O165  1  0.20175113  0.49064762  0.62476634  1
  O  O166  1  0.19834691  0.83353970  0.11732299  1
  O  O167  1  0.17701709  0.84110063  0.61783509  1
  O  O168  1  0.53595189  0.15768001  0.12329429  1
  O  O169  1  0.53107163  0.16747800  0.62562769  1
  O  O170  1  0.50667615  0.50446249  0.12331098  1
  O  O171  1  0.53102745  0.49298677  0.62716838  1
  O  O172  1  0.52100366  0.81911272  0.12116823  1
  O  O173  1  0.53350436  0.82396566  0.63170228  1
  O  O174  1  0.86530552  0.15865843  0.12049141  1
  O  O175  1  0.87200938  0.14732401  0.62541105  1
  O  O176  1  0.85551344  0.51051098  0.13135891  1
  O  O177  1  0.86578396  0.49294095  0.63083794  1
  O  O178  1  0.84967869  0.81300848  0.12167942  1
  O  O179  1  0.86789486  0.83559562  0.62072209  1
  O  O180  1  0.13557321  0.17543715  0.37977548  1
  O  O181  1  0.13286985  0.17057237  0.86720718  1
  O  O182  1  0.14724714  0.50740245  0.36926986  1
  O  O183  1  0.13355926  0.50100219  0.87329521  1
  O  O184  1  0.15188304  0.83475809  0.37885793  1
  O  O185  1  0.13573701  0.83274023  0.87847014  1
  O  O186  1  0.48287833  0.16285658  0.37690714  1
  O  O187  1  0.46875403  0.17151826  0.87557090  1
  O  O188  1  0.47728883  0.50213803  0.38626744  1
  O  O189  1  0.46589419  0.50379332  0.86457321  1
  O  O190  1  0.46491833  0.83548340  0.36456657  1
  O  O191  1  0.48386509  0.83444000  0.87617699  1
  O  O192  1  0.79658449  0.18492100  0.38171309  1
  O  O193  1  0.81625055  0.16177783  0.87838316  1
  O  O194  1  0.82157165  0.49632962  0.37024552  1
  O  O195  1  0.81422729  0.51726612  0.86878539  1
  O  O196  1  0.81341077  0.84282291  0.37534991  1
  O  O197  1  0.80503551  0.84651734  0.87439383  1
  O  O198  1  0.02028843  0.01104146  0.38448584  1
  O  O199  1  0.01909673  0.01227523  0.86721040  1
  O  O200  1  0.03522635  0.34429585  0.38391236  1
  O  O201  1  0.01369634  0.34806622  0.87215876  1
  O  O202  1  0.03226056  0.66581527  0.36738662  1
  O  O203  1  0.02328256  0.68202850  0.87365226  1
  O  O204  1  0.34817107  -0.00314289  0.38139929  1
  O  O205  1  0.35431287  0.00952641  0.88158298  1
  O  O206  1  0.35050982  0.33708802  0.37352952  1
  O  O207  1  0.36677625  0.34302508  0.87659214  1
  O  O208  1  0.35186780  0.68443894  0.36585869  1
  O  O209  1  0.35363791  0.67467038  0.88303516  1
  O  O210  1  0.69980771  0.00976233  0.38475494  1
  O  O211  1  0.70113342  0.00191840  0.87244498  1
  O  O212  1  0.70622549  0.34286116  0.37948271  1
  O  O213  1  0.68934362  0.33599462  0.86693208  1
  O  O214  1  0.68095911  0.66871224  0.38387213  1
  O  O215  1  0.70051576  0.67448564  0.86512281  1
  O  O216  1  0.06822587  0.09625097  0.01093808  1
  O  O217  1  0.05766689  0.09608389  0.52534202  1
  O  O218  1  0.07704040  0.42720197  0.01559934  1
  O  O219  1  0.06036395  0.42547355  0.53205634  1
  O  O220  1  0.07009519  0.76641846  0.01347410  1
  O  O221  1  0.06891472  0.77350290  0.52012835  1
  O  O222  1  0.40285035  0.08998433  0.02848913  1
  O  O223  1  0.40250981  0.08501309  0.51936534  1
  O  O224  1  0.39305832  0.43286910  0.01877911  1
  O  O225  1  0.40014168  0.43419219  0.52620805  1
  O  O226  1  0.40529288  0.76586302  0.02622550  1
  O  O227  1  0.41419155  0.75197859  0.52211566  1
  O  O228  1  0.73501224  0.09230195  0.02508651  1
  O  O229  1  0.73628925  0.09221039  0.53344492  1
  O  O230  1  0.73965145  0.42728938  0.01344124  1
  O  O231  1  0.74059956  0.43021623  0.53821997  1
  O  O232  1  0.73772305  0.76882874  0.00209316  1
  O  O233  1  0.73405678  0.76711249  0.52367011  1
  O  O234  1  0.08748410  0.25373376  0.02042438  1
  O  O235  1  0.09127934  0.26865473  0.53081659  1
  O  O236  1  0.08933577  0.60053770  0.01059724  1
  O  O237  1  0.08339160  0.58658337  0.52511683  1
  O  O238  1  0.09692827  0.91969745  0.01281475  1
  O  O239  1  0.09382272  0.93610860  0.52790873  1
  O  O240  1  0.41833487  0.25887728  0.02040993  1
  O  O241  1  0.41753788  0.26292798  0.51399541  1
  O  O242  1  0.42618599  0.60512044  0.02341142  1
  O  O243  1  0.43121943  0.58851597  0.52753258  1
  O  O244  1  0.43110370  0.92905943  0.02660671  1
  O  O245  1  0.41968495  0.92495880  0.51829574  1
  O  O246  1  0.76053013  0.24554544  0.01874786  1
  O  O247  1  0.76550823  0.26171389  0.54365710  1
  O  O248  1  0.77595577  0.61066180  0.01649699  1
  O  O249  1  0.74978579  0.59278432  0.51982532  1
  O  O250  1  0.76742373  0.93128977  0.01074284  1
  O  O251  1  0.76670255  0.92943879  0.52648645  1
  O  O252  1  0.23875927  0.07346218  0.26616097  1
  O  O253  1  0.23652210  0.08088706  0.76739336  1
  O  O254  1  0.23164828  0.40358575  0.27361621  1
  O  O255  1  0.24360504  0.40218833  0.76945530  1
  O  O256  1  0.23852296  0.73521886  0.27023966  1
  O  O257  1  0.24271671  0.74297151  0.75575484  1
  O  O258  1  0.57089399  0.06588861  0.26345758  1
  O  O259  1  0.58221740  0.06817457  0.76458992  1
  O  O260  1  0.57399805  0.40686386  0.26391563  1
  O  O261  1  0.56751483  0.40135681  0.77378195  1
  O  O262  1  0.56110611  0.74160146  0.26027191  1
  O  O263  1  0.58604576  0.74445601  0.77800749  1
  O  O264  1  0.90155366  0.07243090  0.28913188  1
  O  O265  1  0.90118223  0.06035689  0.77206488  1
  O  O266  1  0.90747472  0.40250593  0.27105079  1
  O  O267  1  0.90266455  0.41453125  0.76952460  1
  O  O268  1  0.90645247  0.73289736  0.25994249  1
  O  O269  1  0.90275961  0.73416780  0.77885676  1
  O  O270  1  0.25825293  0.24739534  0.27007503  1
  O  O271  1  0.26353795  0.23375388  0.77606022  1
  O  O272  1  0.26078243  0.57616854  0.27010457  1
  O  O273  1  0.27122704  0.56259133  0.77452137  1
  O  O274  1  0.27355746  0.89473300  0.26114809  1
  O  O275  1  0.25207955  0.91338166  0.76314818  1
  O  O276  1  0.60419613  0.22964512  0.27672131  1
  O  O277  1  0.59478589  0.24586315  0.77020819  1
  O  O278  1  0.58757738  0.57677655  0.26730746  1
  O  O279  1  0.59759534  0.56787232  0.75862579  1
  O  O280  1  0.58561537  0.89923442  0.26495085  1
  O  O281  1  0.60806965  0.89986833  0.77127401  1
  O  O282  1  0.93521177  0.24499993  0.28681723  1
  O  O283  1  0.93878956  0.22839689  0.76843149  1
  O  O284  1  0.92984343  0.57602415  0.26651718  1
  O  O285  1  0.93317337  0.56895901  0.77390771  1
  O  O286  1  0.91646377  0.90907406  0.26562499  1
  O  O287  1  0.93580644  0.90375521  0.77528431  1
  O  O288  1  0.25416026  0.24717473  0.48205415  1
  O  O289  1  0.27074982  0.23777595  0.97306853  1
  O  O290  1  0.24815392  0.58479825  0.47087013  1
  O  O291  1  0.27234151  0.57273367  0.98187466  1
  O  O292  1  0.26396991  0.90013505  0.47749828  1
  O  O293  1  0.26497593  0.90266118  0.98071321  1
  O  O294  1  0.60667658  0.23155173  0.48406195  1
  O  O295  1  0.58563168  0.24416770  0.97059562  1
  O  O296  1  0.59766987  0.56722522  0.49485882  1
  O  O297  1  0.59338433  0.57471779  0.97904676  1
  O  O298  1  0.60013902  0.90673658  0.48948901  1
  O  O299  1  0.60226561  0.89985801  0.97293626  1
  O  O300  1  0.93914855  0.23565780  0.47324782  1
  O  O301  1  0.92932744  0.22536558  0.98079484  1
  O  O302  1  0.92272137  0.57808954  0.49472858  1
  O  O303  1  0.93317901  0.57988095  0.96910778  1
  O  O304  1  0.92855420  0.90612306  0.47751785  1
  O  O305  1  0.92470556  0.89958450  0.97273014  1
  O  O306  1  0.23757204  0.06774260  0.49386006  1
  O  O307  1  0.24919322  0.07463510  0.97809746  1
  O  O308  1  0.23069636  0.39807375  0.48335231  1
  O  O309  1  0.24872222  0.40698570  0.97522587  1
  O  O310  1  0.23407548  0.74725954  0.47594661  1
  O  O311  1  0.24203388  0.74339057  0.98050872  1
  O  O312  1  0.58447214  0.06913424  0.48452509  1
  O  O313  1  0.57618138  0.06170644  0.98618105  1
  O  O314  1  0.57004050  0.41000965  0.48763525  1
  O  O315  1  0.56245495  0.40098958  0.97384816  1
  O  O316  1  0.57447568  0.73745368  0.49263661  1
  O  O317  1  0.57439943  0.74664846  0.97916164  1
  O  O318  1  0.89871204  0.06279233  0.47799111  1
  O  O319  1  0.90036713  0.06872928  0.97337945  1
  O  O320  1  0.90043872  0.39198582  0.48085232  1
  O  O321  1  0.91277814  0.41587564  0.98569988  1
  O  O322  1  0.90562381  0.74766982  0.48040058  1
  O  O323  1  0.90238212  0.74077425  0.96987516  1
  O  O324  1  0.09747153  0.27304393  0.25067272  1
  O  O325  1  0.09986919  0.26131457  0.71928731  1
  O  O326  1  0.10115954  0.59711195  0.23363319  1
  O  O327  1  0.08746951  0.59797321  0.73000028  1
  O  O328  1  0.09135777  0.92568365  0.23898184  1
  O  O329  1  0.08907204  0.93570072  0.72167132  1
  O  O330  1  0.41623580  0.26136444  0.22984799  1
  O  O331  1  0.42257239  0.26349709  0.74109686  1
  O  O332  1  0.42292454  0.60281332  0.22471127  1
  O  O333  1  0.43486234  0.58897755  0.71898328  1
  O  O334  1  0.43276999  0.92625682  0.21657948  1
  O  O335  1  0.43162263  0.91297287  0.73526988  1
  O  O336  1  0.76510040  0.25924577  0.22847937  1
  O  O337  1  0.76012786  0.26552456  0.72784521  1
  O  O338  1  0.76750752  0.59261255  0.23375437  1
  O  O339  1  0.75524483  0.59116153  0.71938813  1
  O  O340  1  0.76070562  0.91921628  0.24267403  1
  O  O341  1  0.76634609  0.93393516  0.72823323  1
  O  O342  1  0.05688577  0.11128248  0.23310204  1
  O  O343  1  0.06396824  0.09975530  0.72472688  1
  O  O344  1  0.07288501  0.43170899  0.23377422  1
  O  O345  1  0.07326482  0.42701349  0.71276559  1
  O  O346  1  0.07319498  0.75252970  0.23013987  1
  O  O347  1  0.05596691  0.76933972  0.73328321  1
  O  O348  1  0.40625783  0.09413669  0.21496855  1
  O  O349  1  0.40574280  0.09110282  0.73752240  1
  O  O350  1  0.39119776  0.43113775  0.22818753  1
  O  O351  1  0.39916916  0.43252506  0.73012291  1
  O  O352  1  0.39772951  0.76530739  0.21753028  1
  O  O353  1  0.42592327  0.75094890  0.72970337  1
  O  O354  1  0.73353395  0.09597550  0.22938796  1
  O  O355  1  0.73634221  0.09330954  0.71918487  1
  O  O356  1  0.75066765  0.43128252  0.23344345  1
  O  O357  1  0.73812721  0.43208102  0.72246668  1
  O  O358  1  0.74925178  0.75229184  0.23625252  1
  O  O359  1  0.73348074  0.76307776  0.72444298  1
