# generated using pymatgen
data_BaLaInIrO6
_symmetry_space_group_name_H-M   'P 1'
_cell_length_a   17.53578661
_cell_length_b   17.56653336
_cell_length_c   16.50492027
_cell_angle_alpha   89.95370393
_cell_angle_beta   89.98282089
_cell_angle_gamma   90.04019945
_symmetry_Int_Tables_number   1
_chemical_formula_structural   BaLaInIrO6
_chemical_formula_sum   'Ba36 La36 In36 Ir36 O216'
_cell_volume   5084.22169161
_cell_formula_units_Z   36
loop_
 _symmetry_equiv_pos_site_id
 _symmetry_equiv_pos_as_xyz
  1  'x, y, z'
loop_
 _atom_site_type_symbol
 _atom_site_label
 _atom_site_symmetry_multiplicity
 _atom_site_fract_x
 _atom_site_fract_y
 _atom_site_fract_z
 _atom_site_occupancy
  Ba  Ba0  1  0.49988187  0.34375925  0.12361463  1
  Ba  Ba1  1  1.00368584  0.84822128  0.12813130  1
  Ba  Ba2  1  0.33134610  0.49055042  0.87915596  1
  Ba  Ba3  1  -0.00324057  0.82353046  0.87804764  1
  Ba  Ba4  1  0.67055890  0.49259912  0.37701101  1
  Ba  Ba5  1  0.16227540  0.67664641  0.62673064  1
  Ba  Ba6  1  0.49922351  0.32871986  0.87321355  1
  Ba  Ba7  1  -0.00362342  0.82657168  0.37547207  1
  Ba  Ba8  1  0.50024649  0.65645171  0.87677848  1
  Ba  Ba9  1  1.00120089  0.51170260  0.62161649  1
  Ba  Ba10  1  -0.00576995  0.48975453  0.86969430  1
  Ba  Ba11  1  0.33102991  0.17876057  0.12418691  1
  Ba  Ba12  1  0.33107851  0.84474330  0.12662044  1
  Ba  Ba13  1  0.66603890  0.82530947  0.37687493  1
  Ba  Ba14  1  0.83612444  0.99041791  0.37822560  1
  Ba  Ba15  1  0.66619256  0.83754586  0.62643900  1
  Ba  Ba16  1  0.66520585  0.50458152  0.12515702  1
  Ba  Ba17  1  0.49966321  0.32594285  0.37427005  1
  Ba  Ba18  1  0.17098833  0.32203059  0.37854199  1
  Ba  Ba19  1  0.33126416  0.82388239  0.37234615  1
  Ba  Ba20  1  1.00389784  0.17803749  0.62014360  1
  Ba  Ba21  1  0.83560020  0.66926907  0.62757665  1
  Ba  Ba22  1  0.33065062  0.50724421  0.62398571  1
  Ba  Ba23  1  0.83171624  0.34084876  0.12505646  1
  Ba  Ba24  1  0.00275775  0.16016556  0.87192589  1
  Ba  Ba25  1  0.83363411  0.00593799  0.62568574  1
  Ba  Ba26  1  0.33266186  0.15691703  0.37351535  1
  Ba  Ba27  1  0.66608098  0.82401471  0.87759385  1
  Ba  Ba28  1  0.83183198  0.65591255  0.87161883  1
  Ba  Ba29  1  0.83658717  0.00583137  0.12554852  1
  Ba  Ba30  1  0.66970221  0.16192823  0.87545424  1
  Ba  Ba31  1  1.00388801  0.17825325  0.12333401  1
  Ba  Ba32  1  0.67276866  0.17387298  0.62366587  1
  Ba  Ba33  1  0.66640578  0.49188394  0.87298931  1
  Ba  Ba34  1  0.32742043  0.82078751  0.87561349  1
  Ba  Ba35  1  0.50258786  0.65724971  0.37755603  1
  La  La36  1  0.83786914  0.31651037  0.37221847  1
  La  La37  1  0.50029910  0.99036094  0.87657852  1
  La  La38  1  0.84030389  0.98483204  0.87089722  1
  La  La39  1  0.82753422  0.67854376  0.11926879  1
  La  La40  1  0.49692236  0.67530438  0.12487117  1
  La  La41  1  0.15867086  0.34862343  0.62444304  1
  La  La42  1  0.83305397  0.34220552  0.62501495  1
  La  La43  1  0.50379019  0.98905622  0.37786500  1
  La  La44  1  0.49915026  0.01543608  0.62707625  1
  La  La45  1  0.16905191  0.65425676  0.37574726  1
  La  La46  1  0.49892821  0.34790447  0.62220769  1
  La  La47  1  0.33022771  0.48275131  0.37564607  1
  La  La48  1  0.66835061  0.84458504  0.12202995  1
  La  La49  1  0.33683609  0.18349213  0.61968758  1
  La  La50  1  0.67300096  0.18128333  0.12598778  1
  La  La51  1  0.00078030  0.15400926  0.37277455  1
  La  La52  1  0.15828432  0.34827127  0.12567517  1
  La  La53  1  0.66337489  0.15189458  0.37140940  1
  La  La54  1  1.00358537  0.51653054  0.12223853  1
  La  La55  1  0.17111998  0.98673517  0.37417317  1
  La  La56  1  0.17288979  0.98857028  0.87451613  1
  La  La57  1  -0.00923734  0.48225752  0.37764786  1
  La  La58  1  0.16126595  0.68481558  0.12555994  1
  La  La59  1  0.66813637  0.51087142  0.62422196  1
  La  La60  1  0.15776870  0.01894765  0.12690540  1
  La  La61  1  0.50122286  0.01170978  0.12877340  1
  La  La62  1  0.33591598  0.51002907  0.12920109  1
  La  La63  1  0.16746238  0.32653658  0.87883952  1
  La  La64  1  0.16265102  0.01305337  0.62041224  1
  La  La65  1  0.83873346  0.32336404  0.87764341  1
  La  La66  1  0.34040111  0.85058597  0.62207367  1
  La  La67  1  0.49356885  0.68201717  0.62592922  1
  La  La68  1  0.83354000  0.65873658  0.38172543  1
  La  La69  1  0.17264944  0.64420969  0.87835093  1
  La  La70  1  1.00206811  0.84502657  0.62703828  1
  La  La71  1  0.32944188  0.15665926  0.87740595  1
  In  In72  1  0.66935884  0.33413885  0.25421033  1
  In  In73  1  0.66755732  0.00133766  0.75286066  1
  In  In74  1  0.00189802  0.00117507  0.49994370  1
  In  In75  1  0.83213454  0.83099091  0.25123790  1
  In  In76  1  0.33223381  0.66548781  0.49754395  1
  In  In77  1  0.66533699  0.66609542  0.49996709  1
  In  In78  1  0.49965053  0.16740949  -0.00384510  1
  In  In79  1  0.50015473  0.83137610  0.25061122  1
  In  In80  1  0.16766865  0.83348753  0.74740541  1
  In  In81  1  0.16317588  0.50178862  0.24873372  1
  In  In82  1  0.33195849  0.33182252  0.74942839  1
  In  In83  1  0.33186709  0.00371839  0.00328859  1
  In  In84  1  0.66946033  0.00168562  -0.00010617  1
  In  In85  1  0.00109355  0.00440180  -0.00202377  1
  In  In86  1  0.83496827  0.49961233  0.00070010  1
  In  In87  1  0.66804183  -0.00178785  0.50156473  1
  In  In88  1  0.83708061  0.16675385  0.74809567  1
  In  In89  1  0.17058994  0.16777376  0.74788800  1
  In  In90  1  0.16302863  0.50057504  0.49740151  1
  In  In91  1  0.83619058  0.16303508  0.24945994  1
  In  In92  1  0.32976840  0.66590043  0.00365486  1
  In  In93  1  0.00183685  0.66770630  0.75291874  1
  In  In94  1  0.49651536  0.83714182  0.75231143  1
  In  In95  1  0.50179481  0.16902930  0.49905370  1
  In  In96  1  0.49932413  0.83502683  0.00456819  1
  In  In97  1  0.49868144  0.50154414  0.25429009  1
  In  In98  1  0.16434418  0.83572172  -0.00080060  1
  In  In99  1  0.49809783  0.50078146  0.74872642  1
  In  In100  1  0.32951216  0.66670310  0.74841662  1
  In  In101  1  0.33191800  0.00210773  0.24935673  1
  In  In102  1  -0.00081205  0.66561548  0.25238365  1
  In  In103  1  0.83748089  0.50145527  0.24849860  1
  In  In104  1  0.50043815  0.16843501  0.24833162  1
  In  In105  1  0.66637794  0.33440262  -0.00370985  1
  In  In106  1  0.83182035  0.49570890  0.74758629  1
  In  In107  1  0.83255669  0.82931752  0.74897075  1
  Ir  Ir108  1  0.49662118  0.16852951  0.74537854  1
  Ir  Ir109  1  0.00185431  0.33241583  0.74852191  1
  Ir  Ir110  1  0.16827158  0.17333549  -0.00076858  1
  Ir  Ir111  1  0.16453463  0.16987153  0.25236697  1
  Ir  Ir112  1  0.00090779  0.66584484  0.00291400  1
  Ir  Ir113  1  0.16844896  0.83519786  0.49885972  1
  Ir  Ir114  1  0.66072068  0.66309037  0.75009844  1
  Ir  Ir115  1  0.83689893  0.82906575  0.50100859  1
  Ir  Ir116  1  0.50142397  0.49602198  0.50211053  1
  Ir  Ir117  1  0.83538741  0.16779077  -0.00065131  1
  Ir  Ir118  1  0.83427060  0.82990542  0.00342068  1
  Ir  Ir119  1  0.83475527  0.17174850  0.49730699  1
  Ir  Ir120  1  0.16529549  0.83389712  0.25460296  1
  Ir  Ir121  1  -0.00061102  0.33102491  0.49749683  1
  Ir  Ir122  1  0.66539653  0.33051458  0.74234328  1
  Ir  Ir123  1  0.00279725  0.33237342  0.00124149  1
  Ir  Ir124  1  0.66451250  -0.00094203  0.25162501  1
  Ir  Ir125  1  0.16179313  0.49360024  0.75376956  1
  Ir  Ir126  1  0.33153429  0.33275033  0.50027274  1
  Ir  Ir127  1  0.00568069  0.00044485  0.74844032  1
  Ir  Ir128  1  0.67077946  0.33367879  0.50202713  1
  Ir  Ir129  1  0.83456310  0.49759829  0.49935058  1
  Ir  Ir130  1  0.32799946  0.33627260  0.00377130  1
  Ir  Ir131  1  0.49699795  0.50184628  0.00390805  1
  Ir  Ir132  1  0.32643090  0.33506308  0.24869458  1
  Ir  Ir133  1  0.32882754  0.66429841  0.25132828  1
  Ir  Ir134  1  0.00596579  0.00282558  0.25255213  1
  Ir  Ir135  1  0.33130047  0.00012025  0.50283046  1
  Ir  Ir136  1  0.33326022  0.00563926  0.74492046  1
  Ir  Ir137  1  0.00250642  0.33247620  0.25103526  1
  Ir  Ir138  1  0.16407010  0.49605325  0.00329130  1
  Ir  Ir139  1  0.66285318  0.66459788  0.00288923  1
  Ir  Ir140  1  0.00345625  0.67125568  0.49804087  1
  Ir  Ir141  1  0.49683377  0.83667605  0.50207219  1
  Ir  Ir142  1  0.66737105  0.66737943  0.24632504  1
  Ir  Ir143  1  0.17091431  0.16663286  0.49832808  1
  O  O144  1  0.29632342  0.33681773  0.12645553  1
  O  O145  1  0.29800816  0.32460289  0.61943457  1
  O  O146  1  0.29611876  0.65151071  0.13361985  1
  O  O147  1  0.31082167  0.66270100  0.62126752  1
  O  O148  1  0.29053191  1.00258139  0.12649972  1
  O  O149  1  0.29732908  0.99273223  0.62400131  1
  O  O150  1  0.65246302  0.31554477  0.12553665  1
  O  O151  1  0.63478988  0.32629988  0.62095843  1
  O  O152  1  0.63384498  0.66293056  0.12496009  1
  O  O153  1  0.63398999  0.65802907  0.62881593  1
  O  O154  1  0.63720637  0.99223778  0.13189314  1
  O  O155  1  0.63575122  0.99925224  0.62534348  1
  O  O156  1  0.97927761  0.32870480  0.12586424  1
  O  O157  1  0.97049251  0.33063209  0.62253472  1
  O  O158  1  0.96788798  0.65832571  0.12243800  1
  O  O159  1  0.98652715  0.66968178  0.61632612  1
  O  O160  1  0.98974002  1.00918368  0.13147573  1
  O  O161  1  0.98450188  0.99439690  0.62784369  1
  O  O162  1  0.18352230  0.15524353  0.12647808  1
  O  O163  1  0.20039500  0.15269804  0.61850330  1
  O  O164  1  0.19614155  0.48682901  0.12182292  1
  O  O165  1  0.17846593  0.48835355  0.62995799  1
  O  O166  1  0.18327621  0.82301637  0.13316951  1
  O  O167  1  0.20296037  0.83107599  0.61708744  1
  O  O168  1  0.53635692  0.15191794  0.12379767  1
  O  O169  1  0.52302827  0.15358556  0.62656124  1
  O  O170  1  0.51198977  0.50321155  0.12356611  1
  O  O171  1  0.53121516  0.48605802  0.61993467  1
  O  O172  1  0.53347352  0.81623670  0.12877830  1
  O  O173  1  0.51479682  0.82952096  0.62121553  1
  O  O174  1  0.85387975  0.16347475  0.11939924  1
  O  O175  1  0.85513881  0.17345896  0.61634347  1
  O  O176  1  0.87053908  0.49961724  0.12371168  1
  O  O177  1  0.85376773  0.48154512  0.61838960  1
  O  O178  1  0.85482736  0.81708001  0.12287602  1
  O  O179  1  0.86561190  0.82716102  0.61935263  1
  O  O180  1  0.13611796  0.17303810  0.37575289  1
  O  O181  1  0.15307566  0.18966350  0.87762449  1
  O  O182  1  0.12733412  0.51015090  0.37237995  1
  O  O183  1  0.14171425  0.50091981  0.87910653  1
  O  O184  1  0.14261282  0.84938298  0.37773381  1
  O  O185  1  0.14513620  0.85547854  0.87249104  1
  O  O186  1  0.48050947  0.16803083  0.37515351  1
  O  O187  1  0.46379634  0.17598270  0.86269548  1
  O  O188  1  0.46652122  0.50171904  0.38300973  1
  O  O189  1  0.48166805  0.49913763  0.88185470  1
  O  O190  1  0.47989402  0.84510494  0.38052966  1
  O  O191  1  0.47416880  0.84921619  0.87861282  1
  O  O192  1  0.80441132  0.17480621  0.37966312  1
  O  O193  1  0.82070790  0.18254424  0.87867047  1
  O  O194  1  0.82147426  0.51785295  0.37965376  1
  O  O195  1  0.81957321  0.49317102  0.87378632  1
  O  O196  1  0.81762794  0.82939894  0.38083621  1
  O  O197  1  0.81825523  0.84422585  0.88359062  1
  O  O198  1  0.03205974  0.00482587  0.37345395  1
  O  O199  1  0.03415876  0.00117660  0.86840547  1
  O  O200  1  0.02594630  0.34406623  0.37393681  1
  O  O201  1  0.03268655  0.33394826  0.87463535  1
  O  O202  1  0.03265591  0.67284559  0.37922110  1
  O  O203  1  0.03659717  0.66833353  0.88402329  1
  O  O204  1  0.36446166  0.00192341  0.38279054  1
  O  O205  1  0.36506800  0.01476777  0.86340925  1
  O  O206  1  0.35222645  0.34469922  0.37351075  1
  O  O207  1  0.34487131  0.33518594  0.88226987  1
  O  O208  1  0.35449270  0.67012007  0.36903801  1
  O  O209  1  0.34640506  0.65974833  0.87647545  1
  O  O210  1  0.68846016  0.00803820  0.37166403  1
  O  O211  1  0.70813407  0.00450792  0.87852866  1
  O  O212  1  0.70305212  0.33963310  0.38558161  1
  O  O213  1  0.69743487  0.33452202  0.86199236  1
  O  O214  1  0.69641061  0.66815015  0.36899402  1
  O  O215  1  0.68450102  0.66438836  0.87744534  1
  O  O216  1  0.08075091  0.10011265  0.01285362  1
  O  O217  1  0.08271574  0.09466177  0.51542026  1
  O  O218  1  0.06962054  0.42703595  0.02971316  1
  O  O219  1  0.07258948  0.41820434  0.51784834  1
  O  O220  1  0.06941616  0.75441507  0.02495823  1
  O  O221  1  0.06871739  0.77098101  0.52245440  1
  O  O222  1  0.39875052  0.10310398  0.00554851  1
  O  O223  1  0.40024266  0.09013150  0.53006181  1
  O  O224  1  0.39620585  0.43419632  0.02780813  1
  O  O225  1  0.40789361  0.42272316  0.52235244  1
  O  O226  1  0.40998930  0.75356867  0.02874254  1
  O  O227  1  0.40518869  0.76619788  0.52333782  1
  O  O228  1  0.74096628  0.10209219  0.02563693  1
  O  O229  1  0.74833042  0.09586480  0.51128540  1
  O  O230  1  0.74247884  0.42426534  0.01505982  1
  O  O231  1  0.73844336  0.42831375  0.52869762  1
  O  O232  1  0.73617728  0.75722227  0.02924151  1
  O  O233  1  0.74882924  0.75503023  0.51607033  1
  O  O234  1  0.10331151  0.27040892  0.02198819  1
  O  O235  1  0.10030645  0.26338711  0.52396594  1
  O  O236  1  0.09623756  0.59547146  0.02977035  1
  O  O237  1  0.09475474  0.60251904  0.51168949  1
  O  O238  1  0.09813195  0.93613393  0.02443734  1
  O  O239  1  0.10236089  0.92876737  0.52341486  1
  O  O240  1  0.41854591  0.26896333  0.01759497  1
  O  O241  1  0.42374226  0.26272562  0.52697922  1
  O  O242  1  0.42518167  0.59019058  0.02971671  1
  O  O243  1  0.43738860  0.59153802  0.52495529  1
  O  O244  1  0.43371841  0.93908928  0.02957832  1
  O  O245  1  0.42726480  0.93304330  0.52906937  1
  O  O246  1  0.76476007  0.25530548  0.01309998  1
  O  O247  1  0.76995451  0.27127908  0.51959501  1
  O  O248  1  0.75886880  0.60033865  0.02224297  1
  O  O249  1  0.75912388  0.58455528  0.52091191  1
  O  O250  1  0.76091850  0.91527245  0.02736145  1
  O  O251  1  0.76241022  0.91689190  0.51675425  1
  O  O252  1  0.22870857  0.07371391  0.27544325  1
  O  O253  1  0.24057895  0.06823137  0.77631609  1
  O  O254  1  0.23961253  0.40779808  0.26935196  1
  O  O255  1  0.22504772  0.39533435  0.76528077  1
  O  O256  1  0.22872119  0.73120285  0.27181015  1
  O  O257  1  0.22769037  0.73138420  0.77901934  1
  O  O258  1  0.57352602  0.06502864  0.27785425  1
  O  O259  1  0.55775614  0.07365298  0.77218205  1
  O  O260  1  0.57274103  0.40877422  0.26562056  1
  O  O261  1  0.57523978  0.39907975  0.75511926  1
  O  O262  1  0.57678197  0.73427978  0.26765221  1
  O  O263  1  0.57072239  0.73595289  0.75862059  1
  O  O264  1  0.91699440  0.07569508  0.27704925  1
  O  O265  1  0.91151097  0.06683126  0.77248852  1
  O  O266  1  0.90961383  0.39688804  0.27906299  1
  O  O267  1  0.90243065  0.39241272  0.76634053  1
  O  O268  1  0.89567827  0.72701198  0.27228037  1
  O  O269  1  0.90809539  0.74149170  0.76939483  1
  O  O270  1  0.25814900  0.23821212  0.26540043  1
  O  O271  1  0.27635199  0.22590531  0.76076598  1
  O  O272  1  0.26363613  0.57127182  0.27924631  1
  O  O273  1  0.25092004  0.56337408  0.76864228  1
  O  O274  1  0.25275310  0.90799228  0.27259685  1
  O  O275  1  0.26671303  0.91406354  0.76546273  1
  O  O276  1  0.60478762  0.22950812  0.27134416  1
  O  O277  1  0.59166632  0.23619060  0.76530860  1
  O  O278  1  0.59692461  0.57909947  0.26686014  1
  O  O279  1  0.59453451  0.57237703  0.76122782  1
  O  O280  1  0.59419764  0.91163717  0.27104873  1
  O  O281  1  0.58369876  0.91674817  0.77759064  1
  O  O282  1  0.93711558  0.23898459  0.27957390  1
  O  O283  1  0.93199581  0.24376764  0.76508832  1
  O  O284  1  0.94495545  0.55732946  0.26836181  1
  O  O285  1  0.92304927  0.57515218  0.75379721  1
  O  O286  1  0.93029143  0.91403536  0.26159666  1
  O  O287  1  0.93278219  0.91305269  0.76477515  1
  O  O288  1  0.26514380  0.23576291  0.48471236  1
  O  O289  1  0.26209688  0.24194601  0.97600485  1
  O  O290  1  0.25973477  0.57013882  0.46716279  1
  O  O291  1  0.25226417  0.56695296  0.98671738  1
  O  O292  1  0.26006957  0.90813045  0.47682209  1
  O  O293  1  0.25864288  0.91281203  0.97619272  1
  O  O294  1  0.60778865  0.23898111  0.47623148  1
  O  O295  1  0.59103732  0.24222628  0.98129809  1
  O  O296  1  0.59253708  0.56531703  0.48836295  1
  O  O297  1  0.59199509  0.57065325  0.98263520  1
  O  O298  1  0.58348635  0.90913121  0.48086208  1
  O  O299  1  0.59969203  0.90273743  0.99342192  1
  O  O300  1  0.92778655  0.24170344  0.46697258  1
  O  O301  1  0.92923884  0.24160635  0.97655478  1
  O  O302  1  0.93285277  0.57425612  0.47263878  1
  O  O303  1  0.93570661  0.57440060  0.98543624  1
  O  O304  1  0.92610873  0.90444595  0.48967830  1
  O  O305  1  0.91941145  0.90886442  0.98697903  1
  O  O306  1  0.23440160  0.06610354  0.47602867  1
  O  O307  1  0.23471821  0.08153228  0.96829469  1
  O  O308  1  0.24633278  0.40965973  0.48260653  1
  O  O309  1  0.22681881  0.39824072  0.98333777  1
  O  O310  1  0.22854212  0.73889595  0.47178832  1
  O  O311  1  0.22716060  0.73137574  0.98615406  1
  O  O312  1  0.57153584  0.07104119  0.47416416  1
  O  O313  1  0.56522025  0.06399441  0.97439951  1
  O  O314  1  0.57100894  0.39798295  0.48715439  1
  O  O315  1  0.56866586  0.41391402  0.98870367  1
  O  O316  1  0.56724729  0.74396542  0.49074597  1
  O  O317  1  0.57401015  0.73219791  0.98847522  1
  O  O318  1  0.91307398  0.08660205  0.47662898  1
  O  O319  1  0.90000795  0.07201266  0.97473024  1
  O  O320  1  0.90372871  0.40102767  0.47202361  1
  O  O321  1  0.90999158  0.39585846  0.97675551  1
  O  O322  1  0.90477928  0.73334524  0.47712954  1
  O  O323  1  0.90503025  0.73336714  0.98352678  1
  O  O324  1  0.09954882  0.26752609  0.22788367  1
  O  O325  1  0.10088003  0.26906718  0.72685096  1
  O  O326  1  0.09843971  0.59949769  0.21702134  1
  O  O327  1  0.09796712  0.58890475  0.74482008  1
  O  O328  1  0.10393283  0.93601234  0.23280041  1
  O  O329  1  0.09780268  0.93421486  0.72005183  1
  O  O330  1  0.41733880  0.26536780  0.23340767  1
  O  O331  1  0.43226583  0.25985869  0.71339294  1
  O  O332  1  0.42043946  0.59614622  0.22456460  1
  O  O333  1  0.43209166  0.59953374  0.72361659  1
  O  O334  1  0.43036219  0.92904038  0.22776291  1
  O  O335  1  0.42367043  0.93920802  0.71724515  1
  O  O336  1  0.76715873  0.25887204  0.24214008  1
  O  O337  1  0.76272536  0.26904527  0.72661724  1
  O  O338  1  0.76569386  0.60584098  0.22781741  1
  O  O339  1  0.74601899  0.58504319  0.72747981  1
  O  O340  1  0.75186020  0.92435780  0.23037490  1
  O  O341  1  0.76071764  0.92190788  0.73673793  1
  O  O342  1  0.07154488  0.10100611  0.24071119  1
  O  O343  1  0.07877210  0.08921977  0.72771969  1
  O  O344  1  0.06654484  0.42658124  0.22115205  1
  O  O345  1  0.07061198  0.42300956  0.72817528  1
  O  O346  1  0.07635684  0.76221076  0.23531592  1
  O  O347  1  0.06612941  0.76976711  0.72428023  1
  O  O348  1  0.41302072  0.08805218  0.22128329  1
  O  O349  1  0.40044306  0.10124925  0.71781569  1
  O  O350  1  0.39100875  0.43214009  0.23499332  1
  O  O351  1  0.40988934  0.42002215  0.72817281  1
  O  O352  1  0.40243875  0.75077978  0.22765982  1
  O  O353  1  0.39887430  0.76930195  0.72279665  1
  O  O354  1  0.72995019  0.09454833  0.23225406  1
  O  O355  1  0.74437013  0.09386584  0.73438893  1
  O  O356  1  0.74502646  0.42841793  0.23766487  1
  O  O357  1  0.73234242  0.42091647  0.71507692  1
  O  O358  1  0.73222715  0.75953658  0.22097646  1
  O  O359  1  0.73529005  0.74810063  0.73702625  1
