# generated using pymatgen
data_BaLaInIrO6
_symmetry_space_group_name_H-M   'P 1'
_cell_length_a   17.50964994
_cell_length_b   17.54058219
_cell_length_c   16.48726935
_cell_angle_alpha   89.97210791
_cell_angle_beta   90.00510682
_cell_angle_gamma   90.03714612
_symmetry_Int_Tables_number   1
_chemical_formula_structural   BaLaInIrO6
_chemical_formula_sum   'Ba36 La36 In36 Ir36 O216'
_cell_volume   5063.72435047
_cell_formula_units_Z   36
loop_
 _symmetry_equiv_pos_site_id
 _symmetry_equiv_pos_as_xyz
  1  'x, y, z'
loop_
 _atom_site_type_symbol
 _atom_site_label
 _atom_site_symmetry_multiplicity
 _atom_site_fract_x
 _atom_site_fract_y
 _atom_site_fract_z
 _atom_site_occupancy
  Ba  Ba0  1  0.33759086  0.17811347  0.12697527  1
  Ba  Ba1  1  0.49728608  0.33976545  0.62145898  1
  Ba  Ba2  1  0.83218484  0.67784100  0.12373966  1
  Ba  Ba3  1  0.00241567  0.82909910  0.87620536  1
  Ba  Ba4  1  0.99619928  0.17246801  0.12434115  1
  Ba  Ba5  1  -0.00313348  0.49335581  0.87512506  1
  Ba  Ba6  1  0.83436784  0.65737142  0.37537549  1
  Ba  Ba7  1  0.33785517  0.17133835  0.62864272  1
  Ba  Ba8  1  0.66313850  0.15701215  0.36976363  1
  Ba  Ba9  1  0.83370189  0.66235188  0.87550662  1
  Ba  Ba10  1  0.66298641  0.82697042  0.87477689  1
  Ba  Ba11  1  0.33687557  0.82521905  0.37206730  1
  Ba  Ba12  1  0.83041055  0.00924233  0.62573776  1
  Ba  Ba13  1  0.16717164  0.65752930  0.37468528  1
  Ba  Ba14  1  0.33261953  0.15745077  0.88035544  1
  Ba  Ba15  1  0.50368459  0.32090831  0.87701846  1
  Ba  Ba16  1  0.83249832  0.00952553  0.12936804  1
  Ba  Ba17  1  0.50020178  0.67585610  0.62475898  1
  Ba  Ba18  1  0.67176021  0.17708270  0.12504961  1
  Ba  Ba19  1  0.33224064  0.82896543  0.87340425  1
  Ba  Ba20  1  0.83341487  0.67567443  0.62492643  1
  Ba  Ba21  1  0.16516670  0.00350457  0.62849623  1
  Ba  Ba22  1  0.83795719  0.32496018  0.87419015  1
  Ba  Ba23  1  0.16381911  0.67597338  0.12474560  1
  Ba  Ba24  1  0.16935557  0.32226113  0.87662509  1
  Ba  Ba25  1  0.16871434  0.34023948  0.62568552  1
  Ba  Ba26  1  0.66225512  0.82594160  0.37262365  1
  Ba  Ba27  1  0.83004836  0.99106577  0.37470470  1
  Ba  Ba28  1  -0.00501431  0.15864405  0.87342732  1
  Ba  Ba29  1  0.67136817  0.17878339  0.61944471  1
  Ba  Ba30  1  0.50319148  0.65606393  0.87411638  1
  Ba  Ba31  1  0.50301551  0.33983387  0.12541738  1
  Ba  Ba32  1  0.83499869  0.98866625  0.88117755  1
  Ba  Ba33  1  0.50086647  0.00514141  0.62408938  1
  Ba  Ba34  1  0.49821634  0.01039668  0.12818006  1
  Ba  Ba35  1  0.33523915  0.50706077  0.12294429  1
  La  La36  1  -0.01025898  0.82021057  0.37813595  1
  La  La37  1  0.67082203  0.51229068  0.62769983  1
  La  La38  1  1.00029726  0.84767846  0.12689634  1
  La  La39  1  0.32744806  0.48558659  0.87376540  1
  La  La40  1  0.50484839  0.99080633  0.87481740  1
  La  La41  1  0.16426002  0.68454614  0.62422590  1
  La  La42  1  0.66843717  0.51154976  0.12594646  1
  La  La43  1  0.50085175  0.31544982  0.37224119  1
  La  La44  1  1.00365380  0.18086332  0.62522438  1
  La  La45  1  0.67247374  0.85089317  0.12126664  1
  La  La46  1  0.82491161  0.35064720  0.12392568  1
  La  La47  1  0.66145484  0.48694284  0.87693086  1
  La  La48  1  0.83127161  0.35092836  0.62564749  1
  La  La49  1  0.33582017  0.85106923  0.62217360  1
  La  La50  1  0.33999004  0.51018923  0.62564757  1
  La  La51  1  -0.00463750  0.15080887  0.37733992  1
  La  La52  1  0.16321272  0.01158080  0.12934749  1
  La  La53  1  0.67365532  0.84673840  0.62582741  1
  La  La54  1  0.16539945  0.34990162  0.12489766  1
  La  La55  1  -0.00664419  0.48882318  0.37061793  1
  La  La56  1  0.49684808  0.67910146  0.12572004  1
  La  La57  1  0.15870155  1.00351701  0.88422010  1
  La  La58  1  0.66214940  0.48661376  0.37736648  1
  La  La59  1  0.17586124  0.65030929  0.87475216  1
  La  La60  1  0.33201384  0.84718942  0.12540261  1
  La  La61  1  0.99858701  0.84542089  0.62882872  1
  La  La62  1  0.83643452  0.31697874  0.37532050  1
  La  La63  1  0.33364713  0.14775986  0.37366947  1
  La  La64  1  1.00316453  0.51510178  0.12142592  1
  La  La65  1  0.66288590  0.15176706  0.87794499  1
  La  La66  1  0.16921337  0.98305655  0.37377664  1
  La  La67  1  0.50805976  0.98965283  0.37579609  1
  La  La68  1  0.50652237  0.64450352  0.37221352  1
  La  La69  1  1.00285434  0.51974934  0.62251126  1
  La  La70  1  0.16837818  0.31479118  0.37180443  1
  La  La71  1  0.33133404  0.48558459  0.37324042  1
  In  In72  1  0.00198710  0.33780663  0.49792854  1
  In  In73  1  -0.00166738  0.33268730  0.24778726  1
  In  In74  1  0.33557135  0.66830724  0.00119642  1
  In  In75  1  0.16528761  0.50125319  -0.00023640  1
  In  In76  1  0.16690163  0.50149144  0.74430250  1
  In  In77  1  0.66809119  0.33155023  0.74860464  1
  In  In78  1  0.66589736  0.66727502  0.00031283  1
  In  In79  1  0.33436709  0.33169341  0.74964853  1
  In  In80  1  0.49942488  0.83283978  0.00192886  1
  In  In81  1  0.50026021  0.16579594  0.50140544  1
  In  In82  1  0.82967482  0.83297894  0.25085260  1
  In  In83  1  0.33382161  0.66794151  0.74878765  1
  In  In84  1  0.16621116  0.50026927  0.25333425  1
  In  In85  1  0.49934139  0.82916292  0.49907359  1
  In  In86  1  0.66727065  0.66605370  0.49774956  1
  In  In87  1  0.66861276  0.00119636  0.75059533  1
  In  In88  1  0.16706808  0.16370344  0.49836587  1
  In  In89  1  0.33445700  -0.00160355  0.75709555  1
  In  In90  1  -0.00170837  0.66823609  0.24992666  1
  In  In91  1  0.50126041  0.49958715  0.74929674  1
  In  In92  1  0.83223450  0.16711507  -0.00080492  1
  In  In93  1  0.66822597  0.00078244  0.49851394  1
  In  In94  1  0.66714514  0.33358971  0.25179252  1
  In  In95  1  0.33221849  0.33156792  0.49567106  1
  In  In96  1  -0.00268028  0.33382086  0.00366764  1
  In  In97  1  0.33677337  0.33270190  0.00212319  1
  In  In98  1  0.00356618  0.67063423  0.75207769  1
  In  In99  1  0.16584836  0.16304187  0.75066560  1
  In  In100  1  0.16642801  0.83491760  0.75418683  1
  In  In101  1  -0.00172121  -0.00038486  0.50134708  1
  In  In102  1  0.33244608  0.66538069  0.49742822  1
  In  In103  1  0.16640715  0.16850223  0.00617160  1
  In  In104  1  -0.00101162  0.33699195  0.74645714  1
  In  In105  1  0.83279864  0.50313208  0.75360092  1
  In  In106  1  0.16637561  0.83085608  0.25120570  1
  In  In107  1  0.49987814  0.83152328  0.24790578  1
  Ir  Ir108  1  0.66222338  0.65995156  0.24876906  1
  Ir  Ir109  1  0.33065400  -0.00249508  0.49290505  1
  Ir  Ir110  1  0.83489281  0.83072582  0.50320140  1
  Ir  Ir111  1  -0.00719365  -0.00011871  0.75094472  1
  Ir  Ir112  1  0.33396864  0.33268708  0.25411177  1
  Ir  Ir113  1  0.16657115  0.83630287  0.00322873  1
  Ir  Ir114  1  0.00330301  0.66770307  0.50055522  1
  Ir  Ir115  1  0.50423567  0.16288036  0.00096874  1
  Ir  Ir116  1  0.00505367  0.00283816  0.25205555  1
  Ir  Ir117  1  0.67080932  0.33842923  0.49704636  1
  Ir  Ir118  1  0.00079080  -0.00374567  0.00532650  1
  Ir  Ir119  1  0.83120140  0.50370130  0.00557079  1
  Ir  Ir120  1  0.16564107  0.50137611  0.49658161  1
  Ir  Ir121  1  0.83314196  0.83250915  0.75051196  1
  Ir  Ir122  1  0.33078561  0.00083844  0.25151728  1
  Ir  Ir123  1  0.83599839  0.16999917  0.49755959  1
  Ir  Ir124  1  0.66702419  0.00055758  0.00113141  1
  Ir  Ir125  1  0.16837034  0.16642899  0.25256561  1
  Ir  Ir126  1  0.83300215  0.16624219  0.74457717  1
  Ir  Ir127  1  0.50361664  0.16306567  0.75577234  1
  Ir  Ir128  1  0.83388623  0.49968989  0.49341633  1
  Ir  Ir129  1  0.49879600  0.49777930  0.25214788  1
  Ir  Ir130  1  0.16355732  0.83283210  0.49922609  1
  Ir  Ir131  1  0.33840631  0.66405071  0.25001089  1
  Ir  Ir132  1  0.50444865  0.49896798  0.00416594  1
  Ir  Ir133  1  0.82905184  0.50043801  0.25179077  1
  Ir  Ir134  1  0.66687349  0.66847703  0.74861447  1
  Ir  Ir135  1  0.50267140  0.83398002  0.74711286  1
  Ir  Ir136  1  0.66889506  0.33717720  0.00172540  1
  Ir  Ir137  1  0.00025685  0.67244509  0.00100206  1
  Ir  Ir138  1  0.83575728  0.83507362  0.00064332  1
  Ir  Ir139  1  0.49564901  0.16609736  0.24799338  1
  Ir  Ir140  1  0.83637341  0.16677823  0.25505388  1
  Ir  Ir141  1  0.33397724  -0.00324218  0.00611811  1
  Ir  Ir142  1  0.66494892  0.00334863  0.24743191  1
  Ir  Ir143  1  0.50095826  0.49671920  0.49591586  1
  O  O144  1  0.30329910  0.33291452  0.13544496  1
  O  O145  1  0.31897778  0.32716924  0.62008198  1
  O  O146  1  0.31323125  0.65901609  0.13278562  1
  O  O147  1  0.29878517  0.64890231  0.62102389  1
  O  O148  1  0.29881163  0.99281622  0.12929088  1
  O  O149  1  0.31552191  0.99400650  0.61434473  1
  O  O150  1  0.65374827  0.33688423  0.12280657  1
  O  O151  1  0.64918409  0.33501892  0.61576347  1
  O  O152  1  0.63330759  0.64957635  0.13091398  1
  O  O153  1  0.64944538  0.65504503  0.62797225  1
  O  O154  1  0.64801147  0.99302925  0.12366930  1
  O  O155  1  0.65437204  0.98994251  0.62512127  1
  O  O156  1  0.95568845  0.32638161  0.12943691  1
  O  O157  1  0.96420887  0.31994657  0.61772733  1
  O  O158  1  0.97921617  0.66092667  0.12008417  1
  O  O159  1  0.98327307  0.65906919  0.61850429  1
  O  O160  1  0.98010122  0.98548120  0.12931507  1
  O  O161  1  0.97778810  0.98386514  0.63008965  1
  O  O162  1  0.19095193  0.14785842  0.13508602  1
  O  O163  1  0.18866934  0.15505710  0.62280428  1
  O  O164  1  0.18721352  0.49098207  0.12777008  1
  O  O165  1  0.20281019  0.49699282  0.61120427  1
  O  O166  1  0.19368266  0.83068045  0.12309172  1
  O  O167  1  0.19612410  0.82752810  0.61760016  1
  O  O168  1  0.52295016  0.16552871  0.12362196  1
  O  O169  1  0.51988018  0.16368395  0.63386685  1
  O  O170  1  0.53418724  0.49478350  0.12960737  1
  O  O171  1  0.53545071  0.49368950  0.61370005  1
  O  O172  1  0.53774204  0.82171295  0.12811272  1
  O  O173  1  0.53449426  0.83302253  0.62798396  1
  O  O174  1  0.84559709  0.16435066  0.13435597  1
  O  O175  1  0.86580846  0.16279813  0.61990497  1
  O  O176  1  0.86310809  0.49341814  0.12984467  1
  O  O177  1  0.86475291  0.49261549  0.61156061  1
  O  O178  1  0.86147455  0.83702014  0.12184970  1
  O  O179  1  0.86285068  0.83325834  0.62729777  1
  O  O180  1  0.13248486  0.17625855  0.36837018  1
  O  O181  1  0.14436928  0.15329206  0.88034521  1
  O  O182  1  0.12935815  0.50507797  0.38017497  1
  O  O183  1  0.14208790  0.51597623  0.87406838  1
  O  O184  1  0.13009718  0.84046590  0.37868328  1
  O  O185  1  0.15281660  0.85893208  0.88399129  1
  O  O186  1  0.47187274  0.17141519  0.36739376  1
  O  O187  1  0.48381922  0.15541961  0.87901312  1
  O  O188  1  0.46754849  0.50719020  0.37373836  1
  O  O189  1  0.47312916  0.50234793  0.88489802  1
  O  O190  1  0.48522158  0.85182965  0.37104994  1
  O  O191  1  0.48366651  0.84522546  0.87052192  1
  O  O192  1  0.81035572  0.17852776  0.37631283  1
  O  O193  1  0.80187052  0.16982146  0.86543918  1
  O  O194  1  0.79714783  0.50465728  0.37220883  1
  O  O195  1  0.80007481  0.50432848  0.88443018  1
  O  O196  1  0.81475572  0.83067337  0.38210565  1
  O  O197  1  0.81072213  0.83179116  0.87474559  1
  O  O198  1  0.03298912  0.01126711  0.37207089  1
  O  O199  1  0.02315676  0.00327369  0.87915248  1
  O  O200  1  0.03206602  0.35091355  0.37185047  1
  O  O201  1  0.01584255  0.33821664  0.87493914  1
  O  O202  1  0.01879033  0.68227699  0.38002693  1
  O  O203  1  0.03376553  0.67467642  0.88143695  1
  O  O204  1  0.36640854  0.00345243  0.37130987  1
  O  O205  1  0.36714102  -0.00550532  0.88638594  1
  O  O206  1  0.36661436  0.34729145  0.37088506  1
  O  O207  1  0.35724019  0.34944218  0.87610772  1
  O  O208  1  0.36981221  0.66992575  0.36940045  1
  O  O209  1  0.35621379  0.67891046  0.87578782  1
  O  O210  1  0.67908782  -0.00046336  0.36745910  1
  O  O211  1  0.68343169  0.00548877  0.88013796  1
  O  O212  1  0.70053632  0.34747536  0.37770073  1
  O  O213  1  0.68830367  0.34603100  0.88103451  1
  O  O214  1  0.68468694  0.66295175  0.36688574  1
  O  O215  1  0.68332433  0.67094415  0.86888367  1
  O  O216  1  0.07687031  0.07992082  0.02497877  1
  O  O217  1  0.06183990  0.10061929  0.51715062  1
  O  O218  1  0.06791778  0.43034005  0.03191389  1
  O  O219  1  0.06782690  0.44308057  0.52220695  1
  O  O220  1  0.06609080  0.77105239  0.02511902  1
  O  O221  1  0.06947566  0.76461476  0.52870466  1
  O  O222  1  0.40571309  0.09045236  0.02187900  1
  O  O223  1  0.39720685  0.09074600  0.50391433  1
  O  O224  1  0.41710119  0.42884869  0.02077232  1
  O  O225  1  0.40318765  0.43704083  0.51492386  1
  O  O226  1  0.40359550  0.76316248  0.03609857  1
  O  O227  1  0.39826440  0.76489962  0.52553697  1
  O  O228  1  0.73499396  0.09404625  0.00776354  1
  O  O229  1  0.74643702  0.09771181  0.51041288  1
  O  O230  1  0.73554496  0.43486682  0.02822307  1
  O  O231  1  0.73903621  0.43363237  0.52357530  1
  O  O232  1  0.74016431  0.76811947  0.02287617  1
  O  O233  1  0.73861109  0.76476900  0.52406616  1
  O  O234  1  0.09844060  0.26657657  0.03423073  1
  O  O235  1  0.09558239  0.26333746  0.51015144  1
  O  O236  1  0.08521903  0.59827773  0.01920001  1
  O  O237  1  0.09988568  0.59872729  0.52696700  1
  O  O238  1  0.09792472  0.92849829  0.03064436  1
  O  O239  1  0.09266468  0.92053904  0.51771949  1
  O  O240  1  0.43391841  0.25321395  0.01474489  1
  O  O241  1  0.43400945  0.26343657  0.49941458  1
  O  O242  1  0.44111855  0.59350510  0.02738122  1
  O  O243  1  0.43100093  0.58649238  0.51660152  1
  O  O244  1  0.42002805  0.92417320  0.02846126  1
  O  O245  1  0.41801276  0.92649565  0.51426690  1
  O  O246  1  0.76204421  0.27118010  0.02322620  1
  O  O247  1  0.77175339  0.27368048  0.51617782  1
  O  O248  1  0.75794707  0.58995363  0.02472437  1
  O  O249  1  0.75983037  0.58527660  0.51845842  1
  O  O250  1  0.75722286  0.92382672  0.02531869  1
  O  O251  1  0.76126204  0.91712205  0.51904880  1
  O  O252  1  0.23625301  0.07105178  0.28194908  1
  O  O253  1  0.23200599  0.05896251  0.77721118  1
  O  O254  1  0.23905542  0.39846972  0.27871500  1
  O  O255  1  0.24147442  0.41047661  0.77045020  1
  O  O256  1  0.24774647  0.73589626  0.26690695  1
  O  O257  1  0.22541761  0.72879287  0.76681938  1
  O  O258  1  0.56538581  0.07107414  0.27133800  1
  O  O259  1  0.57144407  0.07205019  0.77775274  1
  O  O260  1  0.56808126  0.40684848  0.28066300  1
  O  O261  1  0.58045585  0.41191957  0.77206454  1
  O  O262  1  0.56561430  0.72277720  0.26955631  1
  O  O263  1  0.57362861  0.74166932  0.76511259  1
  O  O264  1  0.91214085  0.07578091  0.27734291  1
  O  O265  1  0.89792122  0.06873622  0.76595947  1
  O  O266  1  0.89511418  0.40757830  0.27846408  1
  O  O267  1  0.89682483  0.40232082  0.75273022  1
  O  O268  1  0.90674555  0.74439287  0.26801055  1
  O  O269  1  0.90608053  0.74662710  0.76288288  1
  O  O270  1  0.26533517  0.23506256  0.28002752  1
  O  O271  1  0.25965997  0.23777696  0.76800095  1
  O  O272  1  0.27149425  0.57024718  0.27636929  1
  O  O273  1  0.26660380  0.56842693  0.77794681  1
  O  O274  1  0.25589261  0.91453035  0.27231342  1
  O  O275  1  0.26735784  0.89887566  0.74731413  1
  O  O276  1  0.58429861  0.24208536  0.26691259  1
  O  O277  1  0.60012136  0.22928308  0.77397276  1
  O  O278  1  0.59669752  0.56224875  0.27680005  1
  O  O279  1  0.60383188  0.57133857  0.76802114  1
  O  O280  1  0.59047840  0.91786141  0.26129630  1
  O  O281  1  0.58749516  0.90900111  0.76657336  1
  O  O282  1  0.92828577  0.23452047  0.28281569  1
  O  O283  1  0.92236357  0.23094230  0.75671459  1
  O  O284  1  0.92459975  0.56494970  0.27110098  1
  O  O285  1  0.92834065  0.57600677  0.75863255  1
  O  O286  1  0.93750857  0.90793401  0.27263492  1
  O  O287  1  0.92521021  0.90355050  0.76732955  1
  O  O288  1  0.26123900  0.23627192  0.46051526  1
  O  O289  1  0.26208527  0.23858484  0.99083806  1
  O  O290  1  0.26213696  0.56312003  0.46948709  1
  O  O291  1  0.26252827  0.57572987  0.97331410  1
  O  O292  1  0.25400865  0.90660430  0.47205896  1
  O  O293  1  0.26761712  0.89798328  0.99633886  1
  O  O294  1  0.59800367  0.25024043  0.47485162  1
  O  O295  1  0.60342571  0.23457064  0.97782995  1
  O  O296  1  0.59456814  0.56311057  0.47357476  1
  O  O297  1  0.59998046  0.56087299  0.98247326  1
  O  O298  1  0.58990088  0.90891793  0.48494643  1
  O  O299  1  0.59274809  0.91338497  0.98749596  1
  O  O300  1  0.92720141  0.23656655  0.46989184  1
  O  O301  1  0.92361939  0.23931239  0.98329162  1
  O  O302  1  0.93531090  0.56736591  0.47312758  1
  O  O303  1  0.92844021  0.57392775  0.98633294  1
  O  O304  1  0.92969896  0.89861314  0.48141117  1
  O  O305  1  0.93166971  0.90406090  0.98881606  1
  O  O306  1  0.24009361  0.06600153  0.46326315  1
  O  O307  1  0.23901887  0.05929553  0.98720545  1
  O  O308  1  0.22901439  0.40708171  0.46602491  1
  O  O309  1  0.24506670  0.41140380  0.98374506  1
  O  O310  1  0.23177208  0.74215978  0.48393276  1
  O  O311  1  0.22661723  0.74106374  0.97849564  1
  O  O312  1  0.56864601  0.07165112  0.47668675  1
  O  O313  1  0.57420565  0.06910821  0.97367191  1
  O  O314  1  0.57283611  0.40393239  0.46620744  1
  O  O315  1  0.57753694  0.40988056  0.97844364  1
  O  O316  1  0.56555911  0.72809157  0.47241039  1
  O  O317  1  0.56819722  0.73395622  0.99161089  1
  O  O318  1  0.90429736  0.07880669  0.47653527  1
  O  O319  1  0.91173094  0.06928489  0.99212950  1
  O  O320  1  0.90154762  0.40952347  0.46480845  1
  O  O321  1  0.89762169  0.41430157  0.99223642  1
  O  O322  1  0.91045875  0.74195439  0.48008157  1
  O  O323  1  0.90743853  0.74381438  0.98192589  1
  O  O324  1  0.10904661  0.26593190  0.22937441  1
  O  O325  1  0.08329122  0.25167674  0.72394492  1
  O  O326  1  0.08714765  0.59076763  0.23273729  1
  O  O327  1  0.10187558  0.60335435  0.72106275  1
  O  O328  1  0.09805931  0.93633398  0.23156791  1
  O  O329  1  0.08391514  0.93015199  0.74117565  1
  O  O330  1  0.42983914  0.26558083  0.23731066  1
  O  O331  1  0.43594676  0.25271705  0.74121094  1
  O  O332  1  0.43767002  0.59846662  0.23046512  1
  O  O333  1  0.42568414  0.59010094  0.72398138  1
  O  O334  1  0.41215486  0.92144869  0.22491238  1
  O  O335  1  0.43055015  0.92146763  0.73065322  1
  O  O336  1  0.77169259  0.26566585  0.23854130  1
  O  O337  1  0.77000280  0.26279348  0.72158046  1
  O  O338  1  0.75499411  0.58994652  0.22339485  1
  O  O339  1  0.75434246  0.59605484  0.73084223  1
  O  O340  1  0.75005548  0.92388132  0.23117914  1
  O  O341  1  0.75735131  0.91683118  0.73373445  1
  O  O342  1  0.07509141  0.09598493  0.23004535  1
  O  O343  1  0.05697784  0.09068777  0.72606217  1
  O  O344  1  0.06661478  0.42968986  0.22102427  1
  O  O345  1  0.06592628  0.43668524  0.71606126  1
  O  O346  1  0.06506282  0.77065455  0.22882216  1
  O  O347  1  0.07004206  0.76862089  0.71971678  1
  O  O348  1  0.40079508  0.09377681  0.23767910  1
  O  O349  1  0.41393718  0.09056078  0.74046620  1
  O  O350  1  0.40119374  0.42979213  0.23617687  1
  O  O351  1  0.40415066  0.43164763  0.72351787  1
  O  O352  1  0.40375331  0.75606319  0.22102052  1
  O  O353  1  0.40684147  0.76942331  0.72093298  1
  O  O354  1  0.74023733  0.09366504  0.23573714  1
  O  O355  1  0.73984147  0.10053160  0.73503593  1
  O  O356  1  0.73687410  0.43395255  0.22718365  1
  O  O357  1  0.73830758  0.43151431  0.72109757  1
  O  O358  1  0.72506962  0.75782462  0.22395849  1
  O  O359  1  0.73533306  0.76496066  0.72468173  1
