# generated using pymatgen
data_BaLaInIrO6
_symmetry_space_group_name_H-M   'P 1'
_cell_length_a   17.50955901
_cell_length_b   17.54285246
_cell_length_c   16.48432667
_cell_angle_alpha   90.01263048
_cell_angle_beta   89.98176497
_cell_angle_gamma   90.03511882
_symmetry_Int_Tables_number   1
_chemical_formula_structural   BaLaInIrO6
_chemical_formula_sum   'Ba36 La36 In36 Ir36 O216'
_cell_volume   5063.44990170
_cell_formula_units_Z   36
loop_
 _symmetry_equiv_pos_site_id
 _symmetry_equiv_pos_as_xyz
  1  'x, y, z'
loop_
 _atom_site_type_symbol
 _atom_site_label
 _atom_site_symmetry_multiplicity
 _atom_site_fract_x
 _atom_site_fract_y
 _atom_site_fract_z
 _atom_site_occupancy
  Ba  Ba0  1  -0.00208279  0.15858150  0.87128996  1
  Ba  Ba1  1  0.33467402  0.83757662  0.12400692  1
  Ba  Ba2  1  0.49858632  0.99313585  0.87277252  1
  Ba  Ba3  1  0.33218751  0.49362480  0.87579806  1
  Ba  Ba4  1  0.66661707  0.17679949  0.12314715  1
  Ba  Ba5  1  0.66647371  0.49475113  0.37385749  1
  Ba  Ba6  1  1.00539776  0.51149729  0.12501470  1
  Ba  Ba7  1  0.66748740  0.16106999  0.87508403  1
  Ba  Ba8  1  0.49930127  0.66217472  0.37327911  1
  Ba  Ba9  1  0.66627987  0.50510268  0.62273551  1
  Ba  Ba10  1  0.16304207  0.01440973  0.62758290  1
  Ba  Ba11  1  0.49742990  0.32503802  0.87486848  1
  Ba  Ba12  1  0.82730056  0.00668827  0.62355249  1
  Ba  Ba13  1  0.83109152  0.00865337  0.12617271  1
  Ba  Ba14  1  0.33659242  0.50984501  0.12366393  1
  Ba  Ba15  1  0.67140039  0.82888674  0.37901107  1
  Ba  Ba16  1  0.16671917  0.65570462  0.37569268  1
  Ba  Ba17  1  0.49706617  0.00715883  0.62456035  1
  Ba  Ba18  1  0.16608354  0.99179501  0.87354648  1
  Ba  Ba19  1  0.33213056  0.82577638  0.87408823  1
  Ba  Ba20  1  0.16524381  0.67892050  0.12434443  1
  Ba  Ba21  1  0.50210120  0.67470521  0.12606300  1
  Ba  Ba22  1  0.66617887  0.84044688  0.12754361  1
  Ba  Ba23  1  0.83147946  0.34135581  0.62974395  1
  Ba  Ba24  1  0.00542402  0.48976714  0.87442787  1
  Ba  Ba25  1  0.83498616  0.34145055  0.12183149  1
  Ba  Ba26  1  0.49985853  0.65969756  0.87687250  1
  Ba  Ba27  1  0.49981256  0.34261355  0.62684476  1
  Ba  Ba28  1  0.66698008  0.16278218  0.37470773  1
  Ba  Ba29  1  0.50195453  0.67298689  0.62441607  1
  Ba  Ba30  1  0.49879794  0.33068005  0.37188106  1
  Ba  Ba31  1  0.16349457  0.00991352  0.12305574  1
  Ba  Ba32  1  0.50118181  0.33987460  0.12290137  1
  Ba  Ba33  1  0.16619830  0.67268266  0.62890577  1
  Ba  Ba34  1  0.16487763  0.34537246  0.62448963  1
  Ba  Ba35  1  1.00147443  0.50709914  0.63143989  1
  La  La36  1  0.66114456  0.48293930  0.87016954  1
  La  La37  1  1.00859105  0.18805889  0.62389057  1
  La  La38  1  0.49516960  0.00997883  0.12606639  1
  La  La39  1  0.17480392  0.31374452  0.87422359  1
  La  La40  1  0.66214611  0.83588555  0.63363461  1
  La  La41  1  0.66123434  0.82270713  0.87458839  1
  La  La42  1  0.32796554  0.81929726  0.37659961  1
  La  La43  1  -0.01007587  0.15123438  0.37289949  1
  La  La44  1  0.83474066  0.31896866  0.87150907  1
  La  La45  1  0.33909000  0.84938445  0.63132224  1
  La  La46  1  0.34177070  0.51588376  0.62616326  1
  La  La47  1  -0.00028164  0.82029295  0.87568737  1
  La  La48  1  -0.00670031  0.81405908  0.37526005  1
  La  La49  1  0.17214627  0.31722711  0.37449899  1
  La  La50  1  0.65894595  0.18511580  0.63000653  1
  La  La51  1  0.83730482  0.98320118  0.87625327  1
  La  La52  1  0.50424666  0.98771236  0.37287505  1
  La  La53  1  0.32805322  0.15308899  0.87623364  1
  La  La54  1  0.33710167  0.17565398  0.12191961  1
  La  La55  1  1.01177758  0.84759276  0.12698232  1
  La  La56  1  0.83067446  0.67387694  0.12631506  1
  La  La57  1  0.15821325  0.34991698  0.12367476  1
  La  La58  1  0.66895729  0.50874864  0.12542042  1
  La  La59  1  1.00388662  0.84864496  0.62674474  1
  La  La60  1  0.83419338  0.97976330  0.37197866  1
  La  La61  1  -0.00347370  0.48223506  0.38146330  1
  La  La62  1  0.32739672  0.15465020  0.37752784  1
  La  La63  1  0.84309766  0.64665112  0.37525742  1
  La  La64  1  0.16595214  0.98198124  0.37323236  1
  La  La65  1  0.83842915  0.64844516  0.87335870  1
  La  La66  1  0.17402987  0.65317590  0.87759273  1
  La  La67  1  0.33577199  0.18130693  0.62814452  1
  La  La68  1  0.33093961  0.48727784  0.37442727  1
  La  La69  1  0.82563063  0.67927325  0.62514472  1
  La  La70  1  1.00572200  0.18299938  0.12321789  1
  La  La71  1  0.82998892  0.32324528  0.38274146  1
  In  In72  1  0.49963031  0.50126836  0.24682746  1
  In  In73  1  0.83384951  0.16472809  0.24703936  1
  In  In74  1  0.33177335  0.33463271  0.00235834  1
  In  In75  1  0.66917112  -0.00115291  -0.00077854  1
  In  In76  1  0.83550747  0.83125898  0.75113770  1
  In  In77  1  0.83954678  0.83123874  0.24372457  1
  In  In78  1  -0.00093178  0.66472229  0.50828099  1
  In  In79  1  0.50143526  0.83634604  0.00075077  1
  In  In80  1  0.16541891  0.83320294  0.50357907  1
  In  In81  1  0.50062288  0.16592499  -0.00251149  1
  In  In82  1  0.66757852  0.00192283  0.74921887  1
  In  In83  1  0.32909938  0.00140167  0.49941230  1
  In  In84  1  -0.00305400  0.00282575  0.00023151  1
  In  In85  1  0.66977933  0.66785230  0.49809211  1
  In  In86  1  0.32961183  0.33593480  0.50243831  1
  In  In87  1  0.49733112  0.83346877  0.49974780  1
  In  In88  1  -0.00121734  0.00136215  0.50013616  1
  In  In89  1  0.83306878  0.16453896  0.50235074  1
  In  In90  1  0.32955284  -0.00088943  0.25043648  1
  In  In91  1  0.33429900  0.66779433  0.00031014  1
  In  In92  1  0.16934802  0.49810649  0.74784262  1
  In  In93  1  0.66370019  0.00306337  0.49979588  1
  In  In94  1  0.66738899  0.33469070  0.49828027  1
  In  In95  1  0.83886225  0.49548042  0.24765818  1
  In  In96  1  0.49703369  0.16723668  0.24894924  1
  In  In97  1  0.00002738  0.33469824  -0.00503624  1
  In  In98  1  -0.00076765  0.66680208  0.00074062  1
  In  In99  1  0.49440151  0.16758325  0.49841052  1
  In  In100  1  0.32810789  0.33235817  0.24645204  1
  In  In101  1  0.16674296  0.83168089  0.75147867  1
  In  In102  1  0.66823724  0.66234781  0.75292517  1
  In  In103  1  0.83471422  0.16308876  0.74627184  1
  In  In104  1  0.67194494  0.66861134  0.25123701  1
  In  In105  1  0.33011826  0.66619303  0.25128383  1
  In  In106  1  0.00221473  0.32975377  0.25377969  1
  In  In107  1  0.49748072  0.50180400  0.49845819  1
  Ir  Ir108  1  0.32751994  0.00048951  0.00054053  1
  Ir  Ir109  1  -0.00194345  -0.00185743  0.75135899  1
  Ir  Ir110  1  0.33325639  0.66595133  0.74883341  1
  Ir  Ir111  1  0.83816521  0.83107464  0.49976975  1
  Ir  Ir112  1  0.16117481  0.49956897  0.25420876  1
  Ir  Ir113  1  0.66745213  0.33614497  0.75456495  1
  Ir  Ir114  1  0.00266771  -0.00014306  0.25179396  1
  Ir  Ir115  1  0.16862741  0.16597215  0.00331086  1
  Ir  Ir116  1  0.83512832  0.82824217  -0.00266852  1
  Ir  Ir117  1  0.67207718  0.33774660  -0.00079955  1
  Ir  Ir118  1  0.16227087  0.83544794  0.00108593  1
  Ir  Ir119  1  0.83494974  0.49975490  0.75260448  1
  Ir  Ir120  1  0.16670935  0.50007141  0.00131106  1
  Ir  Ir121  1  0.16638741  0.50037617  0.49626681  1
  Ir  Ir122  1  0.16271738  0.16442962  0.25166056  1
  Ir  Ir123  1  0.50834081  0.49975916  -0.00511707  1
  Ir  Ir124  1  0.00231589  0.33235427  0.75034419  1
  Ir  Ir125  1  0.32877446  0.66724419  0.50268411  1
  Ir  Ir126  1  0.66560247  -0.00028946  0.25194297  1
  Ir  Ir127  1  0.16010284  0.83432416  0.25192474  1
  Ir  Ir128  1  0.00145034  0.66479395  0.25306545  1
  Ir  Ir129  1  0.83964246  0.49859965  0.50380580  1
  Ir  Ir130  1  0.49931890  0.83959698  0.25180362  1
  Ir  Ir131  1  0.00604431  0.33442690  0.49907780  1
  Ir  Ir132  1  0.83427959  0.16748660  -0.00176847  1
  Ir  Ir133  1  0.49581444  0.16785105  0.75048754  1
  Ir  Ir134  1  0.49799006  0.49835752  0.75364226  1
  Ir  Ir135  1  0.83180176  0.49985154  -0.00546080  1
  Ir  Ir136  1  0.67648318  0.66366097  -0.00193081  1
  Ir  Ir137  1  0.16649560  0.16664295  0.74840156  1
  Ir  Ir138  1  0.16005318  0.16806569  0.49472825  1
  Ir  Ir139  1  0.33129304  0.00283344  0.75289569  1
  Ir  Ir140  1  -0.00240528  0.66677761  0.75401781  1
  Ir  Ir141  1  0.33130723  0.33059431  0.75272952  1
  Ir  Ir142  1  0.67002898  0.33613836  0.24454826  1
  Ir  Ir143  1  0.49923404  0.83226474  0.75192174  1
  O  O144  1  0.28981793  0.32077487  0.12357568  1
  O  O145  1  0.31057715  0.32335031  0.63376979  1
  O  O146  1  0.31407246  0.67068486  0.12543275  1
  O  O147  1  0.31207305  0.65334637  0.62639285  1
  O  O148  1  0.31039099  0.99249905  0.11918727  1
  O  O149  1  0.31161584  0.99177764  0.63281646  1
  O  O150  1  0.64999128  0.34031963  0.12054099  1
  O  O151  1  0.65477616  0.32698525  0.63316447  1
  O  O152  1  0.65626882  0.64912053  0.11676449  1
  O  O153  1  0.65692668  0.66448304  0.62662946  1
  O  O154  1  0.63584071  0.99588396  0.13167777  1
  O  O155  1  0.64891686  0.97166843  0.62459279  1
  O  O156  1  0.98923720  0.32583572  0.12321504  1
  O  O157  1  0.98016697  0.32674929  0.62378311  1
  O  O158  1  0.97193969  0.66410993  0.13103811  1
  O  O159  1  0.96220700  0.66173753  0.63551098  1
  O  O160  1  0.97991163  0.98522870  0.13038805  1
  O  O161  1  0.97754559  0.98712641  0.63091692  1
  O  O162  1  0.19840819  0.16087648  0.12790779  1
  O  O163  1  0.19516118  0.16651806  0.62036993  1
  O  O164  1  0.18563005  0.48661006  0.12853476  1
  O  O165  1  0.19951129  0.49929157  0.61729154  1
  O  O166  1  0.18255037  0.83583979  0.12560382  1
  O  O167  1  0.20097444  0.83117403  0.62766790  1
  O  O168  1  0.51888474  0.14691594  0.12374907  1
  O  O169  1  0.52355911  0.16494054  0.63191649  1
  O  O170  1  0.53468708  0.49969163  0.11338367  1
  O  O171  1  0.51098150  0.50170266  0.63385542  1
  O  O172  1  0.51648845  0.84090879  0.13174427  1
  O  O173  1  0.52436537  0.83300015  0.63254218  1
  O  O174  1  0.86541008  0.16411643  0.11922135  1
  O  O175  1  0.87464863  0.16344339  0.62392755  1
  O  O176  1  0.85655042  0.49739507  0.11429237  1
  O  O177  1  0.85683169  0.49315350  0.62924287  1
  O  O178  1  0.87555897  0.81984554  0.11551944  1
  O  O179  1  0.86923124  0.82258129  0.62106714  1
  O  O180  1  0.12532281  0.17713464  0.37247576  1
  O  O181  1  0.14441489  0.17733094  0.87549381  1
  O  O182  1  0.13086582  0.50361411  0.37499561  1
  O  O183  1  0.15504547  0.51321371  0.87905723  1
  O  O184  1  0.12910877  0.83743149  0.37107823  1
  O  O185  1  0.13545227  0.83369400  0.87980525  1
  O  O186  1  0.46163161  0.17622451  0.37175929  1
  O  O187  1  0.46636632  0.16863070  0.87000640  1
  O  O188  1  0.46594755  0.49929961  0.37326401  1
  O  O189  1  0.48220862  0.49713895  0.87481046  1
  O  O190  1  0.46527782  0.84615100  0.37065760  1
  O  O191  1  0.48254575  0.83129823  0.87004545  1
  O  O192  1  0.82396421  0.18437114  0.37330830  1
  O  O193  1  0.81815830  0.17772848  0.87660370  1
  O  O194  1  0.82146725  0.50650002  0.38321314  1
  O  O195  1  0.80069755  0.50965715  0.87353409  1
  O  O196  1  0.82463008  0.83719779  0.37696634  1
  O  O197  1  0.79974176  0.83897963  0.88083484  1
  O  O198  1  0.03261647  0.01470627  0.37036794  1
  O  O199  1  0.01667461  0.00223808  0.87050394  1
  O  O200  1  0.03603165  0.34156465  0.37992560  1
  O  O201  1  0.03529265  0.32929673  0.87030969  1
  O  O202  1  0.01726095  0.67623004  0.37472479  1
  O  O203  1  0.03458692  0.67927256  0.87262188  1
  O  O204  1  0.36505473  0.01802533  0.37448496  1
  O  O205  1  0.35000063  0.01457602  0.87687311  1
  O  O206  1  0.34396380  0.34560097  0.37406058  1
  O  O207  1  0.34585409  0.33133145  0.87210967  1
  O  O208  1  0.34743006  0.68003499  0.38196641  1
  O  O209  1  0.34693130  0.66493668  0.86894187  1
  O  O210  1  0.69906690  0.00504342  0.37045766  1
  O  O211  1  0.70347316  0.00384086  0.87417025  1
  O  O212  1  0.69533610  0.33734159  0.36494463  1
  O  O213  1  0.69904905  0.34399093  0.87827963  1
  O  O214  1  0.70920546  0.67096921  0.37563785  1
  O  O215  1  0.70303262  0.68057603  0.87825767  1
  O  O216  1  0.07004156  0.10180398  0.02398745  1
  O  O217  1  0.06247652  0.10803543  0.51910455  1
  O  O218  1  0.07930765  0.42669410  0.01764916  1
  O  O219  1  0.06895665  0.43472290  0.51413982  1
  O  O220  1  0.06613419  0.77051198  0.02009684  1
  O  O221  1  0.06223078  0.76716810  0.52432800  1
  O  O222  1  0.39337980  0.09286989  0.01715133  1
  O  O223  1  0.38760237  0.10407945  0.52400468  1
  O  O224  1  0.41785774  0.42690977  0.01325806  1
  O  O225  1  0.39230885  0.43865124  0.51984004  1
  O  O226  1  0.41436150  0.75663432  0.00996675  1
  O  O227  1  0.39132247  0.76281268  0.52196312  1
  O  O228  1  0.74648222  0.09752616  0.01683901  1
  O  O229  1  0.72849478  0.10324643  0.52916975  1
  O  O230  1  0.73582170  0.43680110  0.01705431  1
  O  O231  1  0.74960369  0.43075309  0.51291999  1
  O  O232  1  0.75126359  0.75081305  0.02980943  1
  O  O233  1  0.74427632  0.76957990  0.53195510  1
  O  O234  1  0.10171825  0.25877103  0.02385363  1
  O  O235  1  0.09825536  0.26491600  0.51775243  1
  O  O236  1  0.09678692  0.59295985  0.01188947  1
  O  O237  1  0.09822845  0.59089294  0.51714852  1
  O  O238  1  0.08855504  0.92262362  0.01701575  1
  O  O239  1  0.09361111  0.93047981  0.51561999  1
  O  O240  1  0.41814900  0.25201301  0.02209805  1
  O  O241  1  0.41754950  0.25876223  0.52508013  1
  O  O242  1  0.43393228  0.58583653  0.01103419  1
  O  O243  1  0.41714039  0.59830346  0.51784642  1
  O  O244  1  0.42458621  0.93732178  0.01824376  1
  O  O245  1  0.41472524  0.91909404  0.52493914  1
  O  O246  1  0.76717065  0.26721560  0.00890452  1
  O  O247  1  0.76870038  0.26797527  0.50700733  1
  O  O248  1  0.76952368  0.59520430  0.02088033  1
  O  O249  1  0.77879614  0.59644642  0.52064446  1
  O  O250  1  0.76706834  0.91764054  0.02033416  1
  O  O251  1  0.77334787  0.92594749  0.50187402  1
  O  O252  1  0.22731765  0.07176412  0.28058952  1
  O  O253  1  0.24412013  0.08149871  0.77456570  1
  O  O254  1  0.22367718  0.40353677  0.27175472  1
  O  O255  1  0.23765471  0.39659916  0.77505335  1
  O  O256  1  0.23708392  0.74981583  0.27186854  1
  O  O257  1  0.23813337  0.73203329  0.77309467  1
  O  O258  1  0.57134526  0.06594228  0.27306292  1
  O  O259  1  0.56798108  0.07953006  0.76549509  1
  O  O260  1  0.58190450  0.40626824  0.26013089  1
  O  O261  1  0.57427057  0.40846884  0.77308522  1
  O  O262  1  0.57433741  0.75096558  0.26478302  1
  O  O263  1  0.57718076  0.74745042  0.76915289  1
  O  O264  1  0.90722389  0.06229977  0.27652457  1
  O  O265  1  0.90115866  0.06021973  0.77389333  1
  O  O266  1  0.90455540  0.39841192  0.28103235  1
  O  O267  1  0.90563735  0.40146756  0.77632537  1
  O  O268  1  0.90820061  0.73026753  0.27524342  1
  O  O269  1  0.90689277  0.73411405  0.78131804  1
  O  O270  1  0.25390660  0.23047705  0.28166922  1
  O  O271  1  0.26243909  0.23527438  0.77582613  1
  O  O272  1  0.25723871  0.56272576  0.27468780  1
  O  O273  1  0.26127741  0.57690069  0.76381381  1
  O  O274  1  0.25437477  0.90362502  0.28002968  1
  O  O275  1  0.26144222  0.91188001  0.76809557  1
  O  O276  1  0.59595424  0.24736776  0.26062520  1
  O  O277  1  0.59522025  0.23843350  0.76459490  1
  O  O278  1  0.59873198  0.57374186  0.25580774  1
  O  O279  1  0.59316111  0.56598441  0.77452862  1
  O  O280  1  0.59134583  0.91188300  0.27666944  1
  O  O281  1  0.59392668  0.89865235  0.77252790  1
  O  O282  1  0.94292017  0.22449401  0.25940047  1
  O  O283  1  0.92644675  0.24727130  0.76575163  1
  O  O284  1  0.93882936  0.56921171  0.27907888  1
  O  O285  1  0.92623181  0.57369648  0.77976544  1
  O  O286  1  0.93791729  0.90330855  0.27568459  1
  O  O287  1  0.93483460  0.90176525  0.77573252  1
  O  O288  1  0.25401447  0.23424337  0.47174889  1
  O  O289  1  0.25898021  0.23271125  0.97429927  1
  O  O290  1  0.26561104  0.56458462  0.47640114  1
  O  O291  1  0.25264388  0.57565549  0.98591636  1
  O  O292  1  0.25600231  0.90795154  0.46313606  1
  O  O293  1  0.25682242  0.90507081  0.98225713  1
  O  O294  1  0.59651445  0.23628539  0.49669831  1
  O  O295  1  0.59773237  0.24986846  0.98489358  1
  O  O296  1  0.59051399  0.57764393  0.48314467  1
  O  O297  1  0.60745870  0.56978392  0.97136173  1
  O  O298  1  0.58428112  0.91451634  0.47248499  1
  O  O299  1  0.60072052  0.89937419  0.97459171  1
  O  O300  1  0.94248047  0.23972880  0.47757847  1
  O  O301  1  0.92470857  0.23785441  0.98461522  1
  O  O302  1  0.93238335  0.56486276  0.47941202  1
  O  O303  1  0.91990061  0.57380331  0.97420828  1
  O  O304  1  0.93425617  0.89430572  0.47769493  1
  O  O305  1  0.92316717  0.90092519  0.96867072  1
  O  O306  1  0.22382437  0.07386562  0.46812080  1
  O  O307  1  0.23771698  0.07453881  0.97920244  1
  O  O308  1  0.22851748  0.40669915  0.47116435  1
  O  O309  1  0.22949468  0.40284121  0.98226409  1
  O  O310  1  0.24068231  0.73779366  0.48342327  1
  O  O311  1  0.22896263  0.74210578  0.97807453  1
  O  O312  1  0.56030841  0.06877007  0.47426250  1
  O  O313  1  0.57319300  0.07137341  0.98344424  1
  O  O314  1  0.57493023  0.40888435  0.48824399  1
  O  O315  1  0.58352146  0.41021865  0.97220897  1
  O  O316  1  0.57647919  0.74565586  0.48529535  1
  O  O317  1  0.59101545  0.73864160  0.98205163  1
  O  O318  1  0.90012699  0.06486556  0.46714236  1
  O  O319  1  0.89651443  0.07106461  0.97745632  1
  O  O320  1  0.90879617  0.40103715  0.47466048  1
  O  O321  1  0.89744904  0.40529375  0.96967025  1
  O  O322  1  0.89616090  0.73215405  0.48124184  1
  O  O323  1  0.90428169  0.74018974  0.96522717  1
  O  O324  1  0.10383762  0.26004888  0.22445535  1
  O  O325  1  0.09206468  0.25555997  0.72599074  1
  O  O326  1  0.09610592  0.59702176  0.23381167  1
  O  O327  1  0.08896423  0.59626964  0.74093274  1
  O  O328  1  0.09408508  0.92898068  0.23267456  1
  O  O329  1  0.08646355  0.92551980  0.73074298  1
  O  O330  1  0.41345320  0.25176523  0.21817576  1
  O  O331  1  0.42167739  0.25752115  0.72824067  1
  O  O332  1  0.42491852  0.59599896  0.23373174  1
  O  O333  1  0.42384696  0.59027041  0.72913378  1
  O  O334  1  0.43510142  0.93426539  0.23299032  1
  O  O335  1  0.42052765  0.92207360  0.73045627  1
  O  O336  1  0.76067706  0.26603094  0.23424377  1
  O  O337  1  0.75755869  0.26485866  0.74435168  1
  O  O338  1  0.77620140  0.59673633  0.23303151  1
  O  O339  1  0.77483471  0.59745358  0.73484560  1
  O  O340  1  0.75969386  0.92763183  0.23993124  1
  O  O341  1  0.76278441  0.92377752  0.73698877  1
  O  O342  1  0.06355713  0.10038485  0.22486890  1
  O  O343  1  0.06467909  0.09759186  0.72560122  1
  O  O344  1  0.07125427  0.43080501  0.23787545  1
  O  O345  1  0.07491102  0.42061915  0.73659106  1
  O  O346  1  0.06197621  0.76696882  0.23060811  1
  O  O347  1  0.05977553  0.76303054  0.72909367  1
  O  O348  1  0.39845616  0.09251987  0.21759456  1
  O  O349  1  0.39867159  0.10224983  0.73104857  1
  O  O350  1  0.40537806  0.42451213  0.23041407  1
  O  O351  1  0.39791659  0.42820229  0.72960277  1
  O  O352  1  0.40848108  0.76970724  0.24439208  1
  O  O353  1  0.40238016  0.76306497  0.72610234  1
  O  O354  1  0.73691075  0.08805746  0.23225956  1
  O  O355  1  0.73230143  0.10311845  0.72060106  1
  O  O356  1  0.73659461  0.43063464  0.22559262  1
  O  O357  1  0.73533632  0.43411184  0.74112285  1
  O  O358  1  0.75202722  0.75406766  0.21826692  1
  O  O359  1  0.74120645  0.75985986  0.72580217  1
