# generated using pymatgen
data_BaLaInIrO6
_symmetry_space_group_name_H-M   'P 1'
_cell_length_a   17.50391313
_cell_length_b   17.52316097
_cell_length_c   16.48760571
_cell_angle_alpha   90.01411865
_cell_angle_beta   89.98714973
_cell_angle_gamma   90.02868675
_symmetry_Int_Tables_number   1
_chemical_formula_structural   BaLaInIrO6
_chemical_formula_sum   'Ba36 La36 In36 Ir36 O216'
_cell_volume   5057.14160111
_cell_formula_units_Z   36
loop_
 _symmetry_equiv_pos_site_id
 _symmetry_equiv_pos_as_xyz
  1  'x, y, z'
loop_
 _atom_site_type_symbol
 _atom_site_label
 _atom_site_symmetry_multiplicity
 _atom_site_fract_x
 _atom_site_fract_y
 _atom_site_fract_z
 _atom_site_occupancy
  Ba  Ba0  1  0.66590753  0.83993982  0.12470169  1
  Ba  Ba1  1  0.67340574  0.50783273  0.12877417  1
  Ba  Ba2  1  0.33047657  0.49618936  0.87432690  1
  Ba  Ba3  1  0.66613950  0.16095282  0.37363554  1
  Ba  Ba4  1  0.66880401  0.49189269  0.87775328  1
  Ba  Ba5  1  0.16774912  0.67608941  0.62681259  1
  Ba  Ba6  1  0.16256109  0.67333420  0.12612534  1
  Ba  Ba7  1  0.16630723  0.98954008  0.87724873  1
  Ba  Ba8  1  1.00562031  0.17699365  0.12242495  1
  Ba  Ba9  1  0.66591282  0.82649609  0.87290538  1
  Ba  Ba10  1  0.16847514  0.65612041  0.37863468  1
  Ba  Ba11  1  0.16663816  0.65929520  0.87394005  1
  Ba  Ba12  1  0.33213160  0.50834513  0.12447700  1
  Ba  Ba13  1  0.50438142  0.66094865  0.37459891  1
  Ba  Ba14  1  0.83515076  0.33791248  0.13095892  1
  Ba  Ba15  1  0.83702057  0.98631129  0.37108669  1
  Ba  Ba16  1  0.33255095  0.17647032  0.12418379  1
  Ba  Ba17  1  0.50056164  0.34014703  0.62303443  1
  Ba  Ba18  1  -0.00437248  0.82405316  0.87448703  1
  Ba  Ba19  1  -0.00110371  0.82504059  0.37365835  1
  Ba  Ba20  1  0.49939598  0.01066194  0.62570626  1
  Ba  Ba21  1  0.50079484  0.99275331  0.37631444  1
  Ba  Ba22  1  0.49561086  0.32878654  0.37363697  1
  Ba  Ba23  1  0.33129725  0.82031613  0.37273466  1
  Ba  Ba24  1  0.83718730  0.98775756  0.87821543  1
  Ba  Ba25  1  0.33829354  0.50845059  0.62508207  1
  Ba  Ba26  1  0.83245733  0.65883370  0.37865164  1
  Ba  Ba27  1  0.50106197  0.65420699  0.87340517  1
  Ba  Ba28  1  0.83205908  0.01047953  0.62574207  1
  Ba  Ba29  1  0.83105549  0.67201314  0.12693992  1
  Ba  Ba30  1  0.16642125  0.00907064  0.12478487  1
  Ba  Ba31  1  0.32771466  0.82414763  0.87282452  1
  Ba  Ba32  1  -0.00333403  0.15515536  0.36724482  1
  Ba  Ba33  1  1.00008094  0.50764806  0.13081914  1
  Ba  Ba34  1  -0.00002110  0.49527371  0.87975288  1
  Ba  Ba35  1  0.33414737  0.17581882  0.62784899  1
  La  La36  1  0.83680253  0.01203149  0.13026643  1
  La  La37  1  0.66482676  0.51034814  0.62706203  1
  La  La38  1  0.49612013  0.35132138  0.12698459  1
  La  La39  1  0.66869107  0.84886664  0.61993608  1
  La  La40  1  0.15906715  0.35175888  0.61983779  1
  La  La41  1  1.00551374  0.18260185  0.62100684  1
  La  La42  1  0.66603505  0.82330559  0.37554350  1
  La  La43  1  0.83626418  0.31850037  0.37200290  1
  La  La44  1  1.00458193  0.51590585  0.62578252  1
  La  La45  1  0.67278592  0.17446213  0.12861508  1
  La  La46  1  1.00445719  0.84588192  0.12918847  1
  La  La47  1  0.17344684  0.32652569  0.87895701  1
  La  La48  1  0.50843497  0.98940341  0.87743827  1
  La  La49  1  0.49979313  0.33080051  0.87468741  1
  La  La50  1  0.33583111  0.48949376  0.37115361  1
  La  La51  1  0.83794867  0.65361271  0.88432005  1
  La  La52  1  0.82994828  0.34783833  0.62662932  1
  La  La53  1  0.50186449  0.67762832  0.12155753  1
  La  La54  1  0.32853722  0.15078086  0.37905461  1
  La  La55  1  0.66408998  0.48313600  0.37316107  1
  La  La56  1  -0.00375432  0.48404759  0.37940598  1
  La  La57  1  0.17045681  0.97901713  0.37063246  1
  La  La58  1  0.83107043  0.68204446  0.62394645  1
  La  La59  1  0.33506869  0.84485996  0.62389473  1
  La  La60  1  0.66779723  0.18734720  0.62128967  1
  La  La61  1  0.49469739  0.68310156  0.62705244  1
  La  La62  1  0.48977259  0.01702489  0.12609517  1
  La  La63  1  0.33193806  0.15367135  0.87084779  1
  La  La64  1  0.15969885  0.34790379  0.12624633  1
  La  La65  1  0.16120443  0.00745277  0.62296139  1
  La  La66  1  0.84008902  0.32068691  0.87708266  1
  La  La67  1  -0.00424905  0.14960597  0.87572223  1
  La  La68  1  0.66383747  0.15509082  0.87038041  1
  La  La69  1  0.33717758  0.84428325  0.12199819  1
  La  La70  1  0.99840100  0.84745741  0.62257446  1
  La  La71  1  0.17311146  0.32013966  0.36722890  1
  In  In72  1  0.49936620  0.83482541  0.50097921  1
  In  In73  1  0.83347566  0.16761690  0.00098188  1
  In  In74  1  0.49964827  0.16850267  0.49843249  1
  In  In75  1  0.83066802  0.83064498  0.75089015  1
  In  In76  1  0.66686788  0.66282744  0.50271662  1
  In  In77  1  0.16512916  0.16656872  0.49877109  1
  In  In78  1  0.50241060  0.17313992  -0.00045698  1
  In  In79  1  0.16636823  0.50087012  0.74916791  1
  In  In80  1  -0.00177909  0.00266338  0.49468953  1
  In  In81  1  0.33431201  0.00050827  -0.00281662  1
  In  In82  1  0.66361695  0.33230033  0.24699068  1
  In  In83  1  0.66686482  0.00124408  0.00316863  1
  In  In84  1  0.83188119  0.16869982  0.74864871  1
  In  In85  1  0.00090891  0.66766457  0.50011089  1
  In  In86  1  0.33521755  0.33364928  0.00111917  1
  In  In87  1  0.33453466  0.66497712  0.50005564  1
  In  In88  1  0.16658237  0.16846617  -0.00347643  1
  In  In89  1  0.16586665  0.17047614  0.74799300  1
  In  In90  1  0.66678746  0.66691526  0.74774635  1
  In  In91  1  0.50257697  0.50134616  0.50034276  1
  In  In92  1  -0.00012966  0.33499283  0.75112740  1
  In  In93  1  0.16603553  0.50151882  0.25354860  1
  In  In94  1  0.49983988  0.83300461  -0.00184012  1
  In  In95  1  0.16495605  0.83229694  0.74901162  1
  In  In96  1  0.83483506  0.49453904  0.00190935  1
  In  In97  1  -0.00231970  0.00019638  0.74773392  1
  In  In98  1  0.33174915  0.00039132  0.25026361  1
  In  In99  1  0.33081141  0.66577178  0.00087238  1
  In  In100  1  0.66992799  0.00442476  0.49859765  1
  In  In101  1  0.50081171  0.83420937  0.25012220  1
  In  In102  1  0.33007255  0.33357084  0.50187411  1
  In  In103  1  0.00023315  0.66802931  0.00275789  1
  In  In104  1  0.66884826  0.66680574  -0.00169660  1
  In  In105  1  0.50029903  0.17069514  0.75167348  1
  In  In106  1  0.83478160  0.50009904  0.25703879  1
  In  In107  1  0.66656077  -0.00160224  0.24874339  1
  Ir  Ir108  1  0.66360074  0.00271831  0.75016412  1
  Ir  Ir109  1  0.33442212  -0.00062067  0.74809328  1
  Ir  Ir110  1  0.83661128  0.83461794  0.00544234  1
  Ir  Ir111  1  0.16452538  0.83282679  0.00396578  1
  Ir  Ir112  1  0.50266238  0.49809131  0.00111472  1
  Ir  Ir113  1  0.83364409  0.83147750  0.50003973  1
  Ir  Ir114  1  0.66634454  0.66700178  0.25263103  1
  Ir  Ir115  1  0.00336504  0.33161113  0.25338946  1
  Ir  Ir116  1  0.00378644  -0.00205149  0.24672220  1
  Ir  Ir117  1  0.83593204  0.16535759  0.24978079  1
  Ir  Ir118  1  0.16384147  0.49594809  0.00024891  1
  Ir  Ir119  1  -0.00399396  0.33430634  0.49881709  1
  Ir  Ir120  1  0.16734240  0.82889270  0.24890353  1
  Ir  Ir121  1  -0.00836465  0.66262897  0.74678537  1
  Ir  Ir122  1  0.33643549  0.66648062  0.74823922  1
  Ir  Ir123  1  -0.00029292  -0.00338570  0.00200971  1
  Ir  Ir124  1  0.16927983  0.83549438  0.50012747  1
  Ir  Ir125  1  0.66614291  0.33143008  -0.00422334  1
  Ir  Ir126  1  0.83663436  0.17343732  0.50025002  1
  Ir  Ir127  1  0.49980875  0.50447453  0.24708032  1
  Ir  Ir128  1  0.67370023  0.33663475  0.50438226  1
  Ir  Ir129  1  0.83472982  0.49598320  0.50412296  1
  Ir  Ir130  1  0.16172282  0.49443531  0.49853463  1
  Ir  Ir131  1  0.83590203  0.83101960  0.24771136  1
  Ir  Ir132  1  0.50234111  0.49551723  0.75330624  1
  Ir  Ir133  1  0.16620127  0.16793797  0.25118110  1
  Ir  Ir134  1  0.83501619  0.49937619  0.74377708  1
  Ir  Ir135  1  0.67170653  0.33752742  0.75235670  1
  Ir  Ir136  1  0.33355746  0.66538684  0.24810489  1
  Ir  Ir137  1  -0.00038412  0.66813246  0.25372070  1
  Ir  Ir138  1  0.49813230  0.83704227  0.74843554  1
  Ir  Ir139  1  0.49824795  0.17025730  0.24798832  1
  Ir  Ir140  1  0.32598597  -0.00156804  0.50087311  1
  Ir  Ir141  1  0.33245067  0.33224412  0.24887666  1
  Ir  Ir142  1  0.00589980  0.33358513  -0.00076390  1
  Ir  Ir143  1  0.33316617  0.33569087  0.75235558  1
  O  O144  1  0.30017823  0.33041363  0.12995892  1
  O  O145  1  0.29832646  0.33238564  0.63182715  1
  O  O146  1  0.31231591  0.66250289  0.13070533  1
  O  O147  1  0.31760208  0.66386468  0.62995222  1
  O  O148  1  0.31441868  0.99353224  0.12516627  1
  O  O149  1  0.29741842  0.99237273  0.62443650  1
  O  O150  1  0.63361056  0.31886284  0.11630955  1
  O  O151  1  0.64911766  0.32737969  0.62920898  1
  O  O152  1  0.64274486  0.66117878  0.13094650  1
  O  O153  1  0.63153034  0.64554313  0.62722345  1
  O  O154  1  0.62586239  1.00051858  0.12683408  1
  O  O155  1  0.64797300  0.98941493  0.62990513  1
  O  O156  1  0.98199530  0.33190802  0.12639127  1
  O  O157  1  0.96405622  0.32342286  0.61847943  1
  O  O158  1  0.98284144  0.66531507  0.13462433  1
  O  O159  1  0.96774295  0.65505723  0.62601197  1
  O  O160  1  0.97319686  0.99136932  0.12476966  1
  O  O161  1  0.98364637  0.98561304  0.61958313  1
  O  O162  1  0.18267908  0.16649927  0.12983241  1
  O  O163  1  0.18885340  0.14530359  0.62382681  1
  O  O164  1  0.17936328  0.49066102  0.12326363  1
  O  O165  1  0.18601573  0.49038451  0.61818862  1
  O  O166  1  0.19759961  0.82989003  0.12706701  1
  O  O167  1  0.19596573  0.83736708  0.61960182  1
  O  O168  1  0.53422500  0.15984029  0.12863073  1
  O  O169  1  0.53117897  0.16962084  0.62809853  1
  O  O170  1  0.52568671  0.49026218  0.12353963  1
  O  O171  1  0.52849569  0.49207375  0.63252330  1
  O  O172  1  0.51692675  0.81473064  0.12573082  1
  O  O173  1  0.53014688  0.83263625  0.63155573  1
  O  O174  1  0.85710517  0.16206994  0.12956612  1
  O  O175  1  0.86710810  0.17397506  0.62017444  1
  O  O176  1  0.84954257  0.49485027  0.13043377  1
  O  O177  1  0.86889826  0.48306898  0.62354754  1
  O  O178  1  0.86782277  0.82727704  0.12686392  1
  O  O179  1  0.86334359  0.82474377  0.61949884  1
  O  O180  1  0.14409982  0.18111964  0.36974135  1
  O  O181  1  0.12835033  0.18643315  0.87165489  1
  O  O182  1  0.13258657  0.49522795  0.38017869  1
  O  O183  1  0.15102078  0.49076873  0.87871671  1
  O  O184  1  0.14631020  0.84123353  0.37488648  1
  O  O185  1  0.14592024  0.83293728  0.88146586  1
  O  O186  1  0.46497831  0.17352398  0.36729633  1
  O  O187  1  0.46599461  0.18923473  0.87368205  1
  O  O188  1  0.47069271  0.50666684  0.36659464  1
  O  O189  1  0.47897501  0.49319979  0.87773431  1
  O  O190  1  0.48151183  0.82956780  0.37525885  1
  O  O191  1  0.47496195  0.84640016  0.86713318  1
  O  O192  1  0.81334618  0.17977139  0.37581122  1
  O  O193  1  0.80003928  0.18000379  0.87624303  1
  O  O194  1  0.80069735  0.50157306  0.38680173  1
  O  O195  1  0.81863671  0.51340228  0.86364694  1
  O  O196  1  0.80334027  0.83333562  0.37528881  1
  O  O197  1  0.81758641  0.83499932  0.88309489  1
  O  O198  1  0.03238649  -0.00184961  0.36798070  1
  O  O199  1  0.01548079  0.00257153  0.87996083  1
  O  O200  1  0.03388929  0.34125970  0.37671890  1
  O  O201  1  0.03649840  0.34018763  0.88012735  1
  O  O202  1  0.01816644  0.67124102  0.37318355  1
  O  O203  1  0.00937901  0.66687731  0.86664839  1
  O  O204  1  0.34863108  0.00586603  0.37942098  1
  O  O205  1  0.36850581  0.00385745  0.86692018  1
  O  O206  1  0.34609521  0.34755205  0.36835445  1
  O  O207  1  0.36340011  0.34225335  0.87136131  1
  O  O208  1  0.35192502  0.66152520  0.36848501  1
  O  O209  1  0.35053793  0.66542159  0.86943892  1
  O  O210  1  0.69100456  0.00747024  0.37310951  1
  O  O211  1  0.69005532  0.01289249  0.86859867  1
  O  O212  1  0.69790521  0.34109787  0.38317562  1
  O  O213  1  0.70404685  0.33905154  0.87471721  1
  O  O214  1  0.68171005  0.68260297  0.37449563  1
  O  O215  1  0.70128311  0.66952823  0.86922938  1
  O  O216  1  0.06971816  0.08924812  0.00652076  1
  O  O217  1  0.06503894  0.10114013  0.52293121  1
  O  O218  1  0.07369260  0.42434850  0.02505198  1
  O  O219  1  0.06226738  0.43005453  0.52553108  1
  O  O220  1  0.07054676  0.76626040  0.02391960  1
  O  O221  1  0.07360548  0.76959134  0.52450612  1
  O  O222  1  0.41472812  0.09223225  0.01860735  1
  O  O223  1  0.39291142  0.09111514  0.51038587  1
  O  O224  1  0.41351600  0.42851160  0.01942551  1
  O  O225  1  0.40202688  0.43193790  0.50169612  1
  O  O226  1  0.39886481  0.76332395  0.02233900  1
  O  O227  1  0.40305020  0.76355659  0.53014865  1
  O  O228  1  0.74051855  0.09398816  0.03267012  1
  O  O229  1  0.74173764  0.10897233  0.52744868  1
  O  O230  1  0.73796967  0.41634549  0.01775851  1
  O  O231  1  0.73952926  0.43158742  0.53130420  1
  O  O232  1  0.74727377  0.76622581  0.01706032  1
  O  O233  1  0.74066900  0.76267267  0.52454958  1
  O  O234  1  0.10253760  0.27247555  0.02142869  1
  O  O235  1  0.09049650  0.26818874  0.52599142  1
  O  O236  1  0.09239513  0.58575444  0.01005037  1
  O  O237  1  0.09288772  0.58650306  0.52146457  1
  O  O238  1  0.08930906  0.92130420  0.02645830  1
  O  O239  1  0.10430861  0.93122517  0.51435673  1
  O  O240  1  0.43671442  0.27168008  0.02866010  1
  O  O241  1  0.42369892  0.25885580  0.51370382  1
  O  O242  1  0.43586038  0.59289076  0.02150260  1
  O  O243  1  0.43757315  0.60172762  0.52425050  1
  O  O244  1  0.42999785  0.92977618  0.02650702  1
  O  O245  1  0.41580055  0.92816720  0.52381230  1
  O  O246  1  0.75221354  0.25922646  0.02285067  1
  O  O247  1  0.77069672  0.27008953  0.52473727  1
  O  O248  1  0.76011922  0.59041579  0.00631489  1
  O  O249  1  0.77075867  0.59079678  0.53220642  1
  O  O250  1  0.77182976  0.93073960  0.02781820  1
  O  O251  1  0.76349085  0.92017633  0.52035351  1
  O  O252  1  0.23462587  0.07630507  0.27963505  1
  O  O253  1  0.25066549  0.07734241  0.77556346  1
  O  O254  1  0.23943049  0.40156768  0.27150969  1
  O  O255  1  0.23652452  0.39816398  0.76994672  1
  O  O256  1  0.23676944  0.73356382  0.26800355  1
  O  O257  1  0.24520938  0.73949541  0.76111968  1
  O  O258  1  0.56697000  0.08099987  0.26699256  1
  O  O259  1  0.57379061  0.07370610  0.77909088  1
  O  O260  1  0.57258340  0.41533072  0.26787617  1
  O  O261  1  0.57040612  0.39978092  0.77530074  1
  O  O262  1  0.57612139  0.73371707  0.25935427  1
  O  O263  1  0.56942713  0.74734261  0.76480019  1
  O  O264  1  0.90760294  0.06798565  0.26030509  1
  O  O265  1  0.90568983  0.07742199  0.77189603  1
  O  O266  1  0.91467090  0.40475622  0.28486755  1
  O  O267  1  0.89390886  0.40097585  0.76996051  1
  O  O268  1  0.90456158  0.73759897  0.26854747  1
  O  O269  1  0.89114547  0.72035251  0.76338283  1
  O  O270  1  0.26341857  0.23690147  0.27760601  1
  O  O271  1  0.26528284  0.24367645  0.78007813  1
  O  O272  1  0.26870265  0.56761881  0.27074633  1
  O  O273  1  0.26091448  0.57856455  0.76143309  1
  O  O274  1  0.25376889  0.90414046  0.26684772  1
  O  O275  1  0.26160780  0.91273130  0.76264976  1
  O  O276  1  0.58675059  0.24126708  0.26611792  1
  O  O277  1  0.60628912  0.24251568  0.77340890  1
  O  O278  1  0.59950208  0.56925016  0.27459979  1
  O  O279  1  0.59293242  0.56396834  0.76680238  1
  O  O280  1  0.60315404  0.89826322  0.27727463  1
  O  O281  1  0.58435367  0.91608243  0.77633942  1
  O  O282  1  0.91925861  0.24955458  0.27341602  1
  O  O283  1  0.92957858  0.24077284  0.78470967  1
  O  O284  1  0.93454735  0.57233601  0.27985709  1
  O  O285  1  0.93339936  0.56071380  0.75632028  1
  O  O286  1  0.93511256  0.89967738  0.25769809  1
  O  O287  1  0.92804577  0.89969905  0.75423034  1
  O  O288  1  0.26088454  0.23610893  0.46970213  1
  O  O289  1  0.26429806  0.24055686  0.96556707  1
  O  O290  1  0.26026315  0.55739129  0.47526042  1
  O  O291  1  0.25250254  0.56941832  0.98763757  1
  O  O292  1  0.25995430  0.90546893  0.47839268  1
  O  O293  1  0.25568603  0.90285902  0.98950809  1
  O  O294  1  0.60595888  0.24416624  0.49206106  1
  O  O295  1  0.59949196  0.24472433  0.96255497  1
  O  O296  1  0.60894112  0.55798266  0.47858602  1
  O  O297  1  0.58997430  0.56787837  0.98779145  1
  O  O298  1  0.60442281  0.89873726  0.48630078  1
  O  O299  1  0.58959529  0.91365224  0.97382005  1
  O  O300  1  0.92818708  0.24348471  0.47257666  1
  O  O301  1  0.93569449  0.24069069  0.97231050  1
  O  O302  1  0.93186762  0.55811796  0.48336879  1
  O  O303  1  0.92100451  0.57919128  0.98448374  1
  O  O304  1  0.92561311  0.90083662  0.48589697  1
  O  O305  1  0.93216128  0.89999884  0.99445211  1
  O  O306  1  0.23154349  0.06263320  0.47325735  1
  O  O307  1  0.24804970  0.08196232  0.97096261  1
  O  O308  1  0.22189426  0.39632566  0.48036339  1
  O  O309  1  0.23167228  0.40145576  0.98752548  1
  O  O310  1  0.23724116  0.74265307  0.48733258  1
  O  O311  1  0.23299569  0.74340020  0.98708687  1
  O  O312  1  0.57223075  0.07541089  0.48600945  1
  O  O313  1  0.57743052  0.08152002  0.96488775  1
  O  O314  1  0.58266710  0.40472560  0.47983242  1
  O  O315  1  0.56804452  0.39875739  0.97845968  1
  O  O316  1  0.57092221  0.73517298  0.49957660  1
  O  O317  1  0.57238995  0.73625917  0.98579022  1
  O  O318  1  0.90015334  0.07971413  0.48166823  1
  O  O319  1  0.91249297  0.07282932  0.98458057  1
  O  O320  1  0.89922279  0.40036902  0.47162689  1
  O  O321  1  0.90769185  0.39578823  0.97581235  1
  O  O322  1  0.90058770  0.73851342  0.49122260  1
  O  O323  1  0.90020211  0.73979670  0.98220072  1
  O  O324  1  0.10147080  0.26617079  0.22991792  1
  O  O325  1  0.09425542  0.26560823  0.71032788  1
  O  O326  1  0.08926621  0.59646962  0.24115981  1
  O  O327  1  0.08542752  0.59474527  0.73052655  1
  O  O328  1  0.09570550  0.92389557  0.22903006  1
  O  O329  1  0.09761615  0.92951638  0.72443658  1
  O  O330  1  0.42980210  0.26657254  0.22245181  1
  O  O331  1  0.42219824  0.26730966  0.73330637  1
  O  O332  1  0.43247121  0.60181685  0.22373128  1
  O  O333  1  0.43509778  0.59534849  0.72813707  1
  O  O334  1  0.42947718  0.93078120  0.22415099  1
  O  O335  1  0.41724554  0.91959349  0.71806016  1
  O  O336  1  0.75475747  0.24809681  0.23317314  1
  O  O337  1  0.76514787  0.27188941  0.72700932  1
  O  O338  1  0.75513879  0.59632969  0.24490171  1
  O  O339  1  0.76803185  0.58952429  0.71500885  1
  O  O340  1  0.77296861  0.92657350  0.22292513  1
  O  O341  1  0.74849784  0.92434633  0.73170135  1
  O  O342  1  0.07288143  0.09523097  0.23053815  1
  O  O343  1  0.06473255  0.10150785  0.72811485  1
  O  O344  1  0.07643291  0.41787801  0.23629744  1
  O  O345  1  0.07000893  0.42908307  0.71769252  1
  O  O346  1  0.06849303  0.76340522  0.22829680  1
  O  O347  1  0.05642483  0.75998820  0.72537893  1
  O  O348  1  0.41051591  0.09753592  0.23133139  1
  O  O349  1  0.40599753  0.08863610  0.73510296  1
  O  O350  1  0.40726077  0.42552838  0.22623264  1
  O  O351  1  0.40727312  0.42673227  0.73303222  1
  O  O352  1  0.39671360  0.75967871  0.22429219  1
  O  O353  1  0.40969292  0.76132850  0.71941617  1
  O  O354  1  0.74731582  0.09215997  0.22043755  1
  O  O355  1  0.72652165  0.10069162  0.72683533  1
  O  O356  1  0.74245111  0.42077468  0.24528555  1
  O  O357  1  0.73761297  0.43415203  0.72334044  1
  O  O358  1  0.73438607  0.76548546  0.23949545  1
  O  O359  1  0.73759493  0.76109381  0.71005858  1
