# generated using pymatgen
data_BaLaInIrO6
_symmetry_space_group_name_H-M   'P 1'
_cell_length_a   17.51069448
_cell_length_b   17.53999547
_cell_length_c   16.48143004
_cell_angle_alpha   90.01032045
_cell_angle_beta   90.01141787
_cell_angle_gamma   90.06545045
_symmetry_Int_Tables_number   1
_chemical_formula_structural   BaLaInIrO6
_chemical_formula_sum   'Ba36 La36 In36 Ir36 O216'
_cell_volume   5062.06176417
_cell_formula_units_Z   36
loop_
 _symmetry_equiv_pos_site_id
 _symmetry_equiv_pos_as_xyz
  1  'x, y, z'
loop_
 _atom_site_type_symbol
 _atom_site_label
 _atom_site_symmetry_multiplicity
 _atom_site_fract_x
 _atom_site_fract_y
 _atom_site_fract_z
 _atom_site_occupancy
  Ba  Ba0  1  1.00018191  0.17330998  0.62640047  1
  Ba  Ba1  1  0.33400179  0.49378486  0.37648125  1
  Ba  Ba2  1  0.33302502  0.17459368  0.11989053  1
  Ba  Ba3  1  0.16586055  0.65622668  0.87961578  1
  Ba  Ba4  1  0.17062297  0.99274497  0.87283382  1
  Ba  Ba5  1  0.16320095  0.33816546  0.62686812  1
  Ba  Ba6  1  0.99850619  0.83881789  0.12711053  1
  Ba  Ba7  1  0.34012892  0.50870313  0.12895325  1
  Ba  Ba8  1  0.83324210  0.67773434  0.62658571  1
  Ba  Ba9  1  0.16416686  0.67221943  0.62325886  1
  Ba  Ba10  1  0.16724539  0.65842774  0.37037387  1
  Ba  Ba11  1  0.17094180  0.32784639  0.37580297  1
  Ba  Ba12  1  0.82821780  0.99055526  0.37906691  1
  Ba  Ba13  1  0.83255812  0.01374859  0.62698735  1
  Ba  Ba14  1  0.50003932  0.34461439  0.62424750  1
  Ba  Ba15  1  0.00445810  0.82953315  0.87359891  1
  Ba  Ba16  1  0.33183837  0.15854341  0.36940828  1
  Ba  Ba17  1  0.00270098  0.15616259  0.87307214  1
  Ba  Ba18  1  0.84240653  0.65884920  0.87545420  1
  Ba  Ba19  1  0.50151950  0.99006217  0.37201758  1
  Ba  Ba20  1  0.33097395  0.15852208  0.87397029  1
  Ba  Ba21  1  0.49526097  0.34098627  0.12682475  1
  Ba  Ba22  1  0.66911266  0.49057594  0.87597819  1
  Ba  Ba23  1  0.33248395  0.50718103  0.62516955  1
  Ba  Ba24  1  0.16301302  0.00471923  0.62384717  1
  Ba  Ba25  1  0.83579231  0.32504880  0.37681114  1
  Ba  Ba26  1  0.83435889  0.66131711  0.37313141  1
  Ba  Ba27  1  0.49812013  0.67374882  0.62767585  1
  Ba  Ba28  1  0.00188539  0.15959054  0.37730637  1
  Ba  Ba29  1  1.00136531  0.50770305  0.62312848  1
  Ba  Ba30  1  0.16396597  0.32324369  0.87555373  1
  Ba  Ba31  1  -0.00330601  0.49200029  0.86972182  1
  Ba  Ba32  1  0.50319302  0.65337331  0.37491552  1
  Ba  Ba33  1  0.49861648  0.32393063  0.37313960  1
  Ba  Ba34  1  0.16130958  0.00928220  0.12054957  1
  Ba  Ba35  1  0.49846148  0.99251878  0.87937452  1
  La  La36  1  0.65940553  0.81692961  0.37707248  1
  La  La37  1  0.66934051  0.84813268  0.62774148  1
  La  La38  1  0.66226906  0.81977633  0.87737914  1
  La  La39  1  0.00461110  0.48859011  0.38588254  1
  La  La40  1  0.32503264  0.81993964  0.87475725  1
  La  La41  1  0.32809986  0.48511350  0.87504214  1
  La  La42  1  0.67022649  0.51433304  0.12807717  1
  La  La43  1  0.66470820  0.15100781  0.87064246  1
  La  La44  1  1.00265721  0.17868806  0.12477821  1
  La  La45  1  0.83512272  0.34779391  0.12624394  1
  La  La46  1  0.17564971  0.98733831  0.37164349  1
  La  La47  1  0.16440336  0.34620408  0.12213234  1
  La  La48  1  0.33338409  0.18624590  0.62623839  1
  La  La49  1  0.49145898  0.01654753  0.12437548  1
  La  La50  1  1.00281976  0.84453703  0.62932158  1
  La  La51  1  0.83098483  0.34704568  0.62768224  1
  La  La52  1  0.67404111  0.51602049  0.62277878  1
  La  La53  1  0.84398207  0.31841761  0.87503419  1
  La  La54  1  0.67017662  0.85344484  0.13022861  1
  La  La55  1  0.83693534  0.00713029  0.12619346  1
  La  La56  1  0.50283343  0.64998457  0.87610583  1
  La  La57  1  0.00389745  0.83322101  0.38746949  1
  La  La58  1  0.33667022  0.85135397  0.12577749  1
  La  La59  1  0.67202986  0.18243191  0.62578595  1
  La  La60  1  0.33173518  0.83721119  0.62712345  1
  La  La61  1  0.66915296  0.18102183  0.12153576  1
  La  La62  1  0.49392857  0.32695378  0.87885172  1
  La  La63  1  0.83249774  0.68467760  0.12400274  1
  La  La64  1  0.65744543  0.15311492  0.37464495  1
  La  La65  1  0.84042441  0.98800744  0.87148911  1
  La  La66  1  0.49400468  0.01368135  0.62806753  1
  La  La67  1  0.33086698  0.81933015  0.37427555  1
  La  La68  1  0.49194407  0.68198922  0.12756218  1
  La  La69  1  0.16625648  0.67960629  0.12754247  1
  La  La70  1  1.00433657  0.51187493  0.12115018  1
  La  La71  1  0.65923596  0.48235208  0.37556316  1
  In  In72  1  0.66837500  0.33200806  0.24635023  1
  In  In73  1  0.50069122  0.49748293  0.00255999  1
  In  In74  1  -0.00101725  0.66478872  0.25263443  1
  In  In75  1  0.49847592  0.83519256  0.75446420  1
  In  In76  1  -0.00254578  0.00174817  0.50035538  1
  In  In77  1  0.83284591  0.16469422  -0.00189027  1
  In  In78  1  0.00067263  0.66872544  0.74853808  1
  In  In79  1  0.66782328  0.66857824  0.75341676  1
  In  In80  1  0.16834379  0.50145630  0.50157846  1
  In  In81  1  0.50204967  0.16703115  0.74969676  1
  In  In82  1  0.66408008  0.66838060  0.00299594  1
  In  In83  1  0.83082899  0.50335307  0.49576095  1
  In  In84  1  0.83476902  0.49969718  0.00066071  1
  In  In85  1  -0.00100530  0.33210805  0.50177433  1
  In  In86  1  0.33543107  0.66699908  0.49916388  1
  In  In87  1  0.33260869  0.66620167  0.75249835  1
  In  In88  1  0.49800493  0.83483690  0.00006674  1
  In  In89  1  0.16836552  0.83512982  0.00237372  1
  In  In90  1  0.83203980  0.83648538  0.25509202  1
  In  In91  1  0.33298602  0.33338890  0.24839735  1
  In  In92  1  0.50002894  0.16645589  0.50131105  1
  In  In93  1  0.00075389  0.33303355  0.24721634  1
  In  In94  1  0.66519602  0.66780898  0.24756247  1
  In  In95  1  0.50129670  0.49814811  0.75160075  1
  In  In96  1  0.83376318  0.16356170  0.24946936  1
  In  In97  1  0.50105004  0.83556926  0.50282767  1
  In  In98  1  0.00052333  0.66623612  0.00233785  1
  In  In99  1  0.50225828  0.17025412  -0.00104660  1
  In  In100  1  0.33384890  0.00043212  0.50216290  1
  In  In101  1  0.16863164  0.16432642  0.49888851  1
  In  In102  1  0.66842301  0.33346694  0.75661285  1
  In  In103  1  0.16729762  0.16406944  0.75038045  1
  In  In104  1  0.83608193  0.50144603  0.25004393  1
  In  In105  1  0.00104609  -0.00209028  0.25202372  1
  In  In106  1  0.66512218  -0.00133393  0.50165077  1
  In  In107  1  0.82899465  0.83782501  -0.00018479  1
  Ir  Ir108  1  0.17161803  0.49845325  0.00193892  1
  Ir  Ir109  1  -0.00182430  0.67413263  0.49846302  1
  Ir  Ir110  1  0.33456000  0.66937357  0.24498344  1
  Ir  Ir111  1  0.33490508  0.66749716  0.00534237  1
  Ir  Ir112  1  0.66046046  0.00322547  0.24271071  1
  Ir  Ir113  1  0.33747658  0.33458567  0.50191644  1
  Ir  Ir114  1  0.33375038  0.00059540  0.00087537  1
  Ir  Ir115  1  0.82997100  0.16884971  0.74748440  1
  Ir  Ir116  1  0.33306698  0.33547479  0.74965531  1
  Ir  Ir117  1  0.50770471  0.49753652  0.49851227  1
  Ir  Ir118  1  -0.00499174  0.33256987  0.75295368  1
  Ir  Ir119  1  0.82878180  0.83964558  0.74735092  1
  Ir  Ir120  1  0.50520747  0.49915403  0.25208901  1
  Ir  Ir121  1  0.33383917  -0.00151687  0.24683064  1
  Ir  Ir122  1  0.16634874  0.49615044  0.75643727  1
  Ir  Ir123  1  0.32938193  0.33390207  -0.00168769  1
  Ir  Ir124  1  0.49986223  0.83522226  0.24783500  1
  Ir  Ir125  1  0.33423226  -0.00295069  0.74944696  1
  Ir  Ir126  1  0.66870222  -0.00116326  0.75509708  1
  Ir  Ir127  1  0.67057998  0.33123148  0.00007918  1
  Ir  Ir128  1  0.66657490  0.66697910  0.50117798  1
  Ir  Ir129  1  -0.00332336  0.00051409  -0.00435438  1
  Ir  Ir130  1  0.82676481  0.16973099  0.50237535  1
  Ir  Ir131  1  0.16555902  0.16742758  0.00341713  1
  Ir  Ir132  1  0.16677949  0.16640027  0.24272331  1
  Ir  Ir133  1  0.16620398  0.83241526  0.49855479  1
  Ir  Ir134  1  0.66787422  0.33262166  0.50145502  1
  Ir  Ir135  1  0.17201128  0.83262782  0.25097250  1
  Ir  Ir136  1  0.82988939  0.83208593  0.50475838  1
  Ir  Ir137  1  -0.00382842  -0.00232044  0.75233738  1
  Ir  Ir138  1  0.83167772  0.49818373  0.74785667  1
  Ir  Ir139  1  0.16853874  0.50185747  0.24073233  1
  Ir  Ir140  1  -0.00111066  0.33075817  -0.00213809  1
  Ir  Ir141  1  0.66723355  0.00270793  -0.00005832  1
  Ir  Ir142  1  0.16869323  0.83441397  0.74826447  1
  Ir  Ir143  1  0.50230807  0.16166705  0.24724492  1
  O  O144  1  0.30371752  0.33312816  0.11883283  1
  O  O145  1  0.31372831  0.32621341  0.62653680  1
  O  O146  1  0.30239187  0.66150009  0.12483842  1
  O  O147  1  0.31619324  0.66993530  0.62559578  1
  O  O148  1  0.31096538  0.99096121  0.12380719  1
  O  O149  1  0.31192431  0.97766246  0.63214438  1
  O  O150  1  0.64092022  0.31817682  0.11674475  1
  O  O151  1  0.64914892  0.32245405  0.62172177  1
  O  O152  1  0.62399755  0.65214191  0.12678400  1
  O  O153  1  0.64731214  0.65601500  0.62221492  1
  O  O154  1  0.63047206  0.99010060  0.11908102  1
  O  O155  1  0.63423002  0.98701336  0.63459346  1
  O  O156  1  0.97362625  0.32138120  0.11586184  1
  O  O157  1  0.96847198  0.33257133  0.63336540  1
  O  O158  1  0.96931260  0.64885839  0.12803697  1
  O  O159  1  0.98456683  0.66805118  0.61893748  1
  O  O160  1  0.97266298  0.99591076  0.11682305  1
  O  O161  1  0.97968600  0.98539952  0.63119485  1
  O  O162  1  0.18584016  0.16425978  0.12351293  1
  O  O163  1  0.19914386  0.16365576  0.62638150  1
  O  O164  1  0.19478649  0.48779426  0.12064158  1
  O  O165  1  0.18048714  0.49934665  0.63605870  1
  O  O166  1  0.20232958  0.82534217  0.13151231  1
  O  O167  1  0.19659923  0.83030196  0.62185102  1
  O  O168  1  0.52930997  0.16180087  0.12499614  1
  O  O169  1  0.53536892  0.15700891  0.62737662  1
  O  O170  1  0.53144335  0.49614551  0.13088378  1
  O  O171  1  0.53588149  0.49824167  0.61928262  1
  O  O172  1  0.53225914  0.82568702  0.12842541  1
  O  O173  1  0.53475856  0.83102189  0.62943135  1
  O  O174  1  0.86542729  0.14709732  0.12003519  1
  O  O175  1  0.85175547  0.16982747  0.62485707  1
  O  O176  1  0.86904601  0.48430974  0.12360246  1
  O  O177  1  0.84713148  0.48996451  0.62747342  1
  O  O178  1  0.84749368  0.85369288  0.12706466  1
  O  O179  1  0.86362879  0.83565832  0.62607657  1
  O  O180  1  0.15287040  0.16792648  0.36133030  1
  O  O181  1  0.15351434  0.16482957  0.88171034  1
  O  O182  1  0.13992003  0.50238449  0.36007775  1
  O  O183  1  0.14724881  0.49746888  0.88142530  1
  O  O184  1  0.13939341  0.84296746  0.37510597  1
  O  O185  1  0.15536073  0.83507593  0.87041598  1
  O  O186  1  0.48672609  0.16067887  0.36892764  1
  O  O187  1  0.48419951  0.18470827  0.87397895  1
  O  O188  1  0.48385360  0.49741193  0.37489139  1
  O  O189  1  0.46517868  0.50565580  0.87950817  1
  O  O190  1  0.46789527  0.83733109  0.36709686  1
  O  O191  1  0.45829896  0.84349399  0.87906595  1
  O  O192  1  0.79565473  0.16907305  0.38134270  1
  O  O193  1  0.80126387  0.17594359  0.86906844  1
  O  O194  1  0.79386854  0.50291971  0.37295790  1
  O  O195  1  0.81855664  0.50050303  0.86900673  1
  O  O196  1  0.79648042  0.83144574  0.38412033  1
  O  O197  1  0.79797655  0.84596123  0.86951048  1
  O  O198  1  0.03646203  -0.00224328  0.37580114  1
  O  O199  1  0.02006185  0.00044321  0.87445791  1
  O  O200  1  0.01772250  0.34919690  0.37168885  1
  O  O201  1  0.01496583  0.33561536  0.87581150  1
  O  O202  1  0.01562055  0.69388996  0.37855710  1
  O  O203  1  0.01335460  0.67348352  0.87453515  1
  O  O204  1  0.35142956  -0.00114483  0.36653362  1
  O  O205  1  0.35280214  0.00587974  0.87561819  1
  O  O206  1  0.34784883  0.33389888  0.38010726  1
  O  O207  1  0.35989204  0.34218952  0.87322437  1
  O  O208  1  0.35536681  0.67988403  0.36659840  1
  O  O209  1  0.36500818  0.68065806  0.88601013  1
  O  O210  1  0.67998207  0.01663715  0.36467185  1
  O  O211  1  0.70281348  0.01454706  0.87810830  1
  O  O212  1  0.68597503  0.34113319  0.37882542  1
  O  O213  1  0.70689439  0.33639031  0.88325793  1
  O  O214  1  0.68451083  0.67858232  0.37870513  1
  O  O215  1  0.69718690  0.68540018  0.87815003  1
  O  O216  1  0.06645357  0.09883079  0.02225488  1
  O  O217  1  0.07411525  0.08982219  0.51912649  1
  O  O218  1  0.07532317  0.42598660  0.02745877  1
  O  O219  1  0.07442092  0.43074966  0.50736315  1
  O  O220  1  0.08551265  0.75104797  0.02851034  1
  O  O221  1  0.06626413  0.76875074  0.52271336  1
  O  O222  1  0.41184018  0.08628687  0.01671126  1
  O  O223  1  0.40244022  0.09774273  0.53501188  1
  O  O224  1  0.40113481  0.42246051  0.01192271  1
  O  O225  1  0.41163303  0.42864858  0.51772880  1
  O  O226  1  0.39919842  0.76063232  0.03550385  1
  O  O227  1  0.39906937  0.77124469  0.51506136  1
  O  O228  1  0.73029772  0.09766812  0.02420352  1
  O  O229  1  0.73375618  0.10188886  0.52254535  1
  O  O230  1  0.73203334  0.42632759  0.02969772  1
  O  O231  1  0.73268492  0.42607635  0.52554454  1
  O  O232  1  0.73098520  0.76882237  0.03410497  1
  O  O233  1  0.72987948  0.76556110  0.52572124  1
  O  O234  1  0.09525759  0.26101200  0.02764833  1
  O  O235  1  0.09091577  0.25600759  0.51133626  1
  O  O236  1  0.10413198  0.58867971  0.03092632  1
  O  O237  1  0.08411220  0.59945005  0.50318665  1
  O  O238  1  0.08517939  0.92705786  0.01175318  1
  O  O239  1  0.08840043  0.91368272  0.51739334  1
  O  O240  1  0.42244141  0.26502177  0.01086547  1
  O  O241  1  0.42493255  0.26170313  0.51910030  1
  O  O242  1  0.42916123  0.60383352  0.02589033  1
  O  O243  1  0.43555002  0.58683046  0.51216793  1
  O  O244  1  0.42543848  0.93119596  0.03031150  1
  O  O245  1  0.43511541  0.93632110  0.52632004  1
  O  O246  1  0.76434241  0.26629836  0.02608541  1
  O  O247  1  0.76154808  0.26589386  0.52911000  1
  O  O248  1  0.76045315  0.59413611  0.03288877  1
  O  O249  1  0.75449117  0.59592435  0.52095742  1
  O  O250  1  0.75998706  0.94082959  0.02065631  1
  O  O251  1  0.75862626  0.92031918  0.52627237  1
  O  O252  1  0.23470581  0.06581665  0.26740831  1
  O  O253  1  0.24593879  0.06739067  0.76188627  1
  O  O254  1  0.23659398  0.41083151  0.25829715  1
  O  O255  1  0.24379836  0.40936432  0.77552786  1
  O  O256  1  0.24731413  0.74517296  0.27193425  1
  O  O257  1  0.23791530  0.74541817  0.77039796  1
  O  O258  1  0.56486823  0.06526248  0.25389490  1
  O  O259  1  0.57975832  0.06815793  0.77397011  1
  O  O260  1  0.57391530  0.40846933  0.26898724  1
  O  O261  1  0.56617620  0.39641640  0.77906322  1
  O  O262  1  0.56924354  0.74665992  0.27061908  1
  O  O263  1  0.56933235  0.73971924  0.78533339  1
  O  O264  1  0.89506985  0.05852787  0.25881392  1
  O  O265  1  0.90014190  0.07000604  0.77317417  1
  O  O266  1  0.89726517  0.39508145  0.25486102  1
  O  O267  1  0.89572262  0.39870496  0.76781271  1
  O  O268  1  0.89731580  0.73377168  0.24725222  1
  O  O269  1  0.90240128  0.75327739  0.76314443  1
  O  O270  1  0.25767438  0.23601923  0.25752227  1
  O  O271  1  0.26271820  0.24558068  0.76102336  1
  O  O272  1  0.26168654  0.57531784  0.26580539  1
  O  O273  1  0.25847920  0.56559108  0.77764131  1
  O  O274  1  0.26452258  0.90429208  0.27619998  1
  O  O275  1  0.26932067  0.89949783  0.77089061  1
  O  O276  1  0.59931365  0.22665164  0.26636744  1
  O  O277  1  0.60938669  0.22887990  0.76649900  1
  O  O278  1  0.60162796  0.56233888  0.27184615  1
  O  O279  1  0.59268595  0.57522852  0.77192063  1
  O  O280  1  0.59939569  0.90047488  0.26847673  1
  O  O281  1  0.60628691  0.90322324  0.78080550  1
  O  O282  1  0.93656935  0.22835499  0.25514039  1
  O  O283  1  0.92061983  0.24233265  0.77607626  1
  O  O284  1  0.94252744  0.55918359  0.28052605  1
  O  O285  1  0.91908597  0.57323180  0.75672365  1
  O  O286  1  0.93445117  0.89724929  0.28285189  1
  O  O287  1  0.91900175  0.91126722  0.77430909  1
  O  O288  1  0.27005774  0.24141840  0.49250364  1
  O  O289  1  0.25864942  0.23998716  0.98248319  1
  O  O290  1  0.25631005  0.57802655  0.48362187  1
  O  O291  1  0.26882643  0.56832082  0.97750533  1
  O  O292  1  0.25949696  0.89972760  0.47381058  1
  O  O293  1  0.26999889  0.90332955  0.98524691  1
  O  O294  1  0.60525978  0.23617215  0.48035537  1
  O  O295  1  0.60927057  0.23566142  0.97505766  1
  O  O296  1  0.60571097  0.56458401  0.47902605  1
  O  O297  1  0.58885018  0.57480567  0.97358060  1
  O  O298  1  0.60171541  0.89842396  0.47295279  1
  O  O299  1  0.60538184  0.90495588  0.97908561  1
  O  O300  1  0.91649551  0.23826050  0.48513926  1
  O  O301  1  0.92880658  0.24029004  0.97908984  1
  O  O302  1  0.93086063  0.58002694  0.47572272  1
  O  O303  1  0.93618734  0.56410332  0.98940499  1
  O  O304  1  0.92346551  0.90083442  0.48300594  1
  O  O305  1  0.92289527  0.91487142  0.97253859  1
  O  O306  1  0.23544383  0.06448121  0.47309820  1
  O  O307  1  0.24025462  0.07328312  0.98425718  1
  O  O308  1  0.24944870  0.40641070  0.49122905  1
  O  O309  1  0.24182701  0.40667641  0.97609109  1
  O  O310  1  0.23918581  0.74833917  0.47601981  1
  O  O311  1  0.24822521  0.73881933  0.98469799  1
  O  O312  1  0.57420194  0.07312829  0.48430526  1
  O  O313  1  0.57919422  0.07351110  0.98153867  1
  O  O314  1  0.57813007  0.40567513  0.47741582  1
  O  O315  1  0.57242656  0.39288472  0.97641402  1
  O  O316  1  0.57781207  0.73757316  0.48234423  1
  O  O317  1  0.56372970  0.73759052  0.97348588  1
  O  O318  1  0.89756739  0.07891981  0.48465949  1
  O  O319  1  0.90210985  0.06508166  0.97372063  1
  O  O320  1  0.90978793  0.41448050  0.48486034  1
  O  O321  1  0.90031027  0.39197108  0.98157093  1
  O  O322  1  0.90529965  0.74661177  0.48190897  1
  O  O323  1  0.90073369  0.74070051  1.00192541  1
  O  O324  1  0.10192659  0.26060963  0.21853333  1
  O  O325  1  0.08333380  0.25795199  0.73892602  1
  O  O326  1  0.10080688  0.59258066  0.21783854  1
  O  O327  1  0.09425248  0.58415199  0.74291844  1
  O  O328  1  0.10035171  0.92002505  0.23309789  1
  O  O329  1  0.08597868  0.91989905  0.72829516  1
  O  O330  1  0.42912778  0.25047419  0.23563196  1
  O  O331  1  0.42143146  0.26179545  0.73186248  1
  O  O332  1  0.43416333  0.60019048  0.22734943  1
  O  O333  1  0.43031538  0.59695550  0.74446175  1
  O  O334  1  0.42864702  0.92788702  0.21786653  1
  O  O335  1  0.43091980  0.93735128  0.72767919  1
  O  O336  1  0.76359770  0.25959474  0.21689548  1
  O  O337  1  0.76842528  0.26404883  0.72475525  1
  O  O338  1  0.76575840  0.60018131  0.21700283  1
  O  O339  1  0.75883017  0.58598185  0.72939107  1
  O  O340  1  0.75469929  0.93948467  0.22654286  1
  O  O341  1  0.75740515  0.92981951  0.72964265  1
  O  O342  1  0.06996422  0.10080546  0.22448140  1
  O  O343  1  0.07177935  0.08375625  0.73545813  1
  O  O344  1  0.07849150  0.43046486  0.21530969  1
  O  O345  1  0.07121997  0.42147533  0.73256076  1
  O  O346  1  0.08769144  0.75473159  0.22827679  1
  O  O347  1  0.07523227  0.76721222  0.72517446  1
  O  O348  1  0.40962227  0.08753121  0.22027792  1
  O  O349  1  0.40279355  0.09111378  0.72225984  1
  O  O350  1  0.41427645  0.42751263  0.23842125  1
  O  O351  1  0.40194652  0.42478038  0.73777215  1
  O  O352  1  0.40368942  0.76636325  0.22046985  1
  O  O353  1  0.39513961  0.77297983  0.73405239  1
  O  O354  1  0.72454719  0.09829485  0.22157136  1
  O  O355  1  0.73215556  0.10147812  0.72812629  1
  O  O356  1  0.73392582  0.43147566  0.21932240  1
  O  O357  1  0.73856153  0.42950481  0.72466224  1
  O  O358  1  0.73171743  0.76884160  0.22547584  1
  O  O359  1  0.73555464  0.77242614  0.72582481  1
