# generated using pymatgen
data_BaLaInIrO6
_symmetry_space_group_name_H-M   'P 1'
_cell_length_a   17.54667953
_cell_length_b   17.56347480
_cell_length_c   16.51359700
_cell_angle_alpha   89.96583670
_cell_angle_beta   90.00169138
_cell_angle_gamma   89.97481175
_symmetry_Int_Tables_number   1
_chemical_formula_structural   BaLaInIrO6
_chemical_formula_sum   'Ba36 La36 In36 Ir36 O216'
_cell_volume   5089.16988373
_cell_formula_units_Z   36
loop_
 _symmetry_equiv_pos_site_id
 _symmetry_equiv_pos_as_xyz
  1  'x, y, z'
loop_
 _atom_site_type_symbol
 _atom_site_label
 _atom_site_symmetry_multiplicity
 _atom_site_fract_x
 _atom_site_fract_y
 _atom_site_fract_z
 _atom_site_occupancy
  Ba  Ba0  1  0.32927504  0.49235404  0.37188708  1
  Ba  Ba1  1  0.66859533  0.16069657  0.37211731  1
  Ba  Ba2  1  0.16833506  0.32534129  0.37489115  1
  Ba  Ba3  1  0.83516327  0.98944007  0.87374346  1
  Ba  Ba4  1  0.66438863  0.17728942  0.62564969  1
  Ba  Ba5  1  0.00173299  0.49036066  0.37120525  1
  Ba  Ba6  1  0.66956952  0.82716756  0.87284397  1
  Ba  Ba7  1  0.83234101  0.01049477  0.12223740  1
  Ba  Ba8  1  0.66535697  0.17840494  0.12237095  1
  Ba  Ba9  1  0.99988952  0.17451149  0.62234713  1
  Ba  Ba10  1  0.16808793  0.67400815  0.61967753  1
  Ba  Ba11  1  0.33723428  0.50489285  0.62081073  1
  Ba  Ba12  1  0.33416124  0.83618038  0.62527144  1
  Ba  Ba13  1  0.66327118  0.15879379  0.87624208  1
  Ba  Ba14  1  0.49904301  0.65648296  0.87782471  1
  Ba  Ba15  1  0.49707467  0.00768853  0.12572942  1
  Ba  Ba16  1  0.17097962  0.65667279  0.87776978  1
  Ba  Ba17  1  0.50189789  0.33963863  0.62408831  1
  Ba  Ba18  1  0.84248700  0.99198981  0.37347986  1
  Ba  Ba19  1  0.16278806  0.98887285  0.37641384  1
  Ba  Ba20  1  0.33202553  0.15862386  0.87522089  1
  Ba  Ba21  1  0.83233309  0.34617418  0.13082039  1
  Ba  Ba22  1  0.00052451  0.16202794  0.37342264  1
  Ba  Ba23  1  0.50191929  0.34140798  0.12628612  1
  Ba  Ba24  1  0.66451546  0.50716134  0.62335695  1
  Ba  Ba25  1  0.16384975  0.67697212  0.12509979  1
  Ba  Ba26  1  0.49762931  0.00681084  0.62353391  1
  Ba  Ba27  1  1.00153111  0.51402142  0.12929302  1
  Ba  Ba28  1  0.16293736  0.01053948  0.12440344  1
  Ba  Ba29  1  1.00829729  0.84243473  0.62414891  1
  Ba  Ba30  1  0.16423642  0.34121185  0.62538695  1
  Ba  Ba31  1  0.49466801  0.32959293  0.37603494  1
  Ba  Ba32  1  1.00590678  0.84194050  0.12552330  1
  Ba  Ba33  1  0.33078635  0.83995350  0.12527101  1
  Ba  Ba34  1  0.50100232  0.98805036  0.87563044  1
  Ba  Ba35  1  0.66839005  0.49537131  0.87416943  1
  La  La36  1  0.33003258  0.48546911  0.87872201  1
  La  La37  1  0.82578665  0.01957034  0.62258053  1
  La  La38  1  0.50078690  0.65034591  0.37402966  1
  La  La39  1  0.32644950  0.81500556  0.37480067  1
  La  La40  1  0.66415120  0.49173864  0.37507116  1
  La  La41  1  1.01063755  0.51522060  0.62367781  1
  La  La42  1  -0.00440152  0.48488188  0.87873707  1
  La  La43  1  0.83240024  0.65633249  0.37645383  1
  La  La44  1  0.84150279  0.32105009  0.37386645  1
  La  La45  1  0.83792001  0.31810925  0.87948632  1
  La  La46  1  0.49457138  0.67256000  0.62891890  1
  La  La47  1  0.83748204  0.66073474  0.87421668  1
  La  La48  1  0.32409136  0.15020531  0.37587576  1
  La  La49  1  0.15859814  0.35300266  0.12774177  1
  La  La50  1  0.49887523  0.67623312  0.12488807  1
  La  La51  1  -0.00385749  0.81439098  0.87648716  1
  La  La52  1  0.66546871  0.84709815  0.62702353  1
  La  La53  1  0.16753668  0.65426068  0.36887396  1
  La  La54  1  0.33687530  0.51307844  0.12666965  1
  La  La55  1  0.66825943  0.84594345  0.11950179  1
  La  La56  1  0.66649087  0.50717527  0.12392121  1
  La  La57  1  -0.00297978  0.81443557  0.37301829  1
  La  La58  1  0.50324164  0.32556725  0.87113825  1
  La  La59  1  0.34487166  0.18105699  0.62123740  1
  La  La60  1  0.83546847  0.67755670  0.62448538  1
  La  La61  1  0.16970087  0.32059672  0.87880421  1
  La  La62  1  0.83069057  0.67575058  0.12808035  1
  La  La63  1  0.33991557  0.18285047  0.12917718  1
  La  La64  1  0.50112205  0.98093453  0.37391697  1
  La  La65  1  1.00436411  0.18513006  0.12563339  1
  La  La66  1  0.82637379  0.34748349  0.62318568  1
  La  La67  1  0.16482700  0.01338678  0.62543724  1
  La  La68  1  -0.00411137  0.15055924  0.87657466  1
  La  La69  1  0.66708449  0.82606767  0.37409365  1
  La  La70  1  0.32514292  0.82069406  0.87987251  1
  La  La71  1  0.17424526  0.98351153  0.87493705  1
  In  In72  1  0.33242114  0.66152960  0.75111144  1
  In  In73  1  0.66471093  0.67084622  0.49968915  1
  In  In74  1  0.83846458  0.83386853  0.74471294  1
  In  In75  1  0.66807477  0.33735776  0.25248049  1
  In  In76  1  0.00043118  0.33627450  0.50383627  1
  In  In77  1  0.66746793  -0.00067476  -0.00025571  1
  In  In78  1  0.66800308  0.66736780  0.74690081  1
  In  In79  1  0.49781429  0.82954645  0.75138552  1
  In  In80  1  0.33093908  0.33534113  0.49793158  1
  In  In81  1  0.66676956  0.66532042  0.00284595  1
  In  In82  1  0.66852742  -0.00065942  0.49417822  1
  In  In83  1  0.66739299  0.00031677  0.74777083  1
  In  In84  1  0.49683216  0.82976653  0.00159619  1
  In  In85  1  0.83759600  0.83118841  0.00235437  1
  In  In86  1  0.16459972  0.49865242  0.75444704  1
  In  In87  1  0.66905706  0.33576066  0.49585158  1
  In  In88  1  0.49808741  0.16528000  0.25519233  1
  In  In89  1  0.16930780  0.16887634  0.24590117  1
  In  In90  1  0.67079402  0.33737940  0.75136414  1
  In  In91  1  0.16351996  0.16539875  0.75238675  1
  In  In92  1  0.83742032  0.17019839  0.75006963  1
  In  In93  1  0.83909168  0.50293168  0.74805945  1
  In  In94  1  0.33101114  -0.00222429  0.74886056  1
  In  In95  1  0.49656183  0.16842575  0.00260657  1
  In  In96  1  0.49807613  0.16701763  0.75013196  1
  In  In97  1  0.33076939  0.00169162  0.00439492  1
  In  In98  1  0.16418420  0.83083508  0.74913046  1
  In  In99  1  0.83528012  0.50196484  0.00308661  1
  In  In100  1  0.32972119  0.33360307  0.75333991  1
  In  In101  1  0.66672578  -0.00257203  0.25247026  1
  In  In102  1  0.83567559  0.83396293  0.50020855  1
  In  In103  1  0.83374979  0.16798021  0.24538152  1
  In  In104  1  0.49930278  0.16476860  0.49351107  1
  In  In105  1  0.00118477  -0.00276787  0.50155034  1
  In  In106  1  0.16755088  0.83328075  0.25062956  1
  In  In107  1  0.00105842  0.00221308  0.24702705  1
  Ir  Ir108  1  0.16593850  0.50495437  0.49824179  1
  Ir  Ir109  1  0.49712077  0.49951488  0.75276073  1
  Ir  Ir110  1  0.00132919  0.66145411  0.75126444  1
  Ir  Ir111  1  0.32697849  0.33826962  0.00471236  1
  Ir  Ir112  1  0.00296653  0.00005576  0.75112335  1
  Ir  Ir113  1  0.00518559  0.00283948  -0.00528104  1
  Ir  Ir114  1  0.50051204  0.50286509  0.24971092  1
  Ir  Ir115  1  0.32863313  0.33768682  0.24527426  1
  Ir  Ir116  1  0.33012034  -0.00629099  0.49707948  1
  Ir  Ir117  1  0.16347474  0.17138360  0.00043656  1
  Ir  Ir118  1  0.33211730  0.66167507  0.00643558  1
  Ir  Ir119  1  0.33549110  0.66413336  0.24914478  1
  Ir  Ir120  1  0.50069650  0.50483173  0.49652216  1
  Ir  Ir121  1  0.16499775  0.49947567  0.00191663  1
  Ir  Ir122  1  -0.00265566  0.66411468  0.25188544  1
  Ir  Ir123  1  -0.00120359  0.33523954  0.75547388  1
  Ir  Ir124  1  0.49732173  0.49595737  0.00301869  1
  Ir  Ir125  1  0.00251440  0.66331721  -0.00081958  1
  Ir  Ir126  1  0.16693258  0.82922478  0.49715350  1
  Ir  Ir127  1  0.49483897  0.82642353  0.49080874  1
  Ir  Ir128  1  0.00061131  0.33944268  0.24759394  1
  Ir  Ir129  1  0.49666151  0.82480181  0.25503969  1
  Ir  Ir130  1  0.00503620  0.33480225  -0.00091411  1
  Ir  Ir131  1  0.17211775  0.16241680  0.50023109  1
  Ir  Ir132  1  0.33377173  0.66525233  0.49402528  1
  Ir  Ir133  1  0.33512327  -0.00317256  0.25465904  1
  Ir  Ir134  1  0.83620771  0.17174931  0.50039929  1
  Ir  Ir135  1  0.00027551  0.66323880  0.49678658  1
  Ir  Ir136  1  0.66462325  0.66587069  0.25205279  1
  Ir  Ir137  1  0.84024465  0.17202786  -0.00131041  1
  Ir  Ir138  1  0.83142301  0.82391474  0.24988583  1
  Ir  Ir139  1  0.83113119  0.50856700  0.25431727  1
  Ir  Ir140  1  0.16867781  0.50268363  0.24822679  1
  Ir  Ir141  1  0.66875195  0.33908471  -0.00058793  1
  Ir  Ir142  1  0.83942653  0.50465524  0.49848798  1
  Ir  Ir143  1  0.16081021  0.83321079  -0.00279505  1
  O  O144  1  0.29478481  0.33010438  0.12462369  1
  O  O145  1  0.31122906  0.32910994  0.62511566  1
  O  O146  1  0.30922185  0.64981412  0.12869325  1
  O  O147  1  0.31585622  0.65924236  0.61374985  1
  O  O148  1  0.31079415  0.99147089  0.13691092  1
  O  O149  1  0.29616127  0.98679919  0.61390889  1
  O  O150  1  0.65331531  0.34360274  0.12068833  1
  O  O151  1  0.65886059  0.33742990  0.62204727  1
  O  O152  1  0.63458675  0.64581795  0.13649751  1
  O  O153  1  0.63021471  0.65966914  0.62011318  1
  O  O154  1  0.64833246  0.98313582  0.12862799  1
  O  O155  1  0.64784611  0.98763762  0.61768230  1
  O  O156  1  0.98047647  0.32727498  0.12097511  1
  O  O157  1  0.96526349  0.33273050  0.63612506  1
  O  O158  1  0.96935325  0.66389694  0.12517200  1
  O  O159  1  0.97229835  0.65100788  0.62574138  1
  O  O160  1  0.98349663  0.99721559  0.11287514  1
  O  O161  1  0.96837817  0.99574651  0.63271591  1
  O  O162  1  0.20076354  0.16749991  0.11655740  1
  O  O163  1  0.20081641  0.15845224  0.62063980  1
  O  O164  1  0.19800666  0.49293208  0.12476315  1
  O  O165  1  0.18081913  0.50210854  0.62003824  1
  O  O166  1  0.17891038  0.83151480  0.11890475  1
  O  O167  1  0.18280216  0.82711165  0.61747278  1
  O  O168  1  0.51108282  0.17187821  0.12913364  1
  O  O169  1  0.51312374  0.16443516  0.62044789  1
  O  O170  1  0.52989714  0.49635265  0.12686826  1
  O  O171  1  0.51808090  0.50162466  0.62388475  1
  O  O172  1  0.52824555  0.81661315  0.13828038  1
  O  O173  1  0.52808381  0.81400187  0.60692637  1
  O  O174  1  0.86882183  0.17392514  0.11621715  1
  O  O175  1  0.85047622  0.17249334  0.61942428  1
  O  O176  1  0.85364613  0.50464661  0.13489882  1
  O  O177  1  0.87371293  0.48978860  0.61695887  1
  O  O178  1  0.86019051  0.81306544  0.13273487  1
  O  O179  1  0.86610824  0.80777475  0.62161196  1
  O  O180  1  0.15359414  0.16410077  0.37872891  1
  O  O181  1  0.12933568  0.18163957  0.88347605  1
  O  O182  1  0.14736925  0.51529267  0.37256337  1
  O  O183  1  0.13106396  0.50042372  0.88413366  1
  O  O184  1  0.13772221  0.82737583  0.37915937  1
  O  O185  1  0.13136539  0.83976706  0.87846793  1
  O  O186  1  0.45545625  0.17353116  0.37349075  1
  O  O187  1  0.47889560  0.18963591  0.87956462  1
  O  O188  1  0.47541598  0.51350507  0.37331422  1
  O  O189  1  0.46641630  0.49814594  0.87866803  1
  O  O190  1  0.46070087  0.83670825  0.37297446  1
  O  O191  1  0.46024697  0.82793826  0.87777879  1
  O  O192  1  0.82349224  0.17665451  0.38114317  1
  O  O193  1  0.81846459  0.17708071  0.88024162  1
  O  O194  1  0.80253871  0.51895027  0.37743804  1
  O  O195  1  0.82105948  0.52212214  0.87681864  1
  O  O196  1  0.80425640  0.82361688  0.36854217  1
  O  O197  1  0.82501516  0.81931400  0.87327120  1
  O  O198  1  0.01356506  0.00849490  0.37565001  1
  O  O199  1  0.03679470  0.01263119  0.87260872  1
  O  O200  1  0.01664138  0.33613401  0.36906140  1
  O  O201  1  0.03463907  0.34661231  0.87672951  1
  O  O202  1  0.02989659  0.67090268  0.37476932  1
  O  O203  1  0.02367168  0.67519165  0.87491639  1
  O  O204  1  0.36390811  0.00818003  0.37604124  1
  O  O205  1  0.34618389  0.00344987  0.87815585  1
  O  O206  1  0.34468088  0.33982652  0.36531344  1
  O  O207  1  0.36136834  0.34660080  0.88731899  1
  O  O208  1  0.36452812  0.67470740  0.37046521  1
  O  O209  1  0.34857188  0.67457341  0.88714074  1
  O  O210  1  0.69312925  -0.02869667  0.37351016  1
  O  O211  1  0.68668349  -0.00599488  0.87417908  1
  O  O212  1  0.70590452  0.35749560  0.37528536  1
  O  O213  1  0.70054458  0.34072883  0.88225911  1
  O  O214  1  0.69561449  0.68043782  0.36982152  1
  O  O215  1  0.70153818  0.66577631  0.87706235  1
  O  O216  1  0.06602351  0.10769066  0.02010260  1
  O  O217  1  0.08681250  0.08712221  0.52568764  1
  O  O218  1  0.07472862  0.42684087  0.02597561  1
  O  O219  1  0.07304619  0.43390302  0.52059760  1
  O  O220  1  0.06657321  0.76070387  0.01048380  1
  O  O221  1  0.06895075  0.75885010  0.51100599  1
  O  O222  1  0.39275988  0.10321236  0.02653579  1
  O  O223  1  0.39103137  0.08712629  0.51927864  1
  O  O224  1  0.39426948  0.43326287  0.02527658  1
  O  O225  1  0.41523250  0.42895142  0.50840093  1
  O  O226  1  0.40448389  0.74587740  0.03035408  1
  O  O227  1  0.40561786  0.75433317  0.51436640  1
  O  O228  1  0.75139351  0.10178091  0.01702331  1
  O  O229  1  0.74595526  0.10004389  0.51510065  1
  O  O230  1  0.73522261  0.43198583  0.02086014  1
  O  O231  1  0.75217447  0.43718367  0.51780205  1
  O  O232  1  0.74146500  0.75720056  0.03534003  1
  O  O233  1  0.72816625  0.77229768  0.51573020  1
  O  O234  1  0.09812715  0.26617990  0.02918424  1
  O  O235  1  0.09796186  0.25155022  0.51514627  1
  O  O236  1  0.09699364  0.59245980  0.02110315  1
  O  O237  1  0.09118746  0.59219463  0.51767981  1
  O  O238  1  0.09962579  0.93428014  0.00855379  1
  O  O239  1  0.10540725  0.92564213  0.52172774  1
  O  O240  1  0.41048015  0.26609313  0.02768736  1
  O  O241  1  0.41732394  0.25468860  0.51960593  1
  O  O242  1  0.42508247  0.58831505  0.03404141  1
  O  O243  1  0.43315991  0.60147359  0.51582751  1
  O  O244  1  0.42075389  0.92170514  0.02164352  1
  O  O245  1  0.42375955  0.92315007  0.51174350  1
  O  O246  1  0.77175956  0.26950897  0.01348870  1
  O  O247  1  0.77438504  0.26958188  0.51147552  1
  O  O248  1  0.76032123  0.59333579  0.03611807  1
  O  O249  1  0.77488982  0.60310491  0.51628983  1
  O  O250  1  0.76261038  0.92124291  0.01923132  1
  O  O251  1  0.77108401  0.93300364  0.52676176  1
  O  O252  1  0.24641120  0.06874293  0.27112968  1
  O  O253  1  0.22335030  0.06113768  0.76429203  1
  O  O254  1  0.23414981  0.40688055  0.26005932  1
  O  O255  1  0.23557384  0.40557706  0.78620238  1
  O  O256  1  0.24424454  0.73596348  0.27404444  1
  O  O257  1  0.24451289  0.74247263  0.76902682  1
  O  O258  1  0.56492957  0.06294464  0.27838886  1
  O  O259  1  0.57212004  0.07408388  0.76639623  1
  O  O260  1  0.57449080  0.41912064  0.27384629  1
  O  O261  1  0.56596097  0.40872082  0.77414232  1
  O  O262  1  0.56207359  0.72557627  0.27126419  1
  O  O263  1  0.57336729  0.73608748  0.76875771  1
  O  O264  1  0.90887201  0.07670355  0.25838393  1
  O  O265  1  0.91563217  0.07348015  0.77010875  1
  O  O266  1  0.89868441  0.41009567  0.27464459  1
  O  O267  1  0.91019106  0.40201120  0.78573192  1
  O  O268  1  0.90289424  0.73112748  0.27829082  1
  O  O269  1  0.90544836  0.72308768  0.76807075  1
  O  O270  1  0.26617918  0.24054984  0.26596679  1
  O  O271  1  0.24714371  0.24607604  0.77890810  1
  O  O272  1  0.25716794  0.57909335  0.27129095  1
  O  O273  1  0.26630819  0.56350828  0.77605358  1
  O  O274  1  0.27074163  0.90115999  0.27764648  1
  O  O275  1  0.25725286  0.90142910  0.78353620  1
  O  O276  1  0.58969563  0.24709946  0.26783191  1
  O  O277  1  0.59032659  0.25102224  0.77085382  1
  O  O278  1  0.59650097  0.57141923  0.27979181  1
  O  O279  1  0.58745219  0.56721410  0.76435681  1
  O  O280  1  0.58720954  0.89065241  0.27763462  1
  O  O281  1  0.59881249  0.89706724  0.74990382  1
  O  O282  1  0.92959010  0.25222505  0.26126166  1
  O  O283  1  0.93605370  0.24239121  0.78460718  1
  O  O284  1  0.92216560  0.57787219  0.27547249  1
  O  O285  1  0.94545207  0.56294288  0.76748624  1
  O  O286  1  0.92439543  0.88973201  0.27236747  1
  O  O287  1  0.94363603  0.90337142  0.77595888  1
  O  O288  1  0.26081307  0.23197604  0.47777234  1
  O  O289  1  0.25282936  0.24800753  0.97493008  1
  O  O290  1  0.25334506  0.58297583  0.47027411  1
  O  O291  1  0.26345877  0.56359484  0.98148494  1
  O  O292  1  0.26347367  0.89360754  0.47234836  1
  O  O293  1  0.25177766  0.90191472  0.97529680  1
  O  O294  1  0.59297550  0.24454815  0.47749299  1
  O  O295  1  0.59458594  0.25484565  0.98299924  1
  O  O296  1  0.59134078  0.57579024  0.46849585  1
  O  O297  1  0.59018805  0.56115686  0.99081365  1
  O  O298  1  0.58448646  0.89516602  0.47041860  1
  O  O299  1  0.59699639  0.89552296  0.99504857  1
  O  O300  1  0.92495615  0.24442705  0.48179569  1
  O  O301  1  0.93752235  0.24149220  0.97194565  1
  O  O302  1  0.93082960  0.57172153  0.47902375  1
  O  O303  1  0.93800269  0.57089812  0.97855606  1
  O  O304  1  0.93757202  0.89500376  0.47255012  1
  O  O305  1  0.94178703  0.90597130  0.97519485  1
  O  O306  1  0.24260045  0.06871304  0.47656384  1
  O  O307  1  0.22262578  0.07599329  0.97498395  1
  O  O308  1  0.23657219  0.41598290  0.48447460  1
  O  O309  1  0.23376686  0.40690186  0.97616633  1
  O  O310  1  0.23822486  0.73530731  0.46686967  1
  O  O311  1  0.24088782  0.74478168  0.98054689  1
  O  O312  1  0.56756973  0.06466625  0.46743230  1
  O  O313  1  0.57487570  0.07730991  0.98814133  1
  O  O314  1  0.57881488  0.42227407  0.47541037  1
  O  O315  1  0.56781289  0.40207718  0.97533513  1
  O  O316  1  0.56479466  0.74088082  0.45841289  1
  O  O317  1  0.56569158  0.72791051  1.00059500  1
  O  O318  1  0.90373661  0.07773115  0.49726052  1
  O  O319  1  0.91310983  0.07869073  0.97300284  1
  O  O320  1  0.90007408  0.40754601  0.47567261  1
  O  O321  1  0.91151695  0.40333960  0.97465556  1
  O  O322  1  0.90795555  0.72971919  0.47106822  1
  O  O323  1  0.90798116  0.72772698  0.97989723  1
  O  O324  1  0.09266286  0.26973236  0.22380040  1
  O  O325  1  0.08622405  0.26596985  0.73570303  1
  O  O326  1  0.09702680  0.59673060  0.23740421  1
  O  O327  1  0.09304860  0.59561849  0.73106741  1
  O  O328  1  0.09292930  0.92517769  0.23748033  1
  O  O329  1  0.09814527  0.93699239  0.72891982  1
  O  O330  1  0.41356222  0.26631771  0.22680163  1
  O  O331  1  0.42044395  0.26027419  0.73379286  1
  O  O332  1  0.42950045  0.59417850  0.22427282  1
  O  O333  1  0.43212201  0.59065613  0.72981261  1
  O  O334  1  0.43346669  0.92598678  0.24242590  1
  O  O335  1  0.42339934  0.92249883  0.72938661  1
  O  O336  1  0.76581607  0.26703967  0.24674531  1
  O  O337  1  0.77789637  0.27417047  0.73883239  1
  O  O338  1  0.76734976  0.60749230  0.23492307  1
  O  O339  1  0.77311160  0.60311686  0.72417763  1
  O  O340  1  0.75996894  0.90790307  0.22401998  1
  O  O341  1  0.77187276  0.93067510  0.71911582  1
  O  O342  1  0.07085282  0.10502092  0.22146318  1
  O  O343  1  0.06722254  0.09212867  0.73007319  1
  O  O344  1  0.07963896  0.42729633  0.22657175  1
  O  O345  1  0.06140935  0.43085157  0.72984850  1
  O  O346  1  0.06853549  0.75300490  0.24128349  1
  O  O347  1  0.06316647  0.75820550  0.74262111  1
  O  O348  1  0.39376315  0.09309062  0.23238322  1
  O  O349  1  0.39239264  0.09991262  0.72413606  1
  O  O350  1  0.40055037  0.43469318  0.22403516  1
  O  O351  1  0.40494331  0.43345315  0.74501448  1
  O  O352  1  0.40715987  0.75256975  0.22710566  1
  O  O353  1  0.41348844  0.74575883  0.72254455  1
  O  O354  1  0.73929440  0.09317222  0.23400885  1
  O  O355  1  0.74965757  0.09203220  0.72631917  1
  O  O356  1  0.73395503  0.44908632  0.23556524  1
  O  O357  1  0.74881806  0.42890657  0.72898288  1
  O  O358  1  0.73167971  0.75785742  0.22302474  1
  O  O359  1  0.73901167  0.76367563  0.71393499  1
