# generated using pymatgen
data_BaLaInIrO6
_symmetry_space_group_name_H-M   'P 1'
_cell_length_a   17.52649369
_cell_length_b   17.55561364
_cell_length_c   16.50728521
_cell_angle_alpha   89.99142067
_cell_angle_beta   90.00835590
_cell_angle_gamma   89.98183947
_symmetry_Int_Tables_number   1
_chemical_formula_structural   BaLaInIrO6
_chemical_formula_sum   'Ba36 La36 In36 Ir36 O216'
_cell_volume   5079.09901161
_cell_formula_units_Z   36
loop_
 _symmetry_equiv_pos_site_id
 _symmetry_equiv_pos_as_xyz
  1  'x, y, z'
loop_
 _atom_site_type_symbol
 _atom_site_label
 _atom_site_symmetry_multiplicity
 _atom_site_fract_x
 _atom_site_fract_y
 _atom_site_fract_z
 _atom_site_occupancy
  Ba  Ba0  1  0.99806528  0.16953631  0.12215591  1
  Ba  Ba1  1  0.50397074  0.33984169  0.12714484  1
  Ba  Ba2  1  0.16688198  0.67809093  0.12612191  1
  Ba  Ba3  1  0.33220804  0.17167771  0.62705349  1
  Ba  Ba4  1  1.00113884  0.17702190  0.62482523  1
  Ba  Ba5  1  0.99547837  0.83669417  0.12664776  1
  Ba  Ba6  1  0.33691918  0.15909884  0.87306376  1
  Ba  Ba7  1  0.16409308  0.99362170  0.87265056  1
  Ba  Ba8  1  0.83530108  0.99381691  0.87534710  1
  Ba  Ba9  1  0.16588502  0.32103430  0.37213263  1
  Ba  Ba10  1  0.66484585  0.50728862  0.62201112  1
  Ba  Ba11  1  0.33358421  0.50537282  0.62279655  1
  Ba  Ba12  1  0.83600375  0.67342332  0.62555788  1
  Ba  Ba13  1  -0.00260214  0.49006261  0.87331628  1
  Ba  Ba14  1  0.66657213  0.49127244  0.87083886  1
  Ba  Ba15  1  0.50140617  0.65703802  0.37345861  1
  Ba  Ba16  1  0.66805271  0.82569514  0.37763485  1
  Ba  Ba17  1  0.33373225  0.17354043  0.12130175  1
  Ba  Ba18  1  0.50165658  0.32410893  0.37792496  1
  Ba  Ba19  1  1.00110485  0.50750104  0.12669126  1
  Ba  Ba20  1  0.83767111  0.65501793  0.87501349  1
  Ba  Ba21  1  0.16558303  0.01305961  0.62352722  1
  Ba  Ba22  1  0.33577877  0.16112565  0.37381610  1
  Ba  Ba23  1  0.49672286  0.00968214  0.61918142  1
  Ba  Ba24  1  0.66626686  0.15482816  0.37540141  1
  Ba  Ba25  1  0.17022473  0.65784381  0.37426365  1
  Ba  Ba26  1  -0.00122050  0.15536440  0.87163224  1
  Ba  Ba27  1  0.50299918  0.33712223  0.62210170  1
  Ba  Ba28  1  0.50024467  0.01005789  0.12242095  1
  Ba  Ba29  1  0.83116815  0.98729166  0.37897861  1
  Ba  Ba30  1  0.16486766  0.00505345  0.12202043  1
  Ba  Ba31  1  0.50012594  0.67710570  0.12655701  1
  Ba  Ba32  1  -0.00206403  0.82830934  0.87639336  1
  Ba  Ba33  1  0.66790123  0.48985693  0.37791827  1
  Ba  Ba34  1  0.83906867  0.65756483  0.38087098  1
  Ba  Ba35  1  0.50034518  0.65448804  0.87547761  1
  La  La36  1  0.49900750  0.32611862  0.87432996  1
  La  La37  1  0.33227404  0.48045007  0.37388089  1
  La  La38  1  0.16787368  0.99010238  0.37618016  1
  La  La39  1  0.16757421  0.32295112  0.87753551  1
  La  La40  1  0.15479299  0.68799860  0.62362480  1
  La  La41  1  1.00019714  0.85284907  0.62642949  1
  La  La42  1  0.66951526  0.84694572  0.62274362  1
  La  La43  1  0.82368474  0.34837281  0.12539717  1
  La  La44  1  0.67311921  0.18364680  0.61939103  1
  La  La45  1  0.50829160  0.99075357  0.87043788  1
  La  La46  1  0.82742467  0.01298776  0.62790540  1
  La  La47  1  0.82977331  0.01373890  0.12713621  1
  La  La48  1  0.82934911  0.34994789  0.62128473  1
  La  La49  1  0.33179746  0.82471318  0.37728847  1
  La  La50  1  0.32751699  0.48455617  0.87471237  1
  La  La51  1  0.67599201  0.18400342  0.13012342  1
  La  La52  1  0.16192256  0.34052700  0.12872583  1
  La  La53  1  0.32775380  0.82297232  0.87576524  1
  La  La54  1  0.33770214  0.84781310  0.12906475  1
  La  La55  1  0.84242457  0.32006649  0.87026985  1
  La  La56  1  0.16283945  0.34239607  0.62087117  1
  La  La57  1  0.67362961  0.85267747  0.12966942  1
  La  La58  1  0.33940628  0.51223155  0.12736212  1
  La  La59  1  0.65680408  0.81811605  0.87273870  1
  La  La60  1  0.50865911  0.99090294  0.37421351  1
  La  La61  1  0.67273304  0.52000084  0.13029062  1
  La  La62  1  -0.00240552  0.82020354  0.37758274  1
  La  La63  1  0.33464155  0.84872307  0.61997161  1
  La  La64  1  0.66128948  0.15857358  0.87448480  1
  La  La65  1  0.49821015  0.67771702  0.62592332  1
  La  La66  1  -0.00509522  0.14594218  0.37638953  1
  La  La67  1  1.00610850  0.51679206  0.62220878  1
  La  La68  1  0.17025456  0.65024584  0.88079458  1
  La  La69  1  0.84105042  0.31384079  0.37773962  1
  La  La70  1  0.82918424  0.68708916  0.12492545  1
  La  La71  1  -0.00634804  0.48010289  0.38014578  1
  In  In72  1  0.82667827  0.83703858  -0.00304939  1
  In  In73  1  -0.00264291  0.33189360  0.00183880  1
  In  In74  1  0.83481356  0.83278967  0.50242504  1
  In  In75  1  0.00057682  0.66266687  0.25222673  1
  In  In76  1  0.16680100  0.16581025  0.00006231  1
  In  In77  1  0.16500078  0.83607462  0.24961207  1
  In  In78  1  0.00001813  0.66588479  0.00118077  1
  In  In79  1  0.16610665  0.49986127  0.74789784  1
  In  In80  1  0.49619011  0.83407707  0.74753128  1
  In  In81  1  0.50272879  0.49925652  0.24787080  1
  In  In82  1  0.33456549  0.66808386  0.25095456  1
  In  In83  1  0.16540836  0.16256758  0.25085004  1
  In  In84  1  0.83263180  0.50006183  0.00094360  1
  In  In85  1  0.32937051  0.66630862  0.50337478  1
  In  In86  1  0.66562522  0.66943699  0.00137386  1
  In  In87  1  0.32839049  0.66647777  0.74493202  1
  In  In88  1  0.00241495  0.66976761  0.75146485  1
  In  In89  1  0.33676697  -0.00019087  -0.00180379  1
  In  In90  1  0.16868861  0.49833929  0.00462094  1
  In  In91  1  0.50374391  0.16441703  0.24712328  1
  In  In92  1  0.49783311  0.50154846  0.50057481  1
  In  In93  1  0.33501833  0.00000680  0.74980064  1
  In  In94  1  0.83518682  0.50012267  0.25554874  1
  In  In95  1  -0.00423773  0.32738792  0.24935343  1
  In  In96  1  0.66735057  0.66617527  0.74707515  1
  In  In97  1  0.33389286  0.33100352  0.24481835  1
  In  In98  1  0.82979511  0.16788760  -0.00255455  1
  In  In99  1  0.49891422  0.49906886  0.74979431  1
  In  In100  1  0.49811006  0.83508495  0.00150146  1
  In  In101  1  -0.00268160  -0.00320016  0.00179153  1
  In  In102  1  0.33107871  0.32943793  0.50246202  1
  In  In103  1  0.66684870  0.33826886  -0.00221219  1
  In  In104  1  0.82992137  0.83403596  0.74962036  1
  In  In105  1  0.50399358  0.16905030  0.74600798  1
  In  In106  1  0.16490019  0.16900739  0.74850520  1
  In  In107  1  0.50082111  0.83278460  0.49887620  1
  Ir  Ir108  1  0.49695129  0.49829675  0.00025627  1
  Ir  Ir109  1  0.50582892  0.17073595  -0.00300065  1
  Ir  Ir110  1  0.50316349  0.83707483  0.24993411  1
  Ir  Ir111  1  0.66413375  0.00711626  -0.00121940  1
  Ir  Ir112  1  0.33378270  0.66597780  -0.00134993  1
  Ir  Ir113  1  0.66824946  0.67162682  0.25266630  1
  Ir  Ir114  1  0.16263416  0.49721711  0.49641298  1
  Ir  Ir115  1  0.83620588  0.49474378  0.74541402  1
  Ir  Ir116  1  0.66851240  0.00484337  0.75066195  1
  Ir  Ir117  1  0.83705359  0.16440179  0.50110423  1
  Ir  Ir118  1  0.16844096  0.49778640  0.25431852  1
  Ir  Ir119  1  0.83207042  0.83502417  0.25326560  1
  Ir  Ir120  1  -0.00363263  0.00041730  0.74484991  1
  Ir  Ir121  1  -0.00467005  -0.00246221  0.25621778  1
  Ir  Ir122  1  0.50402921  0.16364441  0.49948443  1
  Ir  Ir123  1  0.16154140  0.16633635  0.49827824  1
  Ir  Ir124  1  0.00112099  -0.00016404  0.49934669  1
  Ir  Ir125  1  0.00519040  0.66604050  0.50092418  1
  Ir  Ir126  1  0.33637756  -0.00368367  0.25622262  1
  Ir  Ir127  1  0.67248634  0.33176244  0.25365398  1
  Ir  Ir128  1  0.67435621  0.32985639  0.49996367  1
  Ir  Ir129  1  0.83193013  0.16227101  0.25535701  1
  Ir  Ir130  1  0.66608045  -0.00085503  0.25087384  1
  Ir  Ir131  1  0.17023879  0.83051080  -0.00420738  1
  Ir  Ir132  1  0.33151383  0.33439713  0.75359704  1
  Ir  Ir133  1  0.33267765  0.00182711  0.49285477  1
  Ir  Ir134  1  0.33597111  0.33513173  -0.00310653  1
  Ir  Ir135  1  0.83651063  0.49784498  0.50221558  1
  Ir  Ir136  1  0.66641200  0.66584388  0.49821152  1
  Ir  Ir137  1  0.16558216  0.83321750  0.75058067  1
  Ir  Ir138  1  0.16352379  0.83939239  0.50286596  1
  Ir  Ir139  1  -0.00277405  0.33461916  0.74343634  1
  Ir  Ir140  1  0.83198740  0.16814679  0.74279650  1
  Ir  Ir141  1  0.67550317  0.32992837  0.74838829  1
  Ir  Ir142  1  -0.00231072  0.33236239  0.50232255  1
  Ir  Ir143  1  0.66594622  0.00246259  0.50346385  1
  O  O144  1  0.30071429  0.33366909  0.11394635  1
  O  O145  1  0.30185336  0.33181708  0.63285503  1
  O  O146  1  0.31338912  0.65313238  0.11859339  1
  O  O147  1  0.28426767  0.65842919  0.62197906  1
  O  O148  1  0.31315891  0.98769794  0.13623918  1
  O  O149  1  0.31195444  0.99336083  0.61242602  1
  O  O150  1  0.65555267  0.32297837  0.13312326  1
  O  O151  1  0.65221649  0.32206514  0.62406996  1
  O  O152  1  0.64873634  0.66263820  0.13435694  1
  O  O153  1  0.63611064  0.66398369  0.61638422  1
  O  O154  1  0.64534751  0.98924472  0.12582291  1
  O  O155  1  0.64386474  0.98848120  0.62708971  1
  O  O156  1  0.95655462  0.32722577  0.12736939  1
  O  O157  1  0.96603803  0.33116613  0.62223968  1
  O  O158  1  0.96661970  0.66401762  0.12945229  1
  O  O159  1  0.98795402  0.65610538  0.61971920  1
  O  O160  1  0.96713614  0.99358492  0.13829878  1
  O  O161  1  0.96727818  0.99420025  0.62012302  1
  O  O162  1  0.18480734  0.15627830  0.12632876  1
  O  O163  1  0.17963226  0.17281890  0.61821034  1
  O  O164  1  0.20143798  0.48861426  0.13452443  1
  O  O165  1  0.18159253  0.48372554  0.61732726  1
  O  O166  1  0.19890346  0.83519556  0.11730812  1
  O  O167  1  0.19673783  0.82912539  0.62745989  1
  O  O168  1  0.53766326  0.16507263  0.11657775  1
  O  O169  1  0.53433612  0.16654271  0.61889679  1
  O  O170  1  0.53375865  0.49577294  0.11860028  1
  O  O171  1  0.51613606  0.48660893  0.62501403  1
  O  O172  1  0.53581251  0.83712242  0.13147319  1
  O  O173  1  0.53650840  0.82444240  0.62232262  1
  O  O174  1  0.84300457  0.15502234  0.13506421  1
  O  O175  1  0.85609542  0.15159428  0.62151885  1
  O  O176  1  0.85178323  0.48280013  0.13060676  1
  O  O177  1  0.86748502  0.48849252  0.62268575  1
  O  O178  1  0.84249004  0.83482285  0.13380557  1
  O  O179  1  0.86441292  0.83731898  0.62397261  1
  O  O180  1  0.13248226  0.16300202  0.37951533  1
  O  O181  1  0.14596442  0.18826566  0.87282992  1
  O  O182  1  0.13103598  0.50164139  0.37564414  1
  O  O183  1  0.14777565  0.50355107  0.87535100  1
  O  O184  1  0.13306427  0.84967656  0.38400109  1
  O  O185  1  0.14378362  0.83340452  0.87282681  1
  O  O186  1  0.48917817  0.16208780  0.37978019  1
  O  O187  1  0.49085066  0.18510615  0.87662050  1
  O  O188  1  0.47109200  0.49991726  0.37353108  1
  O  O189  1  0.46545792  0.49738508  0.88106403  1
  O  O190  1  0.47158536  0.84249677  0.37024461  1
  O  O191  1  0.46566349  0.84991479  0.87450018  1
  O  O192  1  0.81382410  0.17425387  0.38036579  1
  O  O193  1  0.80022515  0.17688409  0.86297035  1
  O  O194  1  0.81607740  0.50170874  0.38441967  1
  O  O195  1  0.81623963  0.49522773  0.86418365  1
  O  O196  1  0.81988467  0.83043860  0.37428722  1
  O  O197  1  0.79062324  0.84169562  0.87250788  1
  O  O198  1  0.02964518  0.00559769  0.37808353  1
  O  O199  1  0.01139595  -0.00068118  0.86524207  1
  O  O200  1  0.01644942  0.33856696  0.38291701  1
  O  O201  1  0.02745918  0.33646602  0.86331421  1
  O  O202  1  0.02012023  0.68146438  0.38172112  1
  O  O203  1  0.03488071  0.66882812  0.87388437  1
  O  O204  1  0.36870468  0.00021872  0.37454041  1
  O  O205  1  0.37241966  -0.00451465  0.87444133  1
  O  O206  1  0.34770017  0.34253058  0.37472536  1
  O  O207  1  0.36544802  0.34291871  0.87562686  1
  O  O208  1  0.35119042  0.68685989  0.37866173  1
  O  O209  1  0.35222204  0.68431207  0.87910184  1
  O  O210  1  0.68600155  0.00266995  0.37653444  1
  O  O211  1  0.68982796  0.02361649  0.87559150  1
  O  O212  1  0.70381602  0.33180182  0.37736963  1
  O  O213  1  0.70359757  0.33040716  0.86774431  1
  O  O214  1  0.69090064  0.67057552  0.37440998  1
  O  O215  1  0.69038051  0.68106639  0.87511237  1
  O  O216  1  0.07187770  0.08793597  0.00829779  1
  O  O217  1  0.06673787  0.09622104  0.51352587  1
  O  O218  1  0.08138670  0.41826874  0.02931548  1
  O  O219  1  0.06155373  0.43157467  0.52145853  1
  O  O220  1  0.08148694  0.76319413  0.01669866  1
  O  O221  1  0.07054991  0.76658371  0.52787316  1
  O  O222  1  0.41818905  0.09910372  0.01229311  1
  O  O223  1  0.40667168  0.09493979  0.51579915  1
  O  O224  1  0.40071079  0.43224762  0.02278624  1
  O  O225  1  0.39985241  0.42743761  0.50671535  1
  O  O226  1  0.39446197  0.76160134  0.02388296  1
  O  O227  1  0.40226345  0.76654825  0.52870041  1
  O  O228  1  0.72417852  0.10318297  0.02117441  1
  O  O229  1  0.74218563  0.09371756  0.52963586  1
  O  O230  1  0.72850703  0.43635944  0.02737820  1
  O  O231  1  0.74714524  0.42199086  0.52497845  1
  O  O232  1  0.73053697  0.77086322  0.03166399  1
  O  O233  1  0.73404977  0.76018954  0.52216482  1
  O  O234  1  0.09988442  0.26642515  0.02324987  1
  O  O235  1  0.09562050  0.26741809  0.52254149  1
  O  O236  1  0.10228908  0.59742915  0.01412807  1
  O  O237  1  0.09988170  0.59456438  0.52329463  1
  O  O238  1  0.09824989  0.91819443  0.01179839  1
  O  O239  1  0.08796169  0.92563169  0.52831300  1
  O  O240  1  0.43464292  0.26662903  0.01241999  1
  O  O241  1  0.42971392  0.25063124  0.51542276  1
  O  O242  1  0.42457167  0.59000472  0.02482218  1
  O  O243  1  0.43256289  0.60444762  0.52775121  1
  O  O244  1  0.41886746  0.91863111  0.03345517  1
  O  O245  1  0.41843102  0.92752934  0.51029510  1
  O  O246  1  0.76153282  0.26421808  0.02701685  1
  O  O247  1  0.76960960  0.25912357  0.52558605  1
  O  O248  1  0.76082407  0.59850846  0.03299213  1
  O  O249  1  0.76417345  0.59209333  0.51963224  1
  O  O250  1  0.75543369  0.94115458  0.02749540  1
  O  O251  1  0.75702723  0.93107079  0.52686681  1
  O  O252  1  0.24101509  0.06004510  0.27852083  1
  O  O253  1  0.24242323  0.07639521  0.76084067  1
  O  O254  1  0.23914082  0.41257531  0.27243159  1
  O  O255  1  0.23644258  0.39940468  0.77430079  1
  O  O256  1  0.24648171  0.74941512  0.26764489  1
  O  O257  1  0.22574399  0.73780851  0.77319062  1
  O  O258  1  0.57169178  0.06437819  0.27042028  1
  O  O259  1  0.57881417  0.07354313  0.77770114  1
  O  O260  1  0.58136225  0.40064150  0.26798472  1
  O  O261  1  0.57782858  0.39223208  0.77376157  1
  O  O262  1  0.57382193  0.74518733  0.27069403  1
  O  O263  1  0.57340078  0.74574555  0.77220604  1
  O  O264  1  0.89799757  0.06510093  0.27088626  1
  O  O265  1  0.89936875  0.07028063  0.75824093  1
  O  O266  1  0.90219437  0.39849477  0.28336242  1
  O  O267  1  0.89930717  0.39628307  0.76391880  1
  O  O268  1  0.89903235  0.74279046  0.26281358  1
  O  O269  1  0.90760222  0.74163371  0.76719262  1
  O  O270  1  0.25685252  0.23986201  0.26291206  1
  O  O271  1  0.26124026  0.24824401  0.76977996  1
  O  O272  1  0.26187304  0.56563103  0.27459902  1
  O  O273  1  0.26359774  0.56926291  0.78140952  1
  O  O274  1  0.26742486  0.90583592  0.28047727  1
  O  O275  1  0.26096623  0.89586665  0.77109537  1
  O  O276  1  0.60662525  0.23787985  0.26045417  1
  O  O277  1  0.61168608  0.23425492  0.76265743  1
  O  O278  1  0.60189158  0.57632905  0.26247210  1
  O  O279  1  0.59338457  0.57244123  0.76557851  1
  O  O280  1  0.59221937  0.90991631  0.27660355  1
  O  O281  1  0.59901586  0.91406092  0.77857555  1
  O  O282  1  0.92508286  0.22721412  0.28245492  1
  O  O283  1  0.92264209  0.24233950  0.76951892  1
  O  O284  1  0.93673877  0.56351892  0.28220903  1
  O  O285  1  0.92814230  0.56351191  0.75299977  1
  O  O286  1  0.93149618  0.89800113  0.27789840  1
  O  O287  1  0.92743677  0.91186375  0.75757234  1
  O  O288  1  0.25204545  0.23453223  0.48445984  1
  O  O289  1  0.26493588  0.24998894  0.97444305  1
  O  O290  1  0.25887933  0.55913018  0.47118651  1
  O  O291  1  0.26995394  0.57166061  0.97545196  1
  O  O292  1  0.25920237  0.90956250  0.46967167  1
  O  O293  1  0.26348818  0.89521587  0.97654841  1
  O  O294  1  0.60362559  0.23219250  0.48904349  1
  O  O295  1  0.59911545  0.23792140  0.97821612  1
  O  O296  1  0.59764361  0.57668091  0.48125336  1
  O  O297  1  0.58854364  0.56746430  0.98624948  1
  O  O298  1  0.59099738  0.91622502  0.48169514  1
  O  O299  1  0.59644708  0.91571608  0.96967439  1
  O  O300  1  0.93045042  0.23603710  0.47402309  1
  O  O301  1  0.92172950  0.24026221  0.97055875  1
  O  O302  1  0.93982220  0.56328629  0.48432286  1
  O  O303  1  0.92767688  0.56984395  0.98271444  1
  O  O304  1  0.93829873  0.90445562  0.47995074  1
  O  O305  1  0.92225200  0.90678038  0.98707791  1
  O  O306  1  0.23035963  0.07055099  0.47435101  1
  O  O307  1  0.24658958  0.07466914  0.98110973  1
  O  O308  1  0.22715062  0.40482523  0.48504956  1
  O  O309  1  0.24696499  0.40396891  0.96870115  1
  O  O310  1  0.23636217  0.75489401  0.48128496  1
  O  O311  1  0.23931875  0.73387316  0.97154911  1
  O  O312  1  0.57158427  0.06864145  0.47808761  1
  O  O313  1  0.56954757  0.07579442  0.96824069  1
  O  O314  1  0.58556788  0.40069539  0.48476386  1
  O  O315  1  0.56162851  0.40406801  0.97469871  1
  O  O316  1  0.57734053  0.73571680  0.48115763  1
  O  O317  1  0.57339083  0.74651611  0.97731381  1
  O  O318  1  0.91066126  0.07420582  0.47474147  1
  O  O319  1  0.89503791  0.06878971  1.00140595  1
  O  O320  1  0.90118720  0.39939180  0.47817472  1
  O  O321  1  0.89495077  0.39634167  0.97705473  1
  O  O322  1  0.91771363  0.74040799  0.48613886  1
  O  O323  1  0.89852912  0.73840173  0.99567071  1
  O  O324  1  0.09299067  0.26178347  0.22435869  1
  O  O325  1  0.09354220  0.27293206  0.72484869  1
  O  O326  1  0.10103561  0.58672125  0.23493090  1
  O  O327  1  0.09908795  0.59808986  0.72123537  1
  O  O328  1  0.09210700  0.93575696  0.24284472  1
  O  O329  1  0.08870408  0.92708630  0.72484281  1
  O  O330  1  0.42911534  0.25529436  0.23447185  1
  O  O331  1  0.42723095  0.26802829  0.74109887  1
  O  O332  1  0.42357697  0.59100163  0.22863048  1
  O  O333  1  0.43060151  0.60093072  0.72411148  1
  O  O334  1  0.43002889  0.92593674  0.23120466  1
  O  O335  1  0.41925604  0.92023199  0.71410140  1
  O  O336  1  0.77042772  0.26381831  0.23375550  1
  O  O337  1  0.76923309  0.26285413  0.71691950  1
  O  O338  1  0.76158861  0.60337296  0.22950029  1
  O  O339  1  0.76652279  0.58501324  0.73099391  1
  O  O340  1  0.76196581  0.93132965  0.22971073  1
  O  O341  1  0.75770467  0.93626808  0.72223891  1
  O  O342  1  0.05800509  0.09237022  0.24473287  1
  O  O343  1  0.06865150  0.08886835  0.73420346  1
  O  O344  1  0.08016397  0.42436439  0.23491107  1
  O  O345  1  0.06363192  0.42639685  0.71804517  1
  O  O346  1  0.07081693  0.76207820  0.24488872  1
  O  O347  1  0.07321604  0.76977815  0.71830641  1
  O  O348  1  0.40495439  0.08533280  0.23474568  1
  O  O349  1  0.41496738  0.09191306  0.73392882  1
  O  O350  1  0.40166392  0.43095728  0.22368039  1
  O  O351  1  0.39647345  0.42645376  0.74382219  1
  O  O352  1  0.40974641  0.77166739  0.22692549  1
  O  O353  1  0.39860811  0.76204681  0.71534038  1
  O  O354  1  0.73522959  0.09282445  0.22477305  1
  O  O355  1  0.73696698  0.09890975  0.71796736  1
  O  O356  1  0.73532164  0.42614143  0.22944133  1
  O  O357  1  0.74487328  0.42141645  0.72419497  1
  O  O358  1  0.73585052  0.76856452  0.22779120  1
  O  O359  1  0.73105264  0.76800507  0.71897494  1
