# generated using pymatgen
data_BaLaInIrO6
_symmetry_space_group_name_H-M   'P 1'
_cell_length_a   17.51706693
_cell_length_b   17.53620171
_cell_length_c   16.48808004
_cell_angle_alpha   90.01978302
_cell_angle_beta   90.02232474
_cell_angle_gamma   89.97291142
_symmetry_Int_Tables_number   1
_chemical_formula_structural   BaLaInIrO6
_chemical_formula_sum   'Ba36 La36 In36 Ir36 O216'
_cell_volume   5064.85365485
_cell_formula_units_Z   36
loop_
 _symmetry_equiv_pos_site_id
 _symmetry_equiv_pos_as_xyz
  1  'x, y, z'
loop_
 _atom_site_type_symbol
 _atom_site_label
 _atom_site_symmetry_multiplicity
 _atom_site_fract_x
 _atom_site_fract_y
 _atom_site_fract_z
 _atom_site_occupancy
  Ba  Ba0  1  0.33823864  0.84160749  0.62411538  1
  Ba  Ba1  1  0.50465609  0.67270300  0.62365321  1
  Ba  Ba2  1  0.50070699  0.98817379  0.37337056  1
  Ba  Ba3  1  0.33601656  0.82829967  0.87391256  1
  Ba  Ba4  1  0.83156235  0.33960040  0.62945529  1
  Ba  Ba5  1  0.83058413  0.00530090  0.12959736  1
  Ba  Ba6  1  0.16648790  0.65975189  0.37471383  1
  Ba  Ba7  1  0.33479868  0.15592543  0.37729743  1
  Ba  Ba8  1  0.17089835  0.01202477  0.62462587  1
  Ba  Ba9  1  0.33238088  0.17301940  0.62264274  1
  Ba  Ba10  1  1.00194652  0.84333767  0.12311883  1
  Ba  Ba11  1  -0.00329585  0.15662935  0.86938537  1
  Ba  Ba12  1  0.83264078  0.32135766  0.37102867  1
  Ba  Ba13  1  0.32855330  0.15965130  0.87179890  1
  Ba  Ba14  1  0.66779872  0.17675931  0.62860293  1
  Ba  Ba15  1  0.67024850  0.16019093  0.87272766  1
  Ba  Ba16  1  0.83384660  0.98824661  0.37943534  1
  Ba  Ba17  1  0.16616347  0.99118028  0.38076388  1
  Ba  Ba18  1  0.66461169  0.49133135  0.37382697  1
  Ba  Ba19  1  0.32918913  0.82650152  0.37515304  1
  Ba  Ba20  1  0.16191865  0.33766310  0.62250130  1
  Ba  Ba21  1  1.00099369  0.51037006  0.12503460  1
  Ba  Ba22  1  0.17155586  0.99490184  0.87218422  1
  Ba  Ba23  1  0.33340792  0.49036147  0.86941882  1
  Ba  Ba24  1  0.50026089  0.00729706  0.12682681  1
  Ba  Ba25  1  0.49869256  0.33701005  0.62564035  1
  Ba  Ba26  1  0.16707872  0.67092720  0.12263438  1
  Ba  Ba27  1  1.00340209  0.17585036  0.62400797  1
  Ba  Ba28  1  0.33366558  0.51250633  0.12431107  1
  Ba  Ba29  1  0.33028006  0.17233994  0.12440010  1
  Ba  Ba30  1  -0.00514718  0.82586554  0.37660555  1
  Ba  Ba31  1  0.66083386  0.48440300  0.87283563  1
  Ba  Ba32  1  0.83266577  0.32210893  0.87761060  1
  Ba  Ba33  1  0.66706554  0.50886570  0.12168345  1
  Ba  Ba34  1  0.49875963  0.32201373  0.87512999  1
  Ba  Ba35  1  0.66771681  0.82480302  0.37269218  1
  La  La36  1  0.67091619  0.18002839  0.12640736  1
  La  La37  1  0.33514117  0.51270092  0.62345575  1
  La  La38  1  0.83070309  0.34471875  0.12284414  1
  La  La39  1  0.32997563  0.84585325  0.12821321  1
  La  La40  1  0.49107294  0.68645156  0.12488850  1
  La  La41  1  0.50751098  0.65171212  0.87443150  1
  La  La42  1  -0.00414118  0.48493335  0.87916385  1
  La  La43  1  0.49226874  1.00022930  0.87399630  1
  La  La44  1  0.16791240  0.31673031  0.37440591  1
  La  La45  1  -0.00526348  0.48755707  0.37297326  1
  La  La46  1  0.00301439  0.82307617  0.87375930  1
  La  La47  1  -0.00511860  0.14715146  0.38275282  1
  La  La48  1  0.50075872  0.65941477  0.37602673  1
  La  La49  1  0.50480122  0.31567058  0.37603089  1
  La  La50  1  0.82691546  0.68427104  0.62428112  1
  La  La51  1  0.16705645  0.68462934  0.62636598  1
  La  La52  1  0.16727310  0.01005480  0.12834595  1
  La  La53  1  0.65995940  0.15328404  0.37782116  1
  La  La54  1  0.67214561  0.85333526  0.62128700  1
  La  La55  1  0.49673699  0.34763024  0.12352008  1
  La  La56  1  0.49445429  0.01579759  0.62473519  1
  La  La57  1  1.00557181  0.50811682  0.62262745  1
  La  La58  1  0.82730764  0.68277019  0.12534134  1
  La  La59  1  0.66898690  0.84992971  0.12827794  1
  La  La60  1  0.83830927  0.65665284  0.37822083  1
  La  La61  1  1.00765131  0.18002759  0.13110313  1
  La  La62  1  0.17582472  0.31659035  0.87107425  1
  La  La63  1  0.84056577  0.98752914  0.86969588  1
  La  La64  1  0.16809676  0.65270287  0.87293793  1
  La  La65  1  0.67473700  0.51318048  0.62949256  1
  La  La66  1  0.83714337  0.65022102  0.87302440  1
  La  La67  1  0.83269755  0.01806914  0.62286915  1
  La  La68  1  0.33010469  0.48990383  0.37607840  1
  La  La69  1  0.16244751  0.35132215  0.12693067  1
  La  La70  1  0.65770119  0.82486769  0.88116783  1
  La  La71  1  1.00552950  0.85397875  0.62411254  1
  In  In72  1  -0.00168684  0.66704360  0.74687269  1
  In  In73  1  0.00035654  0.66573342  0.50334971  1
  In  In74  1  0.50501186  0.83489300  0.74888434  1
  In  In75  1  0.83561066  0.16603903  0.25103169  1
  In  In76  1  0.83197281  0.83286683  -0.00547393  1
  In  In77  1  0.83257946  0.50246254  0.24788731  1
  In  In78  1  -0.00011311  -0.00013373  0.24912214  1
  In  In79  1  0.33311760  0.33454517  0.25135172  1
  In  In80  1  0.33102423  0.33207391  0.00126266  1
  In  In81  1  0.16478593  0.83092290  0.25101526  1
  In  In82  1  0.66897373  0.00369663  -0.00035545  1
  In  In83  1  0.67165496  0.67140437  0.75305578  1
  In  In84  1  0.66292938  0.66753104  0.24729810  1
  In  In85  1  0.33338398  0.66846292  0.49865775  1
  In  In86  1  0.83281857  0.83072496  0.25185392  1
  In  In87  1  0.50068963  0.16602438  0.24528684  1
  In  In88  1  0.33490621  0.66975842  -0.00431268  1
  In  In89  1  -0.00306779  0.33207211  0.49696755  1
  In  In90  1  0.83809002  0.16349281  0.00325427  1
  In  In91  1  -0.00153408  0.66820026  -0.00234503  1
  In  In92  1  0.16219212  0.16465658  0.00011015  1
  In  In93  1  0.66512014  0.33309936  0.24991536  1
  In  In94  1  0.66890126  -0.00030220  0.75149577  1
  In  In95  1  0.33441755  0.00012344  0.00072695  1
  In  In96  1  0.16614595  0.49878611  -0.00480800  1
  In  In97  1  0.33528869  -0.00276140  0.49886248  1
  In  In98  1  0.33167372  0.33473301  0.49984768  1
  In  In99  1  0.50149650  0.49815512  0.74529207  1
  In  In100  1  0.83122510  0.50017112  -0.00171489  1
  In  In101  1  0.50041980  0.49949113  0.50011445  1
  In  In102  1  0.49990620  0.50297100  0.00220646  1
  In  In103  1  0.16715193  0.83367642  -0.00290117  1
  In  In104  1  0.00055330  0.33436628  0.75199546  1
  In  In105  1  0.66629017  0.33544855  0.50221549  1
  In  In106  1  0.33461344  0.66918634  0.74855074  1
  In  In107  1  0.83488726  0.50071883  0.50211066  1
  Ir  Ir108  1  0.16471199  0.50119885  0.74318999  1
  Ir  Ir109  1  0.66317422  0.32826701  0.00134159  1
  Ir  Ir110  1  0.16262539  0.83702175  0.74602363  1
  Ir  Ir111  1  0.50292734  0.16496998  0.50141969  1
  Ir  Ir112  1  0.66410734  0.67235310  0.00123801  1
  Ir  Ir113  1  0.32796333  0.33230984  0.74672913  1
  Ir  Ir114  1  0.83662530  0.50016019  0.75251784  1
  Ir  Ir115  1  0.66347880  -0.00032344  0.25287995  1
  Ir  Ir116  1  0.83355873  0.83232078  0.50743139  1
  Ir  Ir117  1  0.49749578  0.16525512  0.75225185  1
  Ir  Ir118  1  0.16294332  0.16641892  0.49624757  1
  Ir  Ir119  1  0.16596939  0.50083761  0.49935003  1
  Ir  Ir120  1  0.83363045  0.16436400  0.74895480  1
  Ir  Ir121  1  -0.00023815  0.00025474  -0.00350247  1
  Ir  Ir122  1  0.50379106  0.16598017  -0.00127340  1
  Ir  Ir123  1  0.66595544  -0.00001606  0.50143219  1
  Ir  Ir124  1  0.16493086  0.16512885  0.74612377  1
  Ir  Ir125  1  0.16577836  0.16619794  0.25233030  1
  Ir  Ir126  1  -0.00257583  -0.00158611  0.50573238  1
  Ir  Ir127  1  0.83385793  0.83574359  0.74716618  1
  Ir  Ir128  1  0.50815181  0.83301840  0.49796530  1
  Ir  Ir129  1  0.83001252  0.16309582  0.50057352  1
  Ir  Ir130  1  0.33647304  0.66649792  0.25012052  1
  Ir  Ir131  1  0.66570740  0.33083137  0.75310774  1
  Ir  Ir132  1  0.49747080  0.83253981  0.25092896  1
  Ir  Ir133  1  0.50286187  0.83632201  0.00260990  1
  Ir  Ir134  1  0.00263195  0.33188811  0.00502428  1
  Ir  Ir135  1  0.33094534  -0.00173515  0.25016010  1
  Ir  Ir136  1  0.16391614  0.50056430  0.25740176  1
  Ir  Ir137  1  0.49493083  0.50336633  0.25218150  1
  Ir  Ir138  1  -0.00214967  0.66318834  0.25173605  1
  Ir  Ir139  1  -0.00087211  -0.00225097  0.75204295  1
  Ir  Ir140  1  0.67099885  0.67070061  0.49957723  1
  Ir  Ir141  1  0.16295034  0.83397792  0.50504956  1
  Ir  Ir142  1  0.00645886  0.33315548  0.25076766  1
  Ir  Ir143  1  0.33569353  0.00173985  0.74775685  1
  O  O144  1  0.29773107  0.33326790  0.12910117  1
  O  O145  1  0.31036140  0.32854842  0.62749030  1
  O  O146  1  0.31880743  0.67052576  0.12984320  1
  O  O147  1  0.29994151  0.65748311  0.62348360  1
  O  O148  1  0.30708611  0.99214890  0.13067768  1
  O  O149  1  0.32463386  1.00078357  0.62748735  1
  O  O150  1  0.63277430  0.32202283  0.12106430  1
  O  O151  1  0.65110857  0.33253669  0.63309653  1
  O  O152  1  0.62764517  0.66489734  0.11824889  1
  O  O153  1  0.65569292  0.66009058  0.62027017  1
  O  O154  1  0.64819709  0.98867778  0.13165147  1
  O  O155  1  0.63519634  0.99292445  0.62177520  1
  O  O156  1  0.96991173  0.32109537  0.12775000  1
  O  O157  1  0.98503791  0.33753260  0.62449214  1
  O  O158  1  0.96671375  0.66393296  0.12941816  1
  O  O159  1  0.96214896  0.64901415  0.62753817  1
  O  O160  1  0.98016039  1.00170858  0.11489317  1
  O  O161  1  0.96855770  0.99293314  0.63023591  1
  O  O162  1  0.17985344  0.15325172  0.13269689  1
  O  O163  1  0.18238533  0.17091545  0.62049175  1
  O  O164  1  0.18459714  0.49145013  0.13501524  1
  O  O165  1  0.19960279  0.49266651  0.62127033  1
  O  O166  1  0.19419273  0.82536098  0.12525929  1
  O  O167  1  0.18776673  0.82560839  0.62652165  1
  O  O168  1  0.53434950  0.16162971  0.11725480  1
  O  O169  1  0.51980886  0.15318346  0.62663049  1
  O  O170  1  0.51822788  0.48733070  0.13263679  1
  O  O171  1  0.54173157  0.49494191  0.62257868  1
  O  O172  1  0.53063133  0.82453686  0.12708912  1
  O  O173  1  0.53725261  0.82983761  0.61728926  1
  O  O174  1  0.87391894  0.16003807  0.12672289  1
  O  O175  1  0.85561959  0.15719018  0.62436876  1
  O  O176  1  0.85230739  0.48466157  0.12166781  1
  O  O177  1  0.86774647  0.49511147  0.63369064  1
  O  O178  1  0.85270846  0.81916428  0.12260482  1
  O  O179  1  0.86835029  0.82216784  0.62874618  1
  O  O180  1  0.13373343  0.17186537  0.37372140  1
  O  O181  1  0.14881168  0.16861776  0.86788375  1
  O  O182  1  0.13066197  0.50753610  0.37999391  1
  O  O183  1  0.13120232  0.51108805  0.86208385  1
  O  O184  1  0.14576553  0.83397288  0.38338137  1
  O  O185  1  0.13541840  0.84378729  0.86450356  1
  O  O186  1  0.48795697  0.17409213  0.37941451  1
  O  O187  1  0.47622957  0.16400776  0.87516919  1
  O  O188  1  0.46765790  0.51991542  0.37119476  1
  O  O189  1  0.48479174  0.51068722  0.87375863  1
  O  O190  1  0.47767938  0.83251505  0.37469181  1
  O  O191  1  0.48971765  0.85646986  0.88182009  1
  O  O192  1  0.79926103  0.16497302  0.38075876  1
  O  O193  1  0.82088790  0.16287907  0.87092287  1
  O  O194  1  0.81301474  0.52038406  0.37438037  1
  O  O195  1  0.80728599  0.50899923  0.87061153  1
  O  O196  1  0.81786010  0.82866828  0.38548091  1
  O  O197  1  0.79653473  0.84839374  0.86433173  1
  O  O198  1  0.01607634  0.00302605  0.38461561  1
  O  O199  1  0.02268671  -0.00198498  0.87366312  1
  O  O200  1  0.03548383  0.34778291  0.36959216  1
  O  O201  1  0.03490683  0.34188479  0.88365245  1
  O  O202  1  0.01535563  0.66914276  0.37245820  1
  O  O203  1  0.03287709  0.68249119  0.86692860  1
  O  O204  1  0.34892369  -0.00267219  0.37087236  1
  O  O205  1  0.35687712  0.00165349  0.86984348  1
  O  O206  1  0.36734710  0.34540507  0.37574554  1
  O  O207  1  0.34461134  0.33220592  0.86658173  1
  O  O208  1  0.36308970  0.66764578  0.36983850  1
  O  O209  1  0.37242850  0.67013037  0.87183237  1
  O  O210  1  0.68679795  0.01435355  0.37701353  1
  O  O211  1  0.70330173  0.00263641  0.87423152  1
  O  O212  1  0.68286411  0.33018318  0.37605733  1
  O  O213  1  0.68528779  0.32770652  0.87738241  1
  O  O214  1  0.69983901  0.67098518  0.37962779  1
  O  O215  1  0.70340540  0.68511067  0.88234310  1
  O  O216  1  0.05930405  0.09821968  0.01943869  1
  O  O217  1  0.06627749  0.09562959  0.50972078  1
  O  O218  1  0.07233155  0.41957910  0.02423409  1
  O  O219  1  0.07151408  0.43841208  0.51917396  1
  O  O220  1  0.06320438  0.77097947  0.00334137  1
  O  O221  1  0.07124753  0.76299772  0.53018278  1
  O  O222  1  0.41291240  0.09713590  0.01298701  1
  O  O223  1  0.41784694  0.08828255  0.51616719  1
  O  O224  1  0.41073893  0.42091560  0.02006491  1
  O  O225  1  0.39380448  0.43710865  0.52079138  1
  O  O226  1  0.40825616  0.77242278  0.02658406  1
  O  O227  1  0.41778454  0.76334749  0.51222073  1
  O  O228  1  0.73511292  0.10170319  0.02972687  1
  O  O229  1  0.73971317  0.08840666  0.52493578  1
  O  O230  1  0.73941310  0.41491481  0.01791833  1
  O  O231  1  0.73275221  0.43762045  0.52544897  1
  O  O232  1  0.72713705  0.76333757  0.02783276  1
  O  O233  1  0.73780614  0.76649322  0.52921216  1
  O  O234  1  0.09158336  0.26243432  0.03512544  1
  O  O235  1  0.09273530  0.25691377  0.50255398  1
  O  O236  1  0.09203262  0.59268506  0.00649631  1
  O  O237  1  0.10244153  0.59495207  0.53169728  1
  O  O238  1  0.09751787  0.94077690  0.02064363  1
  O  O239  1  0.08785963  0.92453556  0.52797530  1
  O  O240  1  0.43648176  0.25924649  0.02524085  1
  O  O241  1  0.42994809  0.25405403  0.50989428  1
  O  O242  1  0.43710015  0.60581643  0.02180480  1
  O  O243  1  0.42445986  0.59272426  0.51987659  1
  O  O244  1  0.43535050  0.92764985  0.01625481  1
  O  O245  1  0.44043920  0.92606700  0.52199712  1
  O  O246  1  0.75769929  0.26178934  0.02785319  1
  O  O247  1  0.76287489  0.25400147  0.51681207  1
  O  O248  1  0.76057989  0.60685611  0.02104575  1
  O  O249  1  0.76661535  0.60571868  0.52437312  1
  O  O250  1  0.75849544  0.92379432  0.01945820  1
  O  O251  1  0.76266425  0.92979440  0.53094020  1
  O  O252  1  0.23208212  0.06688318  0.26454469  1
  O  O253  1  0.24105983  0.07348920  0.76067535  1
  O  O254  1  0.23281772  0.40989625  0.28308262  1
  O  O255  1  0.23071654  0.40219099  0.77008763  1
  O  O256  1  0.24614532  0.73543484  0.26712828  1
  O  O257  1  0.22552031  0.73880486  0.76654404  1
  O  O258  1  0.57751311  0.07184506  0.26926857  1
  O  O259  1  0.56328749  0.06792465  0.76840525  1
  O  O260  1  0.55579297  0.40333274  0.27056950  1
  O  O261  1  0.57578295  0.40009746  0.76701851  1
  O  O262  1  0.56131330  0.73673305  0.27158131  1
  O  O263  1  0.57666674  0.74115579  0.78747998  1
  O  O264  1  0.91320479  0.07981228  0.28118530  1
  O  O265  1  0.89957012  0.06353261  0.76619006  1
  O  O266  1  0.91678200  0.40429834  0.26728552  1
  O  O267  1  0.90969766  0.41411719  0.78091821  1
  O  O268  1  0.89913515  0.72412405  0.26900444  1
  O  O269  1  0.89639612  0.74110698  0.77629445  1
  O  O270  1  0.25425597  0.23832397  0.27516294  1
  O  O271  1  0.25212972  0.24266791  0.76993853  1
  O  O272  1  0.26626082  0.56955536  0.27695339  1
  O  O273  1  0.24980421  0.57369779  0.76811583  1
  O  O274  1  0.26320978  0.90653798  0.26009764  1
  O  O275  1  0.26163264  0.90777519  0.76457232  1
  O  O276  1  0.60226486  0.23031739  0.26979183  1
  O  O277  1  0.59157438  0.23665043  0.76855291  1
  O  O278  1  0.58576250  0.57247002  0.27022393  1
  O  O279  1  0.59325494  0.58090735  0.76604418  1
  O  O280  1  0.59311749  0.90260954  0.26482371  1
  O  O281  1  0.61201511  0.89447327  0.76400293  1
  O  O282  1  0.94437399  0.23870074  0.27537078  1
  O  O283  1  0.92037025  0.23997084  0.76160495  1
  O  O284  1  0.93422236  0.57060243  0.27414499  1
  O  O285  1  0.92829007  0.56761368  0.78143876  1
  O  O286  1  0.92260041  0.90829781  0.26274877  1
  O  O287  1  0.92978631  0.90233612  0.77632937  1
  O  O288  1  0.24915337  0.24321922  0.47564469  1
  O  O289  1  0.25315949  0.24150847  0.98134300  1
  O  O290  1  0.26073641  0.56355145  0.47711141  1
  O  O291  1  0.25844113  0.57494324  0.97791385  1
  O  O292  1  0.25263417  0.90638507  0.49105756  1
  O  O293  1  0.26914011  0.89929270  0.99401543  1
  O  O294  1  0.59245876  0.23484385  0.48213196  1
  O  O295  1  0.59735021  0.23295246  0.98533336  1
  O  O296  1  0.59770357  0.58381660  0.47868135  1
  O  O297  1  0.59768110  0.58310267  0.97512370  1
  O  O298  1  0.60250323  0.90315286  0.48455653  1
  O  O299  1  0.60014967  0.89739531  0.98932249  1
  O  O300  1  0.92420484  0.22933129  0.47469265  1
  O  O301  1  0.93296352  0.24367337  0.98632959  1
  O  O302  1  0.93740914  0.56561842  0.47866170  1
  O  O303  1  0.92600997  0.57231879  0.96630202  1
  O  O304  1  0.93144052  0.89946736  0.49685271  1
  O  O305  1  0.93427863  0.90433432  0.96944476  1
  O  O306  1  0.24106178  0.08122688  0.48801739  1
  O  O307  1  0.23522260  0.06894922  0.99865890  1
  O  O308  1  0.22961783  0.40767488  0.46808091  1
  O  O309  1  0.22975635  0.39979493  0.97547251  1
  O  O310  1  0.23328775  0.74221707  0.49249927  1
  O  O311  1  0.23309748  0.73310023  0.96675528  1
  O  O312  1  0.57704789  0.07415984  0.47842272  1
  O  O313  1  0.56645175  0.06909902  0.97360668  1
  O  O314  1  0.56167658  0.39845847  0.47198001  1
  O  O315  1  0.57562160  0.40186449  0.99070943  1
  O  O316  1  0.57425227  0.73634632  0.47327934  1
  O  O317  1  0.56732308  0.73886101  0.97459873  1
  O  O318  1  0.90371337  0.06964150  0.48687269  1
  O  O319  1  0.90234959  0.05923942  0.97363906  1
  O  O320  1  0.90874104  0.40826559  0.47072408  1
  O  O321  1  0.91601059  0.40608542  0.98115913  1
  O  O322  1  0.89393890  0.73291615  0.48944266  1
  O  O323  1  0.89547477  0.73311395  0.96860954  1
  O  O324  1  0.10379547  0.26589540  0.22837578  1
  O  O325  1  0.09550715  0.25705960  0.74224930  1
  O  O326  1  0.09320711  0.59373956  0.23411727  1
  O  O327  1  0.09893353  0.59419747  0.71583755  1
  O  O328  1  0.09882554  0.93270796  0.22874868  1
  O  O329  1  0.08946570  0.92717206  0.72263956  1
  O  O330  1  0.43608887  0.26908100  0.22930133  1
  O  O331  1  0.42160494  0.26074410  0.73210433  1
  O  O332  1  0.43598746  0.60361883  0.22864220  1
  O  O333  1  0.41668081  0.58251473  0.71935620  1
  O  O334  1  0.42004717  0.92275011  0.22555754  1
  O  O335  1  0.43656014  0.93988190  0.73462891  1
  O  O336  1  0.76586765  0.26001617  0.21592327  1
  O  O337  1  0.76258599  0.25728443  0.73722154  1
  O  O338  1  0.76414774  0.60251836  0.22222518  1
  O  O339  1  0.77002848  0.59477442  0.72743809  1
  O  O340  1  0.74896991  0.92444919  0.23959478  1
  O  O341  1  0.77259730  0.92884301  0.71641017  1
  O  O342  1  0.07129567  0.10141200  0.23323828  1
  O  O343  1  0.07193669  0.09020417  0.72897565  1
  O  O344  1  0.07615904  0.42606480  0.22819584  1
  O  O345  1  0.07111604  0.43718938  0.72675487  1
  O  O346  1  0.06680381  0.75310525  0.23471341  1
  O  O347  1  0.06946606  0.76977023  0.72166435  1
  O  O348  1  0.40290658  0.09000614  0.23659541  1
  O  O349  1  0.40808489  0.09255145  0.72858574  1
  O  O350  1  0.40196754  0.43937691  0.23912348  1
  O  O351  1  0.39675540  0.42334186  0.72413934  1
  O  O352  1  0.40406196  0.76287288  0.22362854  1
  O  O353  1  0.41209432  0.76197231  0.73080819  1
  O  O354  1  0.72986435  0.09425032  0.23230212  1
  O  O355  1  0.74810225  0.09001362  0.72768378  1
  O  O356  1  0.74373831  0.42099992  0.22875596  1
  O  O357  1  0.73765380  0.43246080  0.72947176  1
  O  O358  1  0.73388515  0.76306795  0.22108174  1
  O  O359  1  0.74267807  0.76879164  0.71754516  1
