# generated using pymatgen
data_BaLaInIrO6
_symmetry_space_group_name_H-M   'P 1'
_cell_length_a   17.54331532
_cell_length_b   17.57990714
_cell_length_c   16.51219224
_cell_angle_alpha   89.97433667
_cell_angle_beta   90.03091220
_cell_angle_gamma   90.07489922
_symmetry_Int_Tables_number   1
_chemical_formula_structural   BaLaInIrO6
_chemical_formula_sum   'Ba36 La36 In36 Ir36 O216'
_cell_volume   5092.51720007
_cell_formula_units_Z   36
loop_
 _symmetry_equiv_pos_site_id
 _symmetry_equiv_pos_as_xyz
  1  'x, y, z'
loop_
 _atom_site_type_symbol
 _atom_site_label
 _atom_site_symmetry_multiplicity
 _atom_site_fract_x
 _atom_site_fract_y
 _atom_site_fract_z
 _atom_site_occupancy
  Ba  Ba0  1  0.16566229  0.32638610  0.37083749  1
  Ba  Ba1  1  0.33449080  0.84041072  0.12676247  1
  Ba  Ba2  1  0.49835515  0.67367492  0.12846349  1
  Ba  Ba3  1  0.00191387  0.49287891  0.87157791  1
  Ba  Ba4  1  0.83496832  0.99471255  0.88111051  1
  Ba  Ba5  1  0.16488211  0.66386249  0.87080330  1
  Ba  Ba6  1  0.83589906  0.65297833  0.37858509  1
  Ba  Ba7  1  1.00141351  0.17148122  0.62338983  1
  Ba  Ba8  1  1.00013741  0.83986469  0.62565366  1
  Ba  Ba9  1  0.16716530  0.00499256  0.12550736  1
  Ba  Ba10  1  1.00233802  0.51146022  0.12555603  1
  Ba  Ba11  1  0.16923013  0.99257580  0.87433652  1
  Ba  Ba12  1  -0.00172437  0.82354005  0.37666262  1
  Ba  Ba13  1  1.00058266  0.17348266  0.12251070  1
  Ba  Ba14  1  0.00353930  0.15752660  0.87695558  1
  Ba  Ba15  1  0.49716232  0.68085548  0.62363133  1
  Ba  Ba16  1  0.66909041  0.17930758  0.12625326  1
  Ba  Ba17  1  0.33656020  0.50453985  0.12746483  1
  Ba  Ba18  1  0.50236225  0.65486508  0.37903758  1
  Ba  Ba19  1  0.66431745  0.82322110  0.87622670  1
  Ba  Ba20  1  0.33169632  0.15211019  0.87128910  1
  Ba  Ba21  1  0.16511818  0.00495119  0.62171124  1
  Ba  Ba22  1  0.16574318  0.34139235  0.11971581  1
  Ba  Ba23  1  0.50398231  0.32611173  0.37405146  1
  Ba  Ba24  1  0.83828899  0.99097528  0.37527862  1
  Ba  Ba25  1  0.16436895  0.33578014  0.62720940  1
  Ba  Ba26  1  0.16718835  0.98697219  0.37448702  1
  Ba  Ba27  1  0.00180956  0.83229468  0.87563064  1
  Ba  Ba28  1  0.66568591  0.49205596  0.37845930  1
  Ba  Ba29  1  0.66280776  0.15336252  0.87431803  1
  Ba  Ba30  1  0.50247808  0.34061032  0.12557191  1
  Ba  Ba31  1  0.16621108  0.67416185  0.12487506  1
  Ba  Ba32  1  0.50340261  0.99004248  0.37282898  1
  Ba  Ba33  1  0.16691945  0.67519294  0.62507295  1
  Ba  Ba34  1  0.33361001  0.84102666  0.62358148  1
  Ba  Ba35  1  0.33182650  0.17240718  0.62178495  1
  La  La36  1  0.82889977  0.68236315  0.62664963  1
  La  La37  1  0.83225410  0.01415702  0.63037593  1
  La  La38  1  0.66325556  0.15008487  0.37399872  1
  La  La39  1  0.33606076  0.51756658  0.62493215  1
  La  La40  1  0.33971349  0.17668108  0.12804671  1
  La  La41  1  0.50684038  0.98341071  0.87124226  1
  La  La42  1  0.67014371  0.85137452  0.62223717  1
  La  La43  1  0.49236769  0.01218665  0.62294936  1
  La  La44  1  1.00006062  0.51548825  0.62298619  1
  La  La45  1  0.33028067  0.82070743  0.87401019  1
  La  La46  1  0.66796635  0.52005613  0.61819704  1
  La  La47  1  0.00151925  0.15112277  0.37796159  1
  La  La48  1  0.83932022  0.32307675  0.37264085  1
  La  La49  1  0.33020652  0.14299065  0.37167588  1
  La  La50  1  0.82999030  0.35235420  0.62348948  1
  La  La51  1  0.66968497  0.85289493  0.13482006  1
  La  La52  1  1.00472938  0.84355237  0.12532394  1
  La  La53  1  0.50297103  0.31646410  0.87571248  1
  La  La54  1  0.66660594  0.50800364  0.13542418  1
  La  La55  1  0.32477555  0.48559562  0.87537453  1
  La  La56  1  0.84047266  0.31584914  0.87070338  1
  La  La57  1  0.82531880  0.34999793  0.12490313  1
  La  La58  1  0.84166662  0.65725297  0.87836467  1
  La  La59  1  0.50423255  0.65210274  0.87499999  1
  La  La60  1  0.82910048  0.68179265  0.12713239  1
  La  La61  1  0.83096751  0.01735819  0.12873581  1
  La  La62  1  0.49181066  0.35488498  0.62541851  1
  La  La63  1  0.66137215  0.49020965  0.87328692  1
  La  La64  1  0.67207487  0.18002790  0.62207095  1
  La  La65  1  0.00256680  0.49304873  0.37133923  1
  La  La66  1  0.66241277  0.81592677  0.37754376  1
  La  La67  1  0.49204672  0.01107134  0.12179992  1
  La  La68  1  0.33142070  0.81831803  0.37519536  1
  La  La69  1  0.33201744  0.48749485  0.37633602  1
  La  La70  1  0.16897628  0.65790764  0.37342020  1
  La  La71  1  0.16930266  0.31560141  0.87845473  1
  In  In72  1  0.16553997  0.49653576  0.74826704  1
  In  In73  1  0.50311264  0.16596380  0.25088232  1
  In  In74  1  0.66765750  0.33789912  -0.00267222  1
  In  In75  1  0.16707000  0.16638883  0.24690029  1
  In  In76  1  0.66485493  0.33682671  0.74731995  1
  In  In77  1  0.33398526  0.33329921  0.74980660  1
  In  In78  1  0.50050772  0.83057165  0.00068661  1
  In  In79  1  0.66745125  0.66696684  -0.00014366  1
  In  In80  1  0.82890796  0.50370071  -0.00089054  1
  In  In81  1  0.33651337  0.66447145  0.24977364  1
  In  In82  1  0.82769297  0.50211472  0.74905042  1
  In  In83  1  0.33557402  0.32943199  0.25203719  1
  In  In84  1  0.83001667  0.83606217  0.00578765  1
  In  In85  1  0.66594454  0.33480726  0.50050184  1
  In  In86  1  0.66393843  0.00121489  0.00295040  1
  In  In87  1  -0.00338300  0.66720836  0.74965731  1
  In  In88  1  0.83115693  0.83363647  0.49785575  1
  In  In89  1  0.83197483  0.17092891  0.49896477  1
  In  In90  1  -0.00488200  0.33598091  -0.00221849  1
  In  In91  1  0.83267589  0.16982970  0.00071954  1
  In  In92  1  0.50292742  0.16749831  0.74728535  1
  In  In93  1  0.49851837  0.49712530  -0.00312639  1
  In  In94  1  0.50159137  0.16876710  0.49903648  1
  In  In95  1  0.16794640  0.83517095  0.74790920  1
  In  In96  1  0.16680952  0.50122732  0.25090701  1
  In  In97  1  0.16737465  0.16229211  0.74852537  1
  In  In98  1  0.16636118  0.49779865  0.50268165  1
  In  In99  1  0.16798209  0.16918787  0.49688941  1
  In  In100  1  0.16876071  0.83249104  0.00199272  1
  In  In101  1  0.82802838  0.83485641  0.75227941  1
  In  In102  1  -0.00071487  -0.00111122  0.24774941  1
  In  In103  1  -0.00330478  0.33270333  0.24812507  1
  In  In104  1  0.50166862  0.83470718  0.50025649  1
  In  In105  1  0.16646278  0.50327572  -0.00085773  1
  In  In106  1  -0.00072662  -0.00153276  0.50183887  1
  In  In107  1  0.66723291  0.66641933  0.25116611  1
  Ir  Ir108  1  0.33524618  0.66561554  0.49976072  1
  Ir  Ir109  1  0.66215845  -0.00094331  0.74464472  1
  Ir  Ir110  1  -0.00030301  0.66389604  0.49761241  1
  Ir  Ir111  1  -0.00600388  0.33064690  0.74551648  1
  Ir  Ir112  1  0.33589677  -0.00389588  0.49914695  1
  Ir  Ir113  1  -0.00651551  0.33710067  0.50144860  1
  Ir  Ir114  1  0.83326594  0.83210919  0.24883794  1
  Ir  Ir115  1  0.33878499  0.66670625  -0.00423648  1
  Ir  Ir116  1  0.66669609  0.66662845  0.50461217  1
  Ir  Ir117  1  -0.00055625  -0.00094622  0.00130015  1
  Ir  Ir118  1  0.83144618  0.16696666  0.74599313  1
  Ir  Ir119  1  0.49727623  0.50443770  0.75060975  1
  Ir  Ir120  1  0.33864511  0.00093915  -0.00027059  1
  Ir  Ir121  1  0.82982169  0.16919846  0.25326993  1
  Ir  Ir122  1  0.34287170  0.66687183  0.75132752  1
  Ir  Ir123  1  0.34104974  -0.00354811  0.74867101  1
  Ir  Ir124  1  0.66618249  0.00064690  0.50137177  1
  Ir  Ir125  1  0.66360126  0.66838754  0.74726327  1
  Ir  Ir126  1  0.67398930  0.33649604  0.25290991  1
  Ir  Ir127  1  0.50194685  0.83400600  0.74994618  1
  Ir  Ir128  1  0.66885313  -0.00168741  0.25456248  1
  Ir  Ir129  1  0.49608242  0.16462377  -0.00049388  1
  Ir  Ir130  1  0.16847756  0.82730816  0.49559624  1
  Ir  Ir131  1  0.33591938  -0.00621818  0.24843752  1
  Ir  Ir132  1  -0.00497672  0.00125490  0.75283833  1
  Ir  Ir133  1  0.83498603  0.50003968  0.25404099  1
  Ir  Ir134  1  0.49837024  0.50161507  0.50350035  1
  Ir  Ir135  1  -0.00293940  0.66928797  0.25153281  1
  Ir  Ir136  1  0.83619790  0.50023827  0.50022253  1
  Ir  Ir137  1  0.17347868  0.16317495  -0.00087118  1
  Ir  Ir138  1  0.16570240  0.82865097  0.25285155  1
  Ir  Ir139  1  0.33563487  0.32867757  -0.00296625  1
  Ir  Ir140  1  0.50266606  0.83577664  0.25241071  1
  Ir  Ir141  1  -0.00565928  0.66882514  0.00427066  1
  Ir  Ir142  1  0.33750385  0.33587549  0.49986187  1
  Ir  Ir143  1  0.50373352  0.49690427  0.25356946  1
  O  O144  1  0.31388353  0.31913663  0.11706910  1
  O  O145  1  0.31675028  0.33445788  0.61825543  1
  O  O146  1  0.32065383  0.66162592  0.11772410  1
  O  O147  1  0.31640894  0.65378716  0.62598445  1
  O  O148  1  0.31442848  0.99569713  0.12287213  1
  O  O149  1  0.31397775  0.99422906  0.62426117  1
  O  O150  1  0.65517392  0.33940790  0.13245950  1
  O  O151  1  0.62655192  0.31716300  0.62415561  1
  O  O152  1  0.64575904  0.64441148  0.12679719  1
  O  O153  1  0.64043689  0.65590821  0.62589909  1
  O  O154  1  0.63198102  0.99154492  0.13585573  1
  O  O155  1  0.63009319  0.99065146  0.62147900  1
  O  O156  1  0.95915149  0.33091520  0.12471288  1
  O  O157  1  0.96224604  0.32402862  0.62274689  1
  O  O158  1  0.96551631  0.66719331  0.12895915  1
  O  O159  1  0.96632355  0.65607149  0.61671002  1
  O  O160  1  0.97080733  0.98890133  0.12170780  1
  O  O161  1  0.96949431  1.00143399  0.63261294  1
  O  O162  1  0.20308904  0.16567387  0.11755717  1
  O  O163  1  0.18121207  0.17039699  0.62244653  1
  O  O164  1  0.18530913  0.50625096  0.12429558  1
  O  O165  1  0.20108562  0.49440967  0.62495217  1
  O  O166  1  0.18385959  0.83330755  0.13159401  1
  O  O167  1  0.18434828  0.83369525  0.61646102  1
  O  O168  1  0.51897903  0.15088013  0.12017213  1
  O  O169  1  0.53592531  0.15142227  0.62317890  1
  O  O170  1  0.52945762  0.49682587  0.13013976  1
  O  O171  1  0.53038420  0.49406077  0.62814248  1
  O  O172  1  0.53151547  0.83227606  0.13215455  1
  O  O173  1  0.53290310  0.83317052  0.62970467  1
  O  O174  1  0.84851479  0.16128404  0.13357983  1
  O  O175  1  0.84939879  0.15256036  0.62811392  1
  O  O176  1  0.85167741  0.48865000  0.13323158  1
  O  O177  1  0.86450831  0.49361215  0.61907061  1
  O  O178  1  0.86719851  0.82158723  0.13166833  1
  O  O179  1  0.84556883  0.82009491  0.62532078  1
  O  O180  1  0.13662457  0.17067803  0.37400915  1
  O  O181  1  0.15455525  0.16580582  0.87895918  1
  O  O182  1  0.13761591  0.51367375  0.37970242  1
  O  O183  1  0.15417971  0.51040027  0.87366417  1
  O  O184  1  0.14754602  0.81525807  0.37477452  1
  O  O185  1  0.15955797  0.83221296  0.87614866  1
  O  O186  1  0.46676069  0.16597161  0.37504273  1
  O  O187  1  0.47865568  0.17633802  0.87901880  1
  O  O188  1  0.46957014  0.49969214  0.37990555  1
  O  O189  1  0.46236983  0.51218999  0.86796034  1
  O  O190  1  0.47184666  0.83815942  0.37179871  1
  O  O191  1  0.47026407  0.84616266  0.86905483  1
  O  O192  1  0.79678358  0.18007604  0.37114678  1
  O  O193  1  0.81084064  0.17497203  0.86656058  1
  O  O194  1  0.81359600  0.50009420  0.37834077  1
  O  O195  1  0.79410443  0.52126669  0.87165061  1
  O  O196  1  0.79782163  0.83531730  0.36905100  1
  O  O197  1  0.81342454  0.83598917  0.87866840  1
  O  O198  1  0.01172118  0.01230765  0.37275603  1
  O  O199  1  0.01914921  0.00066293  0.87763375  1
  O  O200  1  0.01238520  0.35420761  0.38319686  1
  O  O201  1  0.02552133  0.33673920  0.86375568  1
  O  O202  1  0.03044946  0.66632173  0.37570455  1
  O  O203  1  0.00951572  0.67497389  0.88365034  1
  O  O204  1  0.35781743  0.00383586  0.37282219  1
  O  O205  1  0.37141825  0.00022591  0.87396397  1
  O  O206  1  0.35876182  0.34808715  0.38239176  1
  O  O207  1  0.36835030  0.34142577  0.87825589  1
  O  O208  1  0.35379214  0.67949746  0.38036758  1
  O  O209  1  0.36906619  0.68156339  0.87261570  1
  O  O210  1  0.69352990  0.01183846  0.37916508  1
  O  O211  1  0.68362070  -0.00190588  0.86572639  1
  O  O212  1  0.70189371  0.33879856  0.37328285  1
  O  O213  1  0.70495394  0.35258482  0.87032436  1
  O  O214  1  0.68651381  0.67563298  0.38151438  1
  O  O215  1  0.70032042  0.67119182  0.86387771  1
  O  O216  1  0.08116886  0.09117368  0.01976820  1
  O  O217  1  0.07419250  0.09208773  0.50911601  1
  O  O218  1  0.07513897  0.42289527  0.01285508  1
  O  O219  1  0.05811942  0.43211738  0.52498880  1
  O  O220  1  0.06270232  0.76252578  0.02509918  1
  O  O221  1  0.07172781  0.75609037  0.51810837  1
  O  O222  1  0.40320976  0.09623773  0.02757460  1
  O  O223  1  0.40871366  0.08525110  0.51894586  1
  O  O224  1  0.40343280  0.42013987  0.01590029  1
  O  O225  1  0.40245036  0.43472035  0.52700965  1
  O  O226  1  0.40019876  0.76309834  0.00924856  1
  O  O227  1  0.40401694  0.75816978  0.51191056  1
  O  O228  1  0.74250389  0.09106503  0.01794003  1
  O  O229  1  0.72884952  0.09736397  0.52260584  1
  O  O230  1  0.72311234  0.44575884  0.02266852  1
  O  O231  1  0.74021830  0.43516894  0.52832645  1
  O  O232  1  0.73033888  0.76875324  0.03723976  1
  O  O233  1  0.73166410  0.76152908  0.52359283  1
  O  O234  1  0.10134825  0.25293109  0.00568302  1
  O  O235  1  0.08487569  0.27089487  0.51055345  1
  O  O236  1  0.08642111  0.60260374  0.01350193  1
  O  O237  1  0.08741647  0.59404217  0.52025595  1
  O  O238  1  0.08514386  0.92403022  0.01751437  1
  O  O239  1  0.09663680  0.91637323  0.50785904  1
  O  O240  1  0.42436767  0.25424327  0.02259031  1
  O  O241  1  0.43409509  0.27190050  0.52613130  1
  O  O242  1  0.43180144  0.60077319  0.00744732  1
  O  O243  1  0.42437818  0.59039176  0.52333947  1
  O  O244  1  0.43303789  0.93784319  0.01811643  1
  O  O245  1  0.43023144  0.93087988  0.52246507  1
  O  O246  1  0.76553258  0.27136396  0.01967750  1
  O  O247  1  0.76430475  0.26637124  0.53246476  1
  O  O248  1  0.77366550  0.61051985  0.01924681  1
  O  O249  1  0.76596484  0.59677674  0.52778401  1
  O  O250  1  0.75960508  0.93130536  0.04023517  1
  O  O251  1  0.75750992  0.93552006  0.53008136  1
  O  O252  1  0.24909505  0.06681964  0.26822543  1
  O  O253  1  0.24937931  0.06569535  0.75996504  1
  O  O254  1  0.25026097  0.41264451  0.26858134  1
  O  O255  1  0.23894380  0.40419268  0.78295217  1
  O  O256  1  0.23701852  0.73851959  0.27179028  1
  O  O257  1  0.25552265  0.73944869  0.76484436  1
  O  O258  1  0.58384659  0.07600780  0.27396332  1
  O  O259  1  0.56926957  0.06358520  0.77031613  1
  O  O260  1  0.57925788  0.40552701  0.27000143  1
  O  O261  1  0.56190417  0.41174779  0.77601911  1
  O  O262  1  0.57635645  0.74884741  0.27506436  1
  O  O263  1  0.56647088  0.73477529  0.77557383  1
  O  O264  1  0.89906196  0.07894672  0.26317662  1
  O  O265  1  0.89741304  0.07020722  0.76448920  1
  O  O266  1  0.89576387  0.40469370  0.27433342  1
  O  O267  1  0.89610986  0.39457936  0.76279959  1
  O  O268  1  0.89882467  0.73628618  0.26771195  1
  O  O269  1  0.89116346  0.73029638  0.76235581  1
  O  O270  1  0.27077168  0.22727641  0.27210112  1
  O  O271  1  0.25263247  0.24605237  0.77111051  1
  O  O272  1  0.26044341  0.57621950  0.28584216  1
  O  O273  1  0.27900022  0.57115033  0.76646087  1
  O  O274  1  0.26447231  0.89499823  0.27525777  1
  O  O275  1  0.27379164  0.90404897  0.77010924  1
  O  O276  1  0.60715640  0.24031511  0.27229539  1
  O  O277  1  0.59194906  0.24549741  0.77851988  1
  O  O278  1  0.59189263  0.56933769  0.26861751  1
  O  O279  1  0.59620965  0.57151221  0.77553126  1
  O  O280  1  0.60447564  0.90036377  0.27620543  1
  O  O281  1  0.59449149  0.90411274  0.76838874  1
  O  O282  1  0.92148822  0.23537185  0.28488906  1
  O  O283  1  0.92190804  0.23858137  0.77225325  1
  O  O284  1  0.93230805  0.56706342  0.27450242  1
  O  O285  1  0.91990028  0.57430959  0.76881384  1
  O  O286  1  0.92135162  0.90181012  0.26394940  1
  O  O287  1  0.92277867  0.91426891  0.76422949  1
  O  O288  1  0.27546881  0.23997405  0.47398514  1
  O  O289  1  0.25905798  0.24155818  0.97131401  1
  O  O290  1  0.26702407  0.57377182  0.47865399  1
  O  O291  1  0.27537179  0.57148234  0.97579956  1
  O  O292  1  0.26488690  0.89577984  0.47328110  1
  O  O293  1  0.27336736  0.90663740  0.97791763  1
  O  O294  1  0.60531447  0.23048539  0.47297924  1
  O  O295  1  0.58542412  0.24007981  0.98323199  1
  O  O296  1  0.59755526  0.56891172  0.49073602  1
  O  O297  1  0.59538982  0.56915446  0.96599587  1
  O  O298  1  0.60762256  0.90096624  0.47994867  1
  O  O299  1  0.58985996  0.90926605  0.98236272  1
  O  O300  1  0.92990797  0.24433734  0.46890349  1
  O  O301  1  0.92336229  0.24293295  0.97357378  1
  O  O302  1  0.93636964  0.56420220  0.47745936  1
  O  O303  1  0.92807171  0.57754190  0.98162798  1
  O  O304  1  0.92300350  0.90715086  0.48695736  1
  O  O305  1  0.92935760  0.90982382  0.99002925  1
  O  O306  1  0.25117152  0.07257942  0.47740456  1
  O  O307  1  0.24502062  0.06880094  0.98408475  1
  O  O308  1  0.24824760  0.40744164  0.47586034  1
  O  O309  1  0.24603696  0.39907671  0.97130880  1
  O  O310  1  0.24043116  0.73266537  0.47411837  1
  O  O311  1  0.24821434  0.73638010  0.98198518  1
  O  O312  1  0.57791610  0.06830334  0.48011295  1
  O  O313  1  0.56012360  0.07000027  0.97874380  1
  O  O314  1  0.56662991  0.41002683  0.49143867  1
  O  O315  1  0.56910631  0.40316361  0.96405500  1
  O  O316  1  0.57962718  0.74089233  0.48207370  1
  O  O317  1  0.56620511  0.73153308  0.97433261  1
  O  O318  1  0.90728919  0.08158212  0.48376535  1
  O  O319  1  0.91136457  0.07186241  0.99676283  1
  O  O320  1  0.89249513  0.39760980  0.48569960  1
  O  O321  1  0.89202837  0.40358792  0.97100773  1
  O  O322  1  0.90879847  0.73324587  0.48643603  1
  O  O323  1  0.89783934  0.73099277  0.99043362  1
  O  O324  1  0.09173114  0.26147618  0.23003204  1
  O  O325  1  0.08368005  0.26098169  0.73801853  1
  O  O326  1  0.09053179  0.60542481  0.24182710  1
  O  O327  1  0.08382103  0.58372289  0.72402187  1
  O  O328  1  0.09102093  0.91469571  0.23485153  1
  O  O329  1  0.08473371  0.92957085  0.73746435  1
  O  O330  1  0.42551771  0.25250484  0.22449628  1
  O  O331  1  0.43520845  0.26906319  0.72822217  1
  O  O332  1  0.43054548  0.58435271  0.23922580  1
  O  O333  1  0.43403067  0.59786238  0.73181290  1
  O  O334  1  0.43465430  0.92871771  0.22503155  1
  O  O335  1  0.44103660  0.93248750  0.72812519  1
  O  O336  1  0.77095383  0.27205661  0.23190950  1
  O  O337  1  0.76472508  0.26030983  0.72033199  1
  O  O338  1  0.76816235  0.59257979  0.22911174  1
  O  O339  1  0.75381664  0.60154998  0.71548269  1
  O  O340  1  0.76358241  0.92757009  0.22221510  1
  O  O341  1  0.75380965  0.93193321  0.71665960  1
  O  O342  1  0.07446211  0.09085896  0.23217710  1
  O  O343  1  0.06941116  0.08660916  0.73883432  1
  O  O344  1  0.06661672  0.43254192  0.24572435  1
  O  O345  1  0.05893646  0.42317144  0.71998099  1
  O  O346  1  0.06490699  0.76462915  0.22765910  1
  O  O347  1  0.07719768  0.75572278  0.73734345  1
  O  O348  1  0.40508867  0.08543365  0.22566511  1
  O  O349  1  0.41075784  0.08644919  0.72656467  1
  O  O350  1  0.41714040  0.42440842  0.23945475  1
  O  O351  1  0.40405687  0.43888976  0.72393476  1
  O  O352  1  0.41110583  0.76455160  0.23964464  1
  O  O353  1  0.40850793  0.76696016  0.73601719  1
  O  O354  1  0.74082381  0.09079711  0.22809221  1
  O  O355  1  0.73293341  0.09482034  0.71866034  1
  O  O356  1  0.73955490  0.43317856  0.22930363  1
  O  O357  1  0.73218871  0.43389470  0.71288661  1
  O  O358  1  0.73987136  0.76581027  0.22524496  1
  O  O359  1  0.72401735  0.76219610  0.72005593  1
