# generated using pymatgen
data_BaLaInIrO6
_symmetry_space_group_name_H-M   'P 1'
_cell_length_a   17.52015895
_cell_length_b   17.55013042
_cell_length_c   16.48126692
_cell_angle_alpha   89.99826811
_cell_angle_beta   90.03122394
_cell_angle_gamma   89.98349008
_symmetry_Int_Tables_number   1
_chemical_formula_structural   BaLaInIrO6
_chemical_formula_sum   'Ba36 La36 In36 Ir36 O216'
_cell_volume   5067.67669913
_cell_formula_units_Z   36
loop_
 _symmetry_equiv_pos_site_id
 _symmetry_equiv_pos_as_xyz
  1  'x, y, z'
loop_
 _atom_site_type_symbol
 _atom_site_label
 _atom_site_symmetry_multiplicity
 _atom_site_fract_x
 _atom_site_fract_y
 _atom_site_fract_z
 _atom_site_occupancy
  Ba  Ba0  1  0.49800816  0.99329745  0.37722292  1
  Ba  Ba1  1  0.66747716  0.17258151  0.12704053  1
  Ba  Ba2  1  0.33374734  0.15939986  0.87462322  1
  Ba  Ba3  1  0.83108079  0.34285524  0.12274362  1
  Ba  Ba4  1  0.66405190  0.51391560  0.62268613  1
  Ba  Ba5  1  0.49697567  0.34316579  0.62223722  1
  Ba  Ba6  1  0.83620700  0.67857973  0.12202744  1
  Ba  Ba7  1  0.83067104  0.00674854  0.12604597  1
  Ba  Ba8  1  0.33548814  0.50655534  0.62365529  1
  Ba  Ba9  1  0.00097912  0.15484104  0.87559857  1
  Ba  Ba10  1  0.16833819  0.00736811  0.62566705  1
  Ba  Ba11  1  0.33493589  0.17456996  0.62268312  1
  Ba  Ba12  1  0.33667416  0.84477307  0.62753013  1
  Ba  Ba13  1  0.33347325  0.82568989  0.87653866  1
  Ba  Ba14  1  0.16899596  0.99317385  0.37632005  1
  Ba  Ba15  1  0.33228733  0.50487303  0.12854656  1
  Ba  Ba16  1  0.33441176  0.84229337  0.12328421  1
  Ba  Ba17  1  0.50294526  0.32653714  0.37691799  1
  Ba  Ba18  1  1.00022857  0.84134221  0.12383556  1
  Ba  Ba19  1  0.67114097  0.84349274  0.12647211  1
  Ba  Ba20  1  0.83535004  0.65913353  0.87747690  1
  Ba  Ba21  1  0.66373886  0.49288603  0.87623266  1
  Ba  Ba22  1  0.50227621  0.33932408  0.12588749  1
  Ba  Ba23  1  0.83369071  0.66081730  0.37073897  1
  Ba  Ba24  1  0.33039575  0.48633926  0.87580737  1
  Ba  Ba25  1  0.00031384  0.82318226  0.87404683  1
  Ba  Ba26  1  0.16877833  0.32053946  0.37104673  1
  Ba  Ba27  1  0.66635527  0.15835257  0.37746935  1
  Ba  Ba28  1  0.33261893  0.48169787  0.37716234  1
  Ba  Ba29  1  0.66477099  0.49475846  0.37336070  1
  Ba  Ba30  1  0.50022222  0.00872186  0.12503714  1
  Ba  Ba31  1  1.00769853  0.17491352  0.62370756  1
  Ba  Ba32  1  0.50228810  0.99372502  0.87405408  1
  Ba  Ba33  1  -0.00190697  0.82380252  0.37905961  1
  Ba  Ba34  1  1.00209420  0.50900247  0.12430530  1
  Ba  Ba35  1  -0.00269420  0.48992123  0.87982831  1
  La  La36  1  0.83184579  0.00958668  0.62287126  1
  La  La37  1  0.16844816  0.65288164  0.37246932  1
  La  La38  1  0.67421087  0.51272477  0.12339851  1
  La  La39  1  0.17333987  0.34186991  0.62371289  1
  La  La40  1  0.32410763  0.81795812  0.37062746  1
  La  La41  1  0.82787184  0.68604669  0.62340214  1
  La  La42  1  0.16073571  0.67842029  0.63012675  1
  La  La43  1  0.66544258  0.82376566  0.37405847  1
  La  La44  1  1.00315604  0.51432875  0.62617324  1
  La  La45  1  0.49427597  0.67511440  0.12466429  1
  La  La46  1  0.16979586  0.32148034  0.87440607  1
  La  La47  1  0.50340553  0.65562876  0.37626420  1
  La  La48  1  0.49390206  0.01917388  0.62515219  1
  La  La49  1  1.00324070  0.84698261  0.62717256  1
  La  La50  1  0.83787385  0.98337108  0.87650209  1
  La  La51  1  0.50207120  0.31783896  0.87174674  1
  La  La52  1  0.66604419  0.84546165  0.62375084  1
  La  La53  1  0.67129941  0.18333121  0.62634334  1
  La  La54  1  0.15732656  0.68003277  0.12493852  1
  La  La55  1  0.33546918  0.16068555  0.37671529  1
  La  La56  1  0.17339521  0.64824749  0.88383503  1
  La  La57  1  0.66479119  0.15486915  0.87699387  1
  La  La58  1  0.16182907  0.34714362  0.12052929  1
  La  La59  1  0.49417783  0.67833382  0.62663502  1
  La  La60  1  -0.00295864  0.14697971  0.37033923  1
  La  La61  1  0.50381571  0.65546588  0.87439200  1
  La  La62  1  0.17278182  0.98974351  0.87100285  1
  La  La63  1  0.33898757  0.18048988  0.12566691  1
  La  La64  1  -0.01315910  0.48475002  0.37692993  1
  La  La65  1  0.83856899  0.98122753  0.37046608  1
  La  La66  1  1.00039866  0.18016852  0.12194489  1
  La  La67  1  0.83502907  0.32095830  0.37376109  1
  La  La68  1  0.82523662  0.35202311  0.62967829  1
  La  La69  1  0.15908971  0.01471985  0.12521517  1
  La  La70  1  0.66174118  0.82245416  0.87686303  1
  La  La71  1  0.84035231  0.31859557  0.87726784  1
  In  In72  1  0.66520195  0.66866705  0.25166152  1
  In  In73  1  0.33138248  0.00144950  0.24656437  1
  In  In74  1  0.83550997  0.16535750  0.74897063  1
  In  In75  1  0.66607799  0.66898156  -0.00117357  1
  In  In76  1  0.33060494  0.66690703  0.75325938  1
  In  In77  1  0.16551764  0.49993806  0.25091760  1
  In  In78  1  0.16698540  0.16664370  0.74740062  1
  In  In79  1  0.16200098  0.49882360  0.49935844  1
  In  In80  1  -0.00128484  -0.00069936  0.50003891  1
  In  In81  1  -0.00169930  0.33456948  0.74753846  1
  In  In82  1  0.66946688  0.66868416  0.74731339  1
  In  In83  1  0.66771407  0.33588065  0.75350149  1
  In  In84  1  0.83689916  0.16551520  0.50131198  1
  In  In85  1  0.49988618  0.49907091  0.24894278  1
  In  In86  1  0.16684208  0.83141258  0.49911695  1
  In  In87  1  0.49814267  0.83399211  0.25437832  1
  In  In88  1  0.16653095  0.83632138  0.00109927  1
  In  In89  1  0.66591216  0.00140249  0.25369379  1
  In  In90  1  -0.00183721  0.33126999  0.50116896  1
  In  In91  1  0.49985078  0.83535902  -0.00034200  1
  In  In92  1  0.66882804  0.33683010  0.50225791  1
  In  In93  1  0.50052500  0.49703442  0.00027805  1
  In  In94  1  0.00230846  0.33102834  0.24886919  1
  In  In95  1  0.50000397  0.16442599  0.00113002  1
  In  In96  1  0.16710247  0.16651625  0.00056711  1
  In  In97  1  0.66709616  -0.00017922  0.74685316  1
  In  In98  1  -0.00081122  0.66630165  -0.00352092  1
  In  In99  1  0.49808389  0.50018818  0.75139745  1
  In  In100  1  0.83544801  0.16580649  0.24789973  1
  In  In101  1  0.16526097  0.83128936  0.75227028  1
  In  In102  1  0.00091654  0.66616450  0.25323631  1
  In  In103  1  0.16469310  0.49726055  0.74964472  1
  In  In104  1  0.66888073  0.33415954  0.24948512  1
  In  In105  1  0.33611638  -0.00141335  0.49897980  1
  In  In106  1  0.83284993  0.50527930  0.50176818  1
  In  In107  1  0.33075254  0.66513970  0.49853267  1
  Ir  Ir108  1  0.49597563  0.16856985  0.25152738  1
  Ir  Ir109  1  0.33203738  0.33184597  0.00058523  1
  Ir  Ir110  1  -0.00311398  -0.00342322  0.75447810  1
  Ir  Ir111  1  0.16834386  0.49660521  0.00044928  1
  Ir  Ir112  1  0.33451365  0.32733472  0.49794916  1
  Ir  Ir113  1  0.83419963  0.83573292  0.25115940  1
  Ir  Ir114  1  0.33736780  0.00117157  0.75262707  1
  Ir  Ir115  1  0.66500692  -0.00353664  0.50526105  1
  Ir  Ir116  1  0.49915680  0.50416729  0.50007148  1
  Ir  Ir117  1  -0.00539074  0.66649331  0.74521994  1
  Ir  Ir118  1  -0.00153405  0.00307190  0.00081716  1
  Ir  Ir119  1  0.16688598  0.16890659  0.49558811  1
  Ir  Ir120  1  0.83500626  0.83554281  0.74599127  1
  Ir  Ir121  1  0.33209243  0.66355699  0.00547082  1
  Ir  Ir122  1  0.16734879  0.83323213  0.25031719  1
  Ir  Ir123  1  0.32902163  0.00109597  -0.00204910  1
  Ir  Ir124  1  0.33113488  0.66758176  0.24835367  1
  Ir  Ir125  1  0.00066593  0.33217469  -0.00113900  1
  Ir  Ir126  1  0.50240317  0.16626134  0.75028736  1
  Ir  Ir127  1  0.83703090  0.50285585  0.75278865  1
  Ir  Ir128  1  0.83208922  0.50011498  0.24675358  1
  Ir  Ir129  1  0.00197274  -0.00035909  0.24529389  1
  Ir  Ir130  1  0.83158291  0.83947042  -0.00337674  1
  Ir  Ir131  1  -0.00284860  0.66759207  0.50624390  1
  Ir  Ir132  1  0.50340344  0.16507143  0.50093920  1
  Ir  Ir133  1  0.50146291  0.83260018  0.50350812  1
  Ir  Ir134  1  0.66208798  0.67346773  0.50269159  1
  Ir  Ir135  1  0.67352104  0.00203266  -0.00376670  1
  Ir  Ir136  1  0.83018669  0.83197150  0.50380717  1
  Ir  Ir137  1  0.83109267  0.49683424  -0.00064968  1
  Ir  Ir138  1  0.50286740  0.83429294  0.74875589  1
  Ir  Ir139  1  0.33114370  0.32602639  0.24947718  1
  Ir  Ir140  1  0.83357539  0.16589933  -0.00416515  1
  Ir  Ir141  1  0.16793378  0.16414183  0.24591144  1
  Ir  Ir142  1  0.33511081  0.32909469  0.75213284  1
  Ir  Ir143  1  0.67118898  0.33068134  -0.00442855  1
  O  O144  1  0.30069580  0.32148789  0.12455210  1
  O  O145  1  0.30686387  0.33003134  0.62617933  1
  O  O146  1  0.29479126  0.66330500  0.12712539  1
  O  O147  1  0.29759054  0.66746463  0.62449076  1
  O  O148  1  0.29840672  1.00152508  0.11692705  1
  O  O149  1  0.32176255  1.00370085  0.63131193  1
  O  O150  1  0.65221846  0.32916303  0.11433809  1
  O  O151  1  0.64611119  0.32290129  0.62814144  1
  O  O152  1  0.63483289  0.66294949  0.12526177  1
  O  O153  1  0.63296980  0.67499163  0.62106939  1
  O  O154  1  0.65326777  0.99753502  0.11752585  1
  O  O155  1  0.62966819  0.98280994  0.62218915  1
  O  O156  1  0.97924676  0.32072170  0.11877387  1
  O  O157  1  0.95769110  0.32517060  0.62451719  1
  O  O158  1  0.98842448  0.66630654  0.12460574  1
  O  O159  1  0.96101472  0.65734474  0.62512923  1
  O  O160  1  0.97840675  1.00283472  0.12314803  1
  O  O161  1  0.96807060  0.99068417  0.63254353  1
  O  O162  1  0.20023246  0.15602074  0.12647110  1
  O  O163  1  0.18413754  0.16445175  0.61707288  1
  O  O164  1  0.18545261  0.49071719  0.11997963  1
  O  O165  1  0.18825780  0.48276440  0.62450681  1
  O  O166  1  0.18593267  0.82132816  0.13019197  1
  O  O167  1  0.18627263  0.81652620  0.62638712  1
  O  O168  1  0.51472773  0.16872723  0.12956406  1
  O  O169  1  0.53290623  0.15867610  0.62497493  1
  O  O170  1  0.53585979  0.49904260  0.12312684  1
  O  O171  1  0.51427644  0.50073859  0.61979761  1
  O  O172  1  0.52053298  0.81619996  0.12559813  1
  O  O173  1  0.53245404  0.82016581  0.62595729  1
  O  O174  1  0.86552941  0.16245369  0.11548501  1
  O  O175  1  0.86258286  0.14206197  0.62528418  1
  O  O176  1  0.85358926  0.49746113  0.12243495  1
  O  O177  1  0.86692225  0.49301191  0.63381457  1
  O  O178  1  0.85300785  0.83841769  0.12631484  1
  O  O179  1  0.86690657  0.82632278  0.62507944  1
  O  O180  1  0.13531972  0.16846881  0.36798605  1
  O  O181  1  0.14997915  0.18331828  0.87477803  1
  O  O182  1  0.12604015  0.50968870  0.37503617  1
  O  O183  1  0.14818050  0.50150292  0.88074137  1
  O  O184  1  0.14679805  0.83779386  0.36877998  1
  O  O185  1  0.14719524  0.85539698  0.87577414  1
  O  O186  1  0.47053116  0.16684298  0.37683395  1
  O  O187  1  0.48409153  0.17345258  0.87210605  1
  O  O188  1  0.47835701  0.51317259  0.38061983  1
  O  O189  1  0.47554801  0.51741118  0.87703794  1
  O  O190  1  0.46299080  0.83713387  0.38733687  1
  O  O191  1  0.48204087  0.84124803  0.86740539  1
  O  O192  1  0.81629002  0.18244928  0.37610225  1
  O  O193  1  0.80064949  0.17301132  0.87738486  1
  O  O194  1  0.81613173  0.50479323  0.36654229  1
  O  O195  1  0.81094691  0.50451376  0.87692241  1
  O  O196  1  0.80337845  0.84062166  0.37913804  1
  O  O197  1  0.80082949  0.84463861  0.87043781  1
  O  O198  1  0.01988851  0.00310742  0.36660406  1
  O  O199  1  0.03143620  -0.00013650  0.87820211  1
  O  O200  1  0.02075445  0.35048337  0.37360433  1
  O  O201  1  0.03320686  0.33579755  0.88012736  1
  O  O202  1  0.02974903  0.66955114  0.38624253  1
  O  O203  1  0.02978954  0.66594286  0.86537867  1
  O  O204  1  0.34797459  0.02111295  0.37339773  1
  O  O205  1  0.35475176  0.00060390  0.87570499  1
  O  O206  1  0.35579616  0.31702032  0.37290940  1
  O  O207  1  0.36449324  0.33076260  0.87640453  1
  O  O208  1  0.36438989  0.67805397  0.36808892  1
  O  O209  1  0.36473636  0.66569301  0.88602278  1
  O  O210  1  0.69997214  0.00051853  0.38854579  1
  O  O211  1  0.69760342  0.01230163  0.87423515  1
  O  O212  1  0.70110451  0.33584727  0.37832943  1
  O  O213  1  0.70208264  0.33157039  0.87884658  1
  O  O214  1  0.68697652  0.67949695  0.38443274  1
  O  O215  1  0.69029663  0.68680035  0.87137102  1
  O  O216  1  0.06745387  0.09493827  0.02694926  1
  O  O217  1  0.07337027  0.09971073  0.50358500  1
  O  O218  1  0.07845804  0.41999878  0.02491296  1
  O  O219  1  0.06279516  0.43306528  0.52736172  1
  O  O220  1  0.08121076  0.75394389  0.01436085  1
  O  O221  1  0.06289124  0.75880827  0.53168212  1
  O  O222  1  0.39783935  0.09383122  0.02134607  1
  O  O223  1  0.41614234  0.09155464  0.51734961  1
  O  O224  1  0.40388144  0.41929143  0.01785600  1
  O  O225  1  0.40746379  0.42779471  0.51377926  1
  O  O226  1  0.40659030  0.74886150  0.02419988  1
  O  O227  1  0.41458261  0.76003218  0.52597795  1
  O  O228  1  0.73993791  0.09911336  0.01373802  1
  O  O229  1  0.73084977  0.08817401  0.53418042  1
  O  O230  1  0.73425985  0.42934275  0.02034298  1
  O  O231  1  0.74554542  0.42857647  0.52901143  1
  O  O232  1  0.74177561  0.76805163  0.01227249  1
  O  O233  1  0.73276646  0.76606664  0.52759763  1
  O  O234  1  0.09159245  0.26202148  0.02558478  1
  O  O235  1  0.10661873  0.26532848  0.51955905  1
  O  O236  1  0.10384155  0.59273372  0.01563691  1
  O  O237  1  0.09035552  0.60377532  0.53314496  1
  O  O238  1  0.09377265  0.93920790  0.02232176  1
  O  O239  1  0.08541235  0.91986555  0.52308975  1
  O  O240  1  0.42105004  0.25884689  0.01660120  1
  O  O241  1  0.42963518  0.25571423  0.51694044  1
  O  O242  1  0.42204174  0.59670331  0.03186954  1
  O  O243  1  0.43263364  0.59946836  0.51918620  1
  O  O244  1  0.42103383  0.93063353  0.01501636  1
  O  O245  1  0.44079308  0.92793586  0.52855233  1
  O  O246  1  0.76619955  0.26088464  0.01301619  1
  O  O247  1  0.76639162  0.26055261  0.53289479  1
  O  O248  1  0.75598015  0.58359532  0.02133047  1
  O  O249  1  0.75893280  0.60753153  0.52486269  1
  O  O250  1  0.76662217  0.93502032  0.00493582  1
  O  O251  1  0.75957010  0.92681905  0.53231024  1
  O  O252  1  0.22903833  0.07062569  0.25946312  1
  O  O253  1  0.24195863  0.06848363  0.77159319  1
  O  O254  1  0.24415145  0.40063844  0.26043636  1
  O  O255  1  0.23626156  0.39150715  0.76905987  1
  O  O256  1  0.23509346  0.73676427  0.27619475  1
  O  O257  1  0.23069986  0.73357437  0.78209670  1
  O  O258  1  0.56698390  0.07960130  0.26586623  1
  O  O259  1  0.57141700  0.07585451  0.76379824  1
  O  O260  1  0.57678029  0.40823283  0.26678639  1
  O  O261  1  0.56677840  0.39994868  0.77762846  1
  O  O262  1  0.57281003  0.74435700  0.28784837  1
  O  O263  1  0.56664365  0.74190036  0.77172158  1
  O  O264  1  0.90978253  0.06618141  0.27549439  1
  O  O265  1  0.90317000  0.06183718  0.77670298  1
  O  O266  1  0.89929813  0.40552106  0.27149741  1
  O  O267  1  0.89582747  0.40597979  0.77619851  1
  O  O268  1  0.90712548  0.74703088  0.26370595  1
  O  O269  1  0.90046028  0.73825829  0.76367085  1
  O  O270  1  0.26697129  0.22496605  0.26723383  1
  O  O271  1  0.26531223  0.24122062  0.76447141  1
  O  O272  1  0.26132782  0.58010153  0.27456713  1
  O  O273  1  0.25043494  0.57670907  0.77514691  1
  O  O274  1  0.26210310  0.89782621  0.27115696  1
  O  O275  1  0.26017793  0.91591326  0.76631559  1
  O  O276  1  0.58583037  0.23855451  0.26655156  1
  O  O277  1  0.59653438  0.23110519  0.77380402  1
  O  O278  1  0.58319147  0.58410442  0.27505147  1
  O  O279  1  0.59070904  0.58009569  0.76756414  1
  O  O280  1  0.59886074  0.90441023  0.27720588  1
  O  O281  1  0.60324533  0.89498181  0.76633936  1
  O  O282  1  0.94373411  0.22605143  0.26211000  1
  O  O283  1  0.92269100  0.24420447  0.78070821  1
  O  O284  1  0.93053240  0.56372903  0.27024718  1
  O  O285  1  0.93069625  0.57127413  0.76757952  1
  O  O286  1  0.92731114  0.90972313  0.27292180  1
  O  O287  1  0.92462542  0.90634043  0.77411517  1
  O  O288  1  0.26723931  0.23227003  0.47747841  1
  O  O289  1  0.25949817  0.24562019  0.98331067  1
  O  O290  1  0.25059310  0.57657628  0.47059923  1
  O  O291  1  0.25664783  0.57416622  0.97739597  1
  O  O292  1  0.26861201  0.90030492  0.47832415  1
  O  O293  1  0.25965434  0.91281105  0.97976294  1
  O  O294  1  0.59298311  0.23566100  0.49005781  1
  O  O295  1  0.60116389  0.23927136  0.97148020  1
  O  O296  1  0.58874927  0.58183968  0.47681516  1
  O  O297  1  0.58606988  0.58152835  0.97662826  1
  O  O298  1  0.60146203  0.89572401  0.48047845  1
  O  O299  1  0.60540573  0.90905021  0.97671031  1
  O  O300  1  0.94012740  0.22864358  0.46863415  1
  O  O301  1  0.92500988  0.24097762  0.97455135  1
  O  O302  1  0.93661123  0.57038647  0.48329455  1
  O  O303  1  0.92006591  0.57097726  0.98728908  1
  O  O304  1  0.91761149  0.90305327  0.48477550  1
  O  O305  1  0.92490512  0.91428784  0.97354181  1
  O  O306  1  0.23986175  0.08130051  0.48335121  1
  O  O307  1  0.23352565  0.06521557  0.97556366  1
  O  O308  1  0.24198004  0.39591766  0.48690980  1
  O  O309  1  0.23244722  0.39681754  0.98177877  1
  O  O310  1  0.23814118  0.73857300  0.46375383  1
  O  O311  1  0.24125036  0.73205543  0.98059045  1
  O  O312  1  0.57142279  0.06659516  0.48754601  1
  O  O313  1  0.58474387  0.07542460  0.98104065  1
  O  O314  1  0.57322541  0.41689350  0.48467454  1
  O  O315  1  0.57523889  0.39354882  0.97316933  1
  O  O316  1  0.56664128  0.73890145  0.47586795  1
  O  O317  1  0.57151960  0.74366929  0.96675268  1
  O  O318  1  0.89813382  0.06063656  0.47365874  1
  O  O319  1  0.90065697  0.07011254  0.97332839  1
  O  O320  1  0.89982953  0.40495503  0.47129852  1
  O  O321  1  0.90302776  0.40124684  0.97517719  1
  O  O322  1  0.89777096  0.73491358  0.48793669  1
  O  O323  1  0.90486646  0.75103500  0.98476360  1
  O  O324  1  0.10448510  0.25586611  0.21884385  1
  O  O325  1  0.10218630  0.26936864  0.72728083  1
  O  O326  1  0.10487204  0.60421444  0.23190956  1
  O  O327  1  0.08674822  0.59929145  0.72007169  1
  O  O328  1  0.10281547  0.93065753  0.22283947  1
  O  O329  1  0.08333770  0.92321804  0.72843092  1
  O  O330  1  0.41983438  0.25497709  0.22634399  1
  O  O331  1  0.43526756  0.26305573  0.74036448  1
  O  O332  1  0.42394472  0.60043887  0.22509302  1
  O  O333  1  0.42955080  0.60196368  0.72647371  1
  O  O334  1  0.42463290  0.92686405  0.23333899  1
  O  O335  1  0.43735878  0.93296020  0.72705091  1
  O  O336  1  0.76796933  0.26613360  0.23979322  1
  O  O337  1  0.76404806  0.26368701  0.72479962  1
  O  O338  1  0.75928630  0.58962698  0.22686466  1
  O  O339  1  0.77260153  0.59872528  0.72436288  1
  O  O340  1  0.76529172  0.92563047  0.24592716  1
  O  O341  1  0.76951402  0.92958193  0.72324494  1
  O  O342  1  0.07042087  0.09802515  0.21864048  1
  O  O343  1  0.07127976  0.08335120  0.73667443  1
  O  O344  1  0.08038931  0.41818398  0.22289588  1
  O  O345  1  0.06348899  0.43440459  0.72657428  1
  O  O346  1  0.07912369  0.76267882  0.23433987  1
  O  O347  1  0.06177445  0.75783288  0.72044695  1
  O  O348  1  0.40083713  0.10386039  0.22899444  1
  O  O349  1  0.41255778  0.09244250  0.73004389  1
  O  O350  1  0.40307793  0.41718211  0.23729983  1
  O  O351  1  0.40151395  0.42099938  0.73769708  1
  O  O352  1  0.40239049  0.75337272  0.22955541  1
  O  O353  1  0.41308952  0.76397790  0.73199601  1
  O  O354  1  0.74256872  0.09035749  0.23744901  1
  O  O355  1  0.73333709  0.09816851  0.72373496  1
  O  O356  1  0.73775198  0.43802395  0.22360327  1
  O  O357  1  0.74600964  0.43487166  0.73175014  1
  O  O358  1  0.74283629  0.76503895  0.24178230  1
  O  O359  1  0.74200585  0.76902486  0.71753765  1
