# generated using pymatgen
data_BaLaInIrO6
_symmetry_space_group_name_H-M   'P 1'
_cell_length_a   17.51685601
_cell_length_b   17.54193185
_cell_length_c   16.48128266
_cell_angle_alpha   89.93676520
_cell_angle_beta   90.00296133
_cell_angle_gamma   90.01512780
_symmetry_Int_Tables_number   1
_chemical_formula_structural   BaLaInIrO6
_chemical_formula_sum   'Ba36 La36 In36 Ir36 O216'
_cell_volume   5064.35693482
_cell_formula_units_Z   36
loop_
 _symmetry_equiv_pos_site_id
 _symmetry_equiv_pos_as_xyz
  1  'x, y, z'
loop_
 _atom_site_type_symbol
 _atom_site_label
 _atom_site_symmetry_multiplicity
 _atom_site_fract_x
 _atom_site_fract_y
 _atom_site_fract_z
 _atom_site_occupancy
  Ba  Ba0  1  0.50012173  0.32267126  0.88199655  1
  Ba  Ba1  1  0.50441412  0.32000800  0.37481359  1
  Ba  Ba2  1  -0.00324559  0.82023609  0.87663972  1
  Ba  Ba3  1  0.33195809  0.16201115  0.37542057  1
  Ba  Ba4  1  0.33376199  0.82555109  0.87239330  1
  Ba  Ba5  1  0.16479632  0.67432537  0.12347111  1
  Ba  Ba6  1  -0.00248362  0.15864420  0.37671778  1
  Ba  Ba7  1  0.67105112  0.17918368  0.13227499  1
  Ba  Ba8  1  0.16718663  0.00656799  0.62636044  1
  Ba  Ba9  1  0.83301356  0.34362873  0.61948600  1
  Ba  Ba10  1  0.83193254  0.67284660  0.62486224  1
  Ba  Ba11  1  1.00564528  0.50973315  0.12372094  1
  Ba  Ba12  1  0.16699241  0.34041680  0.12312235  1
  Ba  Ba13  1  0.66590115  0.15412445  0.37635592  1
  Ba  Ba14  1  0.83169272  0.00971722  0.12680840  1
  Ba  Ba15  1  0.99950359  0.50716507  0.62255552  1
  Ba  Ba16  1  -0.00008367  0.49391944  0.87131577  1
  Ba  Ba17  1  0.16617897  0.99209445  0.37787289  1
  Ba  Ba18  1  0.50651438  0.33842369  0.12939623  1
  Ba  Ba19  1  -0.00254642  0.82661539  0.37442253  1
  Ba  Ba20  1  0.16657596  0.65617636  0.87337190  1
  Ba  Ba21  1  0.16691221  0.32606087  0.37614838  1
  Ba  Ba22  1  0.50122403  0.01414446  0.12240564  1
  Ba  Ba23  1  0.33477030  0.84459042  0.62839824  1
  Ba  Ba24  1  0.33078951  0.16430326  0.87892715  1
  Ba  Ba25  1  0.50208341  0.65728137  0.37511852  1
  Ba  Ba26  1  0.49729212  0.00760283  0.62598561  1
  Ba  Ba27  1  0.83721134  0.65815904  0.87158566  1
  Ba  Ba28  1  0.49720593  0.67314114  0.12655299  1
  Ba  Ba29  1  0.83560753  0.99155937  0.37235446  1
  Ba  Ba30  1  0.83342646  0.65753365  0.37192605  1
  Ba  Ba31  1  0.16469145  0.32999742  0.87015581  1
  Ba  Ba32  1  0.16379071  0.67275063  0.62528776  1
  Ba  Ba33  1  0.66066043  0.82223146  0.87544511  1
  Ba  Ba34  1  0.16992658  0.34135837  0.62291479  1
  Ba  Ba35  1  0.49813947  0.67883911  0.61920372  1
  La  La36  1  0.49753665  0.34785065  0.62742479  1
  La  La37  1  0.00082864  0.48676965  0.37486601  1
  La  La38  1  0.66354081  0.48239865  0.37821270  1
  La  La39  1  0.83701700  0.98198147  0.88056008  1
  La  La40  1  1.00294945  0.17737138  0.12899257  1
  La  La41  1  0.66720282  0.48859403  0.87119748  1
  La  La42  1  0.32795063  0.48808272  0.87527558  1
  La  La43  1  0.82922934  0.68196407  0.12003458  1
  La  La44  1  0.82685858  0.35012508  0.12849730  1
  La  La45  1  0.32552999  0.82091373  0.38113912  1
  La  La46  1  0.82528358  0.01151601  0.61852402  1
  La  La47  1  0.67415463  0.18303920  0.62161348  1
  La  La48  1  0.67261544  0.51211437  0.12519206  1
  La  La49  1  -0.00514202  0.15722170  0.87363258  1
  La  La50  1  0.67517540  0.84976782  0.12045890  1
  La  La51  1  0.33676795  0.51614587  0.62670510  1
  La  La52  1  1.00311445  0.18247764  0.62093766  1
  La  La53  1  0.16098480  0.01238468  0.12399455  1
  La  La54  1  0.65399683  0.15034587  0.88430029  1
  La  La55  1  1.00210178  0.83886208  0.62627665  1
  La  La56  1  0.49830049  0.98722624  0.87870399  1
  La  La57  1  0.84021175  0.31767989  0.37598657  1
  La  La58  1  0.34079836  0.84926576  0.12638489  1
  La  La59  1  0.33947087  0.18388584  0.12998477  1
  La  La60  1  0.16764140  0.65466742  0.37643517  1
  La  La61  1  0.50356388  0.98754633  0.37547036  1
  La  La62  1  0.67506954  0.51391692  0.62059373  1
  La  La63  1  0.66243399  0.82476551  0.37525986  1
  La  La64  1  0.99773198  0.84616436  0.12544531  1
  La  La65  1  0.32930957  0.17096870  0.61881129  1
  La  La66  1  0.66783873  0.84991261  0.62429750  1
  La  La67  1  0.84201176  0.31978206  0.87444212  1
  La  La68  1  0.50444383  0.65045237  0.87116273  1
  La  La69  1  0.33777270  0.51002452  0.12189764  1
  La  La70  1  0.33102204  0.48739317  0.37192319  1
  La  La71  1  0.17188927  0.98346855  0.87352305  1
  In  In72  1  0.16691087  0.50184185  0.50088090  1
  In  In73  1  0.00140149  -0.00009960  0.25041167  1
  In  In74  1  0.83107929  0.83323742  0.74782789  1
  In  In75  1  0.66485950  0.00174182  0.25018715  1
  In  In76  1  0.33379323  0.00774071  0.75096544  1
  In  In77  1  0.50349511  0.49769341  -0.00068832  1
  In  In78  1  0.33532950  0.00087871  0.49773791  1
  In  In79  1  0.83178935  0.49699028  0.75024958  1
  In  In80  1  0.50135986  0.83211932  0.74869004  1
  In  In81  1  0.50302092  0.49765100  0.25151198  1
  In  In82  1  0.33414886  0.00113940  0.25175485  1
  In  In83  1  0.33027178  0.00425221  0.00125782  1
  In  In84  1  0.33399177  0.66707945  -0.00112545  1
  In  In85  1  -0.00019366  0.00159264  -0.00012748  1
  In  In86  1  0.83393026  0.50179942  0.49349890  1
  In  In87  1  -0.00220834  0.33413933  0.24800277  1
  In  In88  1  0.33625835  0.33046289  0.74984500  1
  In  In89  1  0.33250464  0.66620379  0.25139353  1
  In  In90  1  -0.00291151  0.00152880  0.75193756  1
  In  In91  1  0.16316856  0.16882163  -0.00103792  1
  In  In92  1  0.50172179  0.83200720  0.00561177  1
  In  In93  1  0.66672926  0.00132826  0.74970954  1
  In  In94  1  0.16669394  0.50113964  0.24821402  1
  In  In95  1  0.00040745  0.66467649  0.74888796  1
  In  In96  1  0.50298851  0.16742527  0.74921908  1
  In  In97  1  0.16879936  0.83082813  0.00161303  1
  In  In98  1  0.33734809  0.33358679  0.50063492  1
  In  In99  1  0.66709019  0.66644728  0.24919148  1
  In  In100  1  0.83134382  0.83078547  0.25136573  1
  In  In101  1  0.67270625  0.33311039  -0.00089454  1
  In  In102  1  0.66785087  0.33271061  0.75133578  1
  In  In103  1  0.83005473  0.16491331  0.75200643  1
  In  In104  1  0.50146145  0.50174717  0.50234086  1
  In  In105  1  -0.00408309  0.33481279  0.00058743  1
  In  In106  1  0.16935257  0.83165670  0.24967077  1
  In  In107  1  -0.00277545  -0.00111276  0.50371839  1
  Ir  Ir108  1  0.33372275  0.67013334  0.50045026  1
  Ir  Ir109  1  0.16440789  0.16757405  0.50070714  1
  Ir  Ir110  1  -0.00499579  0.66354393  0.00524713  1
  Ir  Ir111  1  0.66202238  0.66434150  0.74976531  1
  Ir  Ir112  1  0.16585501  0.83252871  0.74542141  1
  Ir  Ir113  1  0.00181372  0.33000488  0.74929810  1
  Ir  Ir114  1  0.50017693  0.83442358  0.25156353  1
  Ir  Ir115  1  0.66608846  0.67101781  0.50151098  1
  Ir  Ir116  1  0.83346366  0.50077087  0.24883222  1
  Ir  Ir117  1  0.66728668  0.66331578  -0.00519325  1
  Ir  Ir118  1  0.16956494  0.16752885  0.24956914  1
  Ir  Ir119  1  0.50009172  0.50169609  0.74911127  1
  Ir  Ir120  1  0.50781189  0.16612483  0.50085364  1
  Ir  Ir121  1  0.83211297  0.50238508  0.00409105  1
  Ir  Ir122  1  0.15975080  0.16803915  0.74776805  1
  Ir  Ir123  1  0.16413253  0.82954447  0.50321070  1
  Ir  Ir124  1  0.17080078  0.49846505  0.75037282  1
  Ir  Ir125  1  -0.00147530  0.33188362  0.50050397  1
  Ir  Ir126  1  0.83097111  0.83090214  0.50151555  1
  Ir  Ir127  1  0.33302381  0.33519060  0.00367348  1
  Ir  Ir128  1  0.83118175  0.16616208  0.50008261  1
  Ir  Ir129  1  0.67323564  0.33511057  0.25349711  1
  Ir  Ir130  1  0.67035182  0.00278192  -0.00115667  1
  Ir  Ir131  1  0.00042727  0.67046698  0.49389055  1
  Ir  Ir132  1  0.49867622  0.16810132  0.00565337  1
  Ir  Ir133  1  0.83509055  0.16987008  0.24880957  1
  Ir  Ir134  1  0.33399380  0.33366877  0.24845355  1
  Ir  Ir135  1  0.33583562  0.66462319  0.74697403  1
  Ir  Ir136  1  0.50137911  0.83283845  0.49470252  1
  Ir  Ir137  1  0.83084952  0.82995547  -0.00006867  1
  Ir  Ir138  1  0.66587393  0.33070793  0.49899694  1
  Ir  Ir139  1  0.82993754  0.16736104  -0.00075087  1
  Ir  Ir140  1  0.66564345  -0.00275802  0.49846940  1
  Ir  Ir141  1  0.16979731  0.49890087  -0.00340130  1
  Ir  Ir142  1  -0.00308585  0.66569675  0.24853609  1
  Ir  Ir143  1  0.49937842  0.16882497  0.25220462  1
  O  O144  1  0.31227662  0.32227992  0.12665538  1
  O  O145  1  0.31992691  0.30988357  0.62500070  1
  O  O146  1  0.31211288  0.64323546  0.12580885  1
  O  O147  1  0.31126139  0.65417475  0.62312760  1
  O  O148  1  0.29774870  0.98867923  0.12807240  1
  O  O149  1  0.31930684  1.00660014  0.62270673  1
  O  O150  1  0.65755463  0.33745000  0.13150686  1
  O  O151  1  0.63454937  0.32312798  0.62016555  1
  O  O152  1  0.64659440  0.65066172  0.11468896  1
  O  O153  1  0.64337053  0.64922006  0.62604763  1
  O  O154  1  0.65008224  0.99377147  0.12005373  1
  O  O155  1  0.64621835  0.99122588  0.61657969  1
  O  O156  1  0.96219568  0.32389788  0.12479351  1
  O  O157  1  0.97935305  0.32221551  0.62590167  1
  O  O158  1  0.96552263  0.65845131  0.12776065  1
  O  O159  1  0.98335005  0.66656273  0.61336703  1
  O  O160  1  0.97806388  0.98699581  0.12457305  1
  O  O161  1  0.96272640  0.98621480  0.62732711  1
  O  O162  1  0.19967616  0.15906029  0.13128636  1
  O  O163  1  0.19257713  0.16442221  0.62448870  1
  O  O164  1  0.19785689  0.50101994  0.11810353  1
  O  O165  1  0.19735127  0.50321023  0.62890150  1
  O  O166  1  0.20834268  0.82600943  0.12627356  1
  O  O167  1  0.18716380  0.82877836  0.62293929  1
  O  O168  1  0.52158146  0.17424806  0.12904100  1
  O  O169  1  0.53947684  0.16104058  0.61905248  1
  O  O170  1  0.53682652  0.49656086  0.12556916  1
  O  O171  1  0.53754352  0.49321434  0.63073020  1
  O  O172  1  0.53890948  0.83168497  0.13346401  1
  O  O173  1  0.53100738  0.83262673  0.61483149  1
  O  O174  1  0.86499573  0.16408583  0.12353569  1
  O  O175  1  0.86294340  0.15574396  0.62005295  1
  O  O176  1  0.85895171  0.48748698  0.12647320  1
  O  O177  1  0.84412256  0.50066463  0.61963386  1
  O  O178  1  0.85905143  0.82533485  0.11901474  1
  O  O179  1  0.86268359  0.83090405  0.61844871  1
  O  O180  1  0.14362046  0.17119227  0.37623178  1
  O  O181  1  0.12950616  0.17490539  0.86703947  1
  O  O182  1  0.13492728  0.50858023  0.37622874  1
  O  O183  1  0.14828863  0.49379794  0.87328438  1
  O  O184  1  0.14659901  0.83093343  0.38476405  1
  O  O185  1  0.14507556  0.83955109  0.86470985  1
  O  O186  1  0.48149791  0.16487031  0.37657876  1
  O  O187  1  0.48345862  0.16576805  0.88659033  1
  O  O188  1  0.46856790  0.49506367  0.37785451  1
  O  O189  1  0.46663259  0.50937451  0.86745842  1
  O  O190  1  0.46628416  0.84065732  0.37225544  1
  O  O191  1  0.49008028  0.84664060  0.87802946  1
  O  O192  1  0.81131262  0.18161275  0.37307199  1
  O  O193  1  0.79340163  0.18187687  0.88256834  1
  O  O194  1  0.79882465  0.50457666  0.36730932  1
  O  O195  1  0.80311928  0.50382089  0.88407723  1
  O  O196  1  0.80028694  0.83094395  0.38124838  1
  O  O197  1  0.80849540  0.83662297  0.87967496  1
  O  O198  1  0.01534916  0.00051431  0.37775480  1
  O  O199  1  0.03684787  0.01726416  0.87653849  1
  O  O200  1  0.01427298  0.33979398  0.37892372  1
  O  O201  1  0.01269831  0.32998589  0.87004429  1
  O  O202  1  0.02912714  0.67370722  0.37020501  1
  O  O203  1  0.01332387  0.66528358  0.88427144  1
  O  O204  1  0.36868162  0.00809059  0.37566525  1
  O  O205  1  0.36673478  0.01287415  0.87621158  1
  O  O206  1  0.35563655  0.34392424  0.36982778  1
  O  O207  1  0.35116969  0.34430519  0.88091433  1
  O  O208  1  0.35589163  0.68335452  0.38236693  1
  O  O209  1  0.36700193  0.66509804  0.86603879  1
  O  O210  1  0.68574039  -0.00555242  0.37901194  1
  O  O211  1  0.70068960  0.01229826  0.87841288  1
  O  O212  1  0.70224433  0.34165623  0.37681528  1
  O  O213  1  0.70825496  0.34928173  0.87584440  1
  O  O214  1  0.68577487  0.68695833  0.38113097  1
  O  O215  1  0.68870678  0.66935459  0.87170122  1
  O  O216  1  0.06766867  0.09745464  0.03588898  1
  O  O217  1  0.07182985  0.09800632  0.52480528  1
  O  O218  1  0.07954305  0.42676065  0.01258641  1
  O  O219  1  0.07159742  0.42114883  0.51287130  1
  O  O220  1  0.05904122  0.75920267  0.02569706  1
  O  O221  1  0.06581986  0.76547048  0.52295325  1
  O  O222  1  0.40191402  0.10497812  0.02922330  1
  O  O223  1  0.41215607  0.10532774  0.52104064  1
  O  O224  1  0.40160384  0.42683630  0.02135706  1
  O  O225  1  0.41167368  0.42636270  0.53925618  1
  O  O226  1  0.40250255  0.76505669  0.03004524  1
  O  O227  1  0.40401985  0.76613793  0.51645672  1
  O  O228  1  0.73734981  0.09967023  0.01721083  1
  O  O229  1  0.73760041  0.09267941  0.52678528  1
  O  O230  1  0.74125725  0.43726257  0.02841923  1
  O  O231  1  0.73004943  0.42733124  0.51492820  1
  O  O232  1  0.73513293  0.75947921  0.02633896  1
  O  O233  1  0.73197048  0.76739696  0.52514393  1
  O  O234  1  0.08074804  0.25307361  0.02775166  1
  O  O235  1  0.08646276  0.25444646  0.52462380  1
  O  O236  1  0.09475901  0.59153022  0.01581857  1
  O  O237  1  0.09357109  0.60369003  0.50543766  1
  O  O238  1  0.09328640  0.92405565  0.02799820  1
  O  O239  1  0.08889119  0.91533298  0.52631519  1
  O  O240  1  0.42390665  0.26016581  0.02850336  1
  O  O241  1  0.44336919  0.26053228  0.52404765  1
  O  O242  1  0.42663906  0.58795861  0.01493218  1
  O  O243  1  0.41878005  0.59370849  0.51926913  1
  O  O244  1  0.42311785  0.92578021  0.02328556  1
  O  O245  1  0.43533302  0.92429531  0.50832891  1
  O  O246  1  0.77331246  0.26578717  0.02585360  1
  O  O247  1  0.75688246  0.25618288  0.52024508  1
  O  O248  1  0.76406145  0.59621057  0.02629020  1
  O  O249  1  0.75161079  0.59558881  0.51442583  1
  O  O250  1  0.76158610  0.92650668  0.01874713  1
  O  O251  1  0.76074393  0.92534055  0.52709927  1
  O  O252  1  0.23689607  0.07793763  0.26756955  1
  O  O253  1  0.22418625  0.07458281  0.77400022  1
  O  O254  1  0.24877400  0.40812530  0.26771269  1
  O  O255  1  0.24740364  0.41410742  0.76447195  1
  O  O256  1  0.23435088  0.73353582  0.28038509  1
  O  O257  1  0.24392059  0.73835817  0.76477528  1
  O  O258  1  0.56515072  0.07268115  0.27007652  1
  O  O259  1  0.56703605  0.06542859  0.78251288  1
  O  O260  1  0.58555314  0.40658478  0.27728353  1
  O  O261  1  0.56860990  0.41187777  0.77321043  1
  O  O262  1  0.57344855  0.74857003  0.27246092  1
  O  O263  1  0.56695344  0.72670581  0.77030620  1
  O  O264  1  0.90738534  0.08276320  0.26290817  1
  O  O265  1  0.90267722  0.07623306  0.79052791  1
  O  O266  1  0.89676578  0.40721697  0.27548204  1
  O  O267  1  0.90421431  0.39514935  0.77022954  1
  O  O268  1  0.90278827  0.72885729  0.25607259  1
  O  O269  1  0.91012514  0.74421490  0.75839734  1
  O  O270  1  0.26078018  0.24149415  0.26731841  1
  O  O271  1  0.25276523  0.23553513  0.76320606  1
  O  O272  1  0.25882794  0.57130890  0.28692265  1
  O  O273  1  0.26837670  0.56563461  0.76940827  1
  O  O274  1  0.26980473  0.89952855  0.28032602  1
  O  O275  1  0.24958882  0.91175711  0.76542495  1
  O  O276  1  0.60016161  0.24228370  0.27044110  1
  O  O277  1  0.60619270  0.22979185  0.77627727  1
  O  O278  1  0.60460635  0.56751369  0.27630196  1
  O  O279  1  0.59274916  0.57001483  0.78011860  1
  O  O280  1  0.58693886  0.90578309  0.28174338  1
  O  O281  1  0.60247388  0.89955315  0.75269153  1
  O  O282  1  0.92104798  0.24221569  0.26946793  1
  O  O283  1  0.93377708  0.23657967  0.76997724  1
  O  O284  1  0.93330812  0.56383874  0.27435249  1
  O  O285  1  0.92303205  0.57273763  0.75940188  1
  O  O286  1  0.92543000  0.90304710  0.25814576  1
  O  O287  1  0.91842440  0.91463766  0.78247468  1
  O  O288  1  0.25439811  0.24023888  0.48688457  1
  O  O289  1  0.25953024  0.24738575  0.99056711  1
  O  O290  1  0.26593144  0.57946491  0.47485239  1
  O  O291  1  0.26363083  0.56270284  0.97483418  1
  O  O292  1  0.25892158  0.89878063  0.48247087  1
  O  O293  1  0.25339192  0.91352080  0.96946409  1
  O  O294  1  0.60190691  0.23313285  0.48559804  1
  O  O295  1  0.59739075  0.23432715  0.98406393  1
  O  O296  1  0.60116857  0.57411801  0.47876540  1
  O  O297  1  0.60203316  0.57221761  0.96700490  1
  O  O298  1  0.59745394  0.90146544  0.47209051  1
  O  O299  1  0.59805486  0.91436906  0.98531652  1
  O  O300  1  0.91970668  0.24413889  0.47906988  1
  O  O301  1  0.92113554  0.23268635  0.97041511  1
  O  O302  1  0.93635050  0.57330322  0.47037393  1
  O  O303  1  0.92508707  0.56818765  0.98593889  1
  O  O304  1  0.91776799  0.90141364  0.48405898  1
  O  O305  1  0.91856319  0.90595144  0.98005482  1
  O  O306  1  0.23806465  0.08070388  0.48584062  1
  O  O307  1  0.22664800  0.06954821  0.97599933  1
  O  O308  1  0.25227793  0.41832702  0.47787461  1
  O  O309  1  0.24408326  0.40973158  0.97598722  1
  O  O310  1  0.23724126  0.73770301  0.47630563  1
  O  O311  1  0.23874654  0.73634361  0.97769724  1
  O  O312  1  0.56897472  0.06367072  0.47499157  1
  O  O313  1  0.57271963  0.07167339  0.97615327  1
  O  O314  1  0.57989898  0.40509664  0.48066465  1
  O  O315  1  0.58482973  0.41296016  0.97210790  1
  O  O316  1  0.57571459  0.74615136  0.47589004  1
  O  O317  1  0.57081395  0.72668690  0.97602327  1
  O  O318  1  0.89825223  0.07521175  0.48679943  1
  O  O319  1  0.89682124  0.07478028  0.97155551  1
  O  O320  1  0.90907032  0.40499994  0.47281454  1
  O  O321  1  0.89309386  0.40401353  0.98111659  1
  O  O322  1  0.90239975  0.73908534  0.47961977  1
  O  O323  1  0.89623564  0.72935284  0.99289253  1
  O  O324  1  0.09080235  0.25082923  0.22879098  1
  O  O325  1  0.09116206  0.25847473  0.72146704  1
  O  O326  1  0.09041808  0.60160348  0.23907405  1
  O  O327  1  0.09497647  0.58426772  0.73625204  1
  O  O328  1  0.10071499  0.92866491  0.22384628  1
  O  O329  1  0.08881017  0.91696902  0.72817941  1
  O  O330  1  0.42403732  0.25937061  0.23083509  1
  O  O331  1  0.44357735  0.27365792  0.73452279  1
  O  O332  1  0.42263511  0.58600633  0.23435299  1
  O  O333  1  0.42635250  0.59091147  0.72217675  1
  O  O334  1  0.43169765  0.92287134  0.22842564  1
  O  O335  1  0.42829786  0.92923997  0.74385482  1
  O  O336  1  0.77064172  0.26986250  0.23267376  1
  O  O337  1  0.76334918  0.26121744  0.72572987  1
  O  O338  1  0.76841489  0.59235598  0.21978010  1
  O  O339  1  0.74893545  0.59346564  0.73430068  1
  O  O340  1  0.74780668  0.91659188  0.22847874  1
  O  O341  1  0.76359250  0.93051186  0.71995177  1
  O  O342  1  0.08050595  0.09638193  0.22207983  1
  O  O343  1  0.06428307  0.10448283  0.72346354  1
  O  O344  1  0.07266422  0.42631398  0.24015931  1
  O  O345  1  0.07576285  0.42504992  0.73010964  1
  O  O346  1  0.05880195  0.76216561  0.22371088  1
  O  O347  1  0.07496341  0.76181660  0.72659872  1
  O  O348  1  0.40638754  0.10252435  0.22739264  1
  O  O349  1  0.39796375  0.11170189  0.72584379  1
  O  O350  1  0.40038401  0.42548730  0.22518563  1
  O  O351  1  0.40876583  0.43497055  0.72172840  1
  O  O352  1  0.40577969  0.76825158  0.22803720  1
  O  O353  1  0.40572385  0.75384211  0.72990687  1
  O  O354  1  0.74722945  0.09505790  0.23862724  1
  O  O355  1  0.73631199  0.09528485  0.71535416  1
  O  O356  1  0.73785801  0.43416527  0.22682435  1
  O  O357  1  0.72770883  0.43684058  0.72860426  1
  O  O358  1  0.73795829  0.75770493  0.21530112  1
  O  O359  1  0.72599472  0.75971552  0.72372774  1
