# generated using pymatgen
data_BaLaInIrO6
_symmetry_space_group_name_H-M   'P 1'
_cell_length_a   17.51189913
_cell_length_b   17.53070123
_cell_length_c   16.49126577
_cell_angle_alpha   89.97561006
_cell_angle_beta   90.02879563
_cell_angle_gamma   90.00826480
_symmetry_Int_Tables_number   1
_chemical_formula_structural   BaLaInIrO6
_chemical_formula_sum   'Ba36 La36 In36 Ir36 O216'
_cell_volume   5062.74935925
_cell_formula_units_Z   36
loop_
 _symmetry_equiv_pos_site_id
 _symmetry_equiv_pos_as_xyz
  1  'x, y, z'
loop_
 _atom_site_type_symbol
 _atom_site_label
 _atom_site_symmetry_multiplicity
 _atom_site_fract_x
 _atom_site_fract_y
 _atom_site_fract_z
 _atom_site_occupancy
  Ba  Ba0  1  0.33084143  0.82274356  0.87537105  1
  Ba  Ba1  1  0.33123263  0.84352765  0.62309149  1
  Ba  Ba2  1  0.17131456  0.34346252  0.12522506  1
  Ba  Ba3  1  0.83163351  0.00852144  0.12366843  1
  Ba  Ba4  1  0.66711692  0.17250916  0.62388252  1
  Ba  Ba5  1  0.32869693  0.48657867  0.87390043  1
  Ba  Ba6  1  0.83488491  0.99155499  0.37103208  1
  Ba  Ba7  1  0.33320897  0.15536447  0.87974219  1
  Ba  Ba8  1  0.16436736  0.32946330  0.37307464  1
  Ba  Ba9  1  0.50179365  0.99307455  0.87771706  1
  Ba  Ba10  1  0.66867113  0.82745791  0.37285348  1
  Ba  Ba11  1  0.66734574  0.51249404  0.12330164  1
  Ba  Ba12  1  0.99751079  0.17289327  0.62335747  1
  Ba  Ba13  1  0.49757612  0.67619455  0.62267682  1
  Ba  Ba14  1  0.49556063  0.67792645  0.12393794  1
  Ba  Ba15  1  1.00326300  0.51004065  0.12495662  1
  Ba  Ba16  1  0.33073366  0.82305398  0.37810116  1
  Ba  Ba17  1  0.83184499  0.33802795  0.62710322  1
  Ba  Ba18  1  0.82692706  0.99990915  0.87455469  1
  Ba  Ba19  1  0.33105569  0.15706859  0.37377719  1
  Ba  Ba20  1  0.16493267  0.67506251  0.12029257  1
  Ba  Ba21  1  0.99731096  0.50181986  0.62810365  1
  Ba  Ba22  1  0.16449604  0.34005470  0.62012423  1
  Ba  Ba23  1  0.16002688  0.67272971  0.62395229  1
  Ba  Ba24  1  0.33525415  0.51406099  0.12182109  1
  Ba  Ba25  1  0.83586280  0.32530188  0.37550446  1
  Ba  Ba26  1  0.83293935  0.65797003  0.37645612  1
  Ba  Ba27  1  -0.00347014  0.49026582  0.37697509  1
  Ba  Ba28  1  0.00740903  0.16108820  0.87633327  1
  Ba  Ba29  1  0.50266368  0.66068896  0.37567814  1
  Ba  Ba30  1  0.66709610  0.49242817  0.37803118  1
  Ba  Ba31  1  0.00282502  0.49087977  0.87699685  1
  Ba  Ba32  1  0.83471059  0.67156382  0.62648182  1
  Ba  Ba33  1  0.83113401  0.32814923  0.87546652  1
  Ba  Ba34  1  0.66918115  0.50909810  0.62514113  1
  Ba  Ba35  1  0.66139593  0.48669015  0.87310560  1
  La  La36  1  0.49770789  0.01025904  0.62580837  1
  La  La37  1  0.83707588  0.00964171  0.62097021  1
  La  La38  1  0.33763447  0.18041317  0.62517043  1
  La  La39  1  0.49047197  0.35225961  0.12143024  1
  La  La40  1  0.65868486  0.82307239  0.87251850  1
  La  La41  1  0.50583233  0.32331615  0.37276301  1
  La  La42  1  0.17753793  0.98415843  0.87821607  1
  La  La43  1  -0.00482310  0.82277659  0.87558102  1
  La  La44  1  0.49932401  0.00929792  0.13004906  1
  La  La45  1  0.67165694  0.16249536  0.87483268  1
  La  La46  1  1.00143884  0.84689167  0.12614270  1
  La  La47  1  0.16325868  0.01458293  0.62638947  1
  La  La48  1  1.00868679  0.85084708  0.62110997  1
  La  La49  1  0.82731742  0.68475556  0.12642510  1
  La  La50  1  0.66821667  0.84735418  0.61962932  1
  La  La51  1  0.33910692  0.18408923  0.12689762  1
  La  La52  1  0.16974469  0.64915603  0.37418076  1
  La  La53  1  0.83029312  0.34660718  0.12606627  1
  La  La54  1  1.00158809  0.17803017  0.12359183  1
  La  La55  1  0.50551469  0.98583576  0.37891493  1
  La  La56  1  0.33526061  0.84689597  0.12202324  1
  La  La57  1  0.33750346  0.51769518  0.62427169  1
  La  La58  1  0.16661111  0.00991931  0.12739174  1
  La  La59  1  -0.00182547  0.15847737  0.37789698  1
  La  La60  1  0.50534300  0.31271840  0.87243279  1
  La  La61  1  0.16742593  0.32812444  0.87383955  1
  La  La62  1  0.66424246  0.15072265  0.37776332  1
  La  La63  1  0.17138825  0.98994943  0.37637136  1
  La  La64  1  0.66824796  0.84247962  0.12994427  1
  La  La65  1  0.17015471  0.64533136  0.87722068  1
  La  La66  1  0.67051259  0.17613481  0.12378288  1
  La  La67  1  0.83659876  0.64998077  0.87390427  1
  La  La68  1  -0.00614202  0.81801975  0.37431287  1
  La  La69  1  0.49947504  0.65236236  0.87542654  1
  La  La70  1  0.32868738  0.49330455  0.37049792  1
  La  La71  1  0.49430276  0.34750248  0.62658008  1
  In  In72  1  0.16847707  0.16755137  0.49826674  1
  In  In73  1  0.83212070  0.83795406  0.75157720  1
  In  In74  1  0.33669612  0.33399098  0.25414550  1
  In  In75  1  0.66227181  0.33019937  0.00396044  1
  In  In76  1  0.66621975  0.67168829  0.75088574  1
  In  In77  1  0.32968396  0.67135330  0.24821113  1
  In  In78  1  0.16592841  0.83347274  0.25156820  1
  In  In79  1  0.83128336  0.49854362  0.75229126  1
  In  In80  1  0.83399244  0.50175510  0.00285061  1
  In  In81  1  0.66270943  0.33006754  0.74536898  1
  In  In82  1  0.17066246  0.49599259  0.74517947  1
  In  In83  1  0.49675212  0.16665887  0.49807442  1
  In  In84  1  0.33037699  0.66813995  0.75013051  1
  In  In85  1  0.00133614  0.66971445  0.75343526  1
  In  In86  1  0.66559748  0.66920251  0.50121803  1
  In  In87  1  0.83496261  0.50130975  0.24952221  1
  In  In88  1  0.66555318  0.66740830  0.25022751  1
  In  In89  1  0.83109723  0.83872114  -0.00489593  1
  In  In90  1  0.83255800  0.16490279  0.25005448  1
  In  In91  1  0.49854474  0.83470267  0.74940983  1
  In  In92  1  0.49744256  0.49770208  0.49874879  1
  In  In93  1  0.17142383  0.16486873  0.00216339  1
  In  In94  1  0.33296350  0.00130698  0.74896337  1
  In  In95  1  0.50028757  0.16180016  0.00420334  1
  In  In96  1  0.66613661  0.67221000  0.00096685  1
  In  In97  1  0.49680121  0.83626744  0.24896234  1
  In  In98  1  0.83404931  0.16533699  0.75115000  1
  In  In99  1  -0.00030025  0.33013821  0.24836510  1
  In  In100  1  0.00062376  0.67094187  0.00027056  1
  In  In101  1  0.16316432  0.83251469  0.75166288  1
  In  In102  1  0.49819600  0.50077169  0.25035008  1
  In  In103  1  0.00134227  0.66422273  0.49876307  1
  In  In104  1  0.16786467  0.16507542  0.24821607  1
  In  In105  1  0.83714567  0.83581662  0.50141850  1
  In  In106  1  0.00204417  0.33059349  0.75209927  1
  In  In107  1  0.00319543  0.00107137  0.75790270  1
  Ir  Ir108  1  0.49728062  0.83934416  0.50079535  1
  Ir  Ir109  1  0.00117029  0.32808799  0.00270648  1
  Ir  Ir110  1  0.66376703  0.00078415  0.25076864  1
  Ir  Ir111  1  0.49910144  0.83762310  0.00000459  1
  Ir  Ir112  1  0.33209079  0.67097856  -0.00276067  1
  Ir  Ir113  1  0.33557287  0.33602801  0.50501364  1
  Ir  Ir114  1  0.33050844  -0.00296519  0.00728176  1
  Ir  Ir115  1  0.33867580  0.32765790  0.74972405  1
  Ir  Ir116  1  0.16531850  0.50233188  0.25000163  1
  Ir  Ir117  1  0.17196816  0.49715135  0.49364954  1
  Ir  Ir118  1  0.83717997  0.16471190  0.00508843  1
  Ir  Ir119  1  0.49942644  0.16307832  0.74807842  1
  Ir  Ir120  1  0.83924116  0.83698541  0.24780198  1
  Ir  Ir121  1  0.00379993  0.00177338  0.49388917  1
  Ir  Ir122  1  0.00561687  0.00080365  0.00498637  1
  Ir  Ir123  1  0.83132570  0.16331933  0.49622228  1
  Ir  Ir124  1  0.83311825  0.49433063  0.49975723  1
  Ir  Ir125  1  0.17527181  0.16736923  0.75071078  1
  Ir  Ir126  1  0.66176509  -0.00069704  0.00359038  1
  Ir  Ir127  1  0.49484757  0.49904627  -0.00700127  1
  Ir  Ir128  1  0.66569174  0.32703098  0.49352872  1
  Ir  Ir129  1  0.16634170  0.83718308  0.00359134  1
  Ir  Ir130  1  0.66499404  0.00052309  0.50018395  1
  Ir  Ir131  1  0.49433653  0.49569442  0.75163436  1
  Ir  Ir132  1  0.00071216  0.67157845  0.24902349  1
  Ir  Ir133  1  0.33428295  0.00193544  0.25232637  1
  Ir  Ir134  1  0.16881928  0.49560297  0.00315850  1
  Ir  Ir135  1  0.66152667  0.32521112  0.24958925  1
  Ir  Ir136  1  0.32936110  0.66808091  0.49720265  1
  Ir  Ir137  1  0.16361577  0.83826050  0.49779377  1
  Ir  Ir138  1  0.00381346  -0.00011785  0.24740181  1
  Ir  Ir139  1  0.33113795  -0.00024429  0.49758563  1
  Ir  Ir140  1  0.66282231  0.00270968  0.74845068  1
  Ir  Ir141  1  0.50319183  0.16431309  0.25090025  1
  Ir  Ir142  1  0.00006645  0.33234347  0.49921705  1
  Ir  Ir143  1  0.33879219  0.33223428  -0.00327553  1
  O  O144  1  0.32445709  0.32520674  0.11786188  1
  O  O145  1  0.31285768  0.31813323  0.62782055  1
  O  O146  1  0.31374351  0.67489967  0.11626730  1
  O  O147  1  0.31020556  0.66158406  0.61724284  1
  O  O148  1  0.30294669  0.98836022  0.13014120  1
  O  O149  1  0.29981167  1.00040454  0.61716162  1
  O  O150  1  0.62688637  0.31463368  0.13164484  1
  O  O151  1  0.63194873  0.32601666  0.61351329  1
  O  O152  1  0.64391752  0.67720074  0.12475339  1
  O  O153  1  0.64625521  0.66655953  0.62581305  1
  O  O154  1  0.63577895  0.98381893  0.12780762  1
  O  O155  1  0.63434004  0.98958569  0.62384175  1
  O  O156  1  0.96708005  0.31795964  0.11992833  1
  O  O157  1  0.98693311  0.32991441  0.61847481  1
  O  O158  1  0.96936842  0.67383090  0.12974431  1
  O  O159  1  0.99067998  0.66159796  0.62410745  1
  O  O160  1  0.97811961  0.98425919  0.12698560  1
  O  O161  1  0.97425070  0.99214885  0.61314760  1
  O  O162  1  0.20765087  0.14720947  0.12515724  1
  O  O163  1  0.19948222  0.15449917  0.62773052  1
  O  O164  1  0.18526260  0.50366403  0.12732201  1
  O  O165  1  0.20164628  0.49547297  0.61251436  1
  O  O166  1  0.19886585  0.83259952  0.12265113  1
  O  O167  1  0.18176947  0.82983036  0.61627582  1
  O  O168  1  0.53267238  0.14864197  0.13397457  1
  O  O169  1  0.51480320  0.15507449  0.62615786  1
  O  O170  1  0.51537155  0.48913396  0.11329923  1
  O  O171  1  0.51630575  0.48507529  0.63177050  1
  O  O172  1  0.52649463  0.83992819  0.11823735  1
  O  O173  1  0.52814611  0.83925822  0.61944514  1
  O  O174  1  0.86543384  0.16158606  0.12343869  1
  O  O175  1  0.84768396  0.15124706  0.61641742  1
  O  O176  1  0.85359216  0.48196261  0.12544962  1
  O  O177  1  0.84509239  0.49811960  0.61853881  1
  O  O178  1  0.86655531  0.83112061  0.12775944  1
  O  O179  1  0.87159701  0.84787708  0.62582780  1
  O  O180  1  0.13784591  0.16706766  0.37326429  1
  O  O181  1  0.16166268  0.18460718  0.87367313  1
  O  O182  1  0.14542252  0.50520985  0.37123127  1
  O  O183  1  0.15918837  0.49231691  0.88272019  1
  O  O184  1  0.13340966  0.85258818  0.37847495  1
  O  O185  1  0.13406961  0.85177643  0.88457926  1
  O  O186  1  0.47763222  0.18166169  0.36956177  1
  O  O187  1  0.48400345  0.16952389  0.87234145  1
  O  O188  1  0.46481672  0.48725182  0.37606977  1
  O  O189  1  0.47406803  0.51046364  0.87252912  1
  O  O190  1  0.47731641  0.84959789  0.38019399  1
  O  O191  1  0.47902608  0.84410049  0.88230750  1
  O  O192  1  0.80123630  0.16503989  0.37679798  1
  O  O193  1  0.80769672  0.16618407  0.88575133  1
  O  O194  1  0.81935158  0.49200250  0.37909631  1
  O  O195  1  0.80884694  0.50604194  0.88037514  1
  O  O196  1  0.82001982  0.83838409  0.36785714  1
  O  O197  1  0.79032670  0.85138644  0.87425868  1
  O  O198  1  0.03529394  0.01721973  0.36911237  1
  O  O199  1  0.04114828  0.00783218  0.88684708  1
  O  O200  1  0.01501638  0.32965703  0.37942350  1
  O  O201  1  0.03388956  0.33033344  0.88422640  1
  O  O202  1  0.03274484  0.67826686  0.36961964  1
  O  O203  1  0.04199749  0.69002716  0.87982665  1
  O  O204  1  0.36720525  0.00390595  0.37454759  1
  O  O205  1  0.34926678  0.00027020  0.88578453  1
  O  O206  1  0.36746414  0.34393205  0.38455602  1
  O  O207  1  0.36968695  0.33009026  0.87200438  1
  O  O208  1  0.34950567  0.66647733  0.37929981  1
  O  O209  1  0.36118520  0.66783946  0.87909429  1
  O  O210  1  0.68751873  0.01377448  0.37526894  1
  O  O211  1  0.67462371  0.02262582  0.87819731  1
  O  O212  1  0.68750026  0.32909936  0.37085509  1
  O  O213  1  0.67268152  0.32287470  0.87676782  1
  O  O214  1  0.68461882  0.67322008  0.37610446  1
  O  O215  1  0.69955697  0.68818250  0.87858540  1
  O  O216  1  0.07312767  0.09156854  0.03361191  1
  O  O217  1  0.07681491  0.08685264  0.52031404  1
  O  O218  1  0.07483798  0.42010671  0.02437024  1
  O  O219  1  0.07529185  0.42523232  0.51513144  1
  O  O220  1  0.07133165  0.77543881  0.02741063  1
  O  O221  1  0.06940662  0.77517200  0.51264930  1
  O  O222  1  0.39734408  0.09226460  0.03242454  1
  O  O223  1  0.39937027  0.09135136  0.52284600  1
  O  O224  1  0.40394929  0.42585367  0.01489369  1
  O  O225  1  0.40309993  0.42414650  0.53590019  1
  O  O226  1  0.40048772  0.77219881  0.02162116  1
  O  O227  1  0.40438476  0.76436765  0.51804483  1
  O  O228  1  0.73171405  0.09887209  0.02371592  1
  O  O229  1  0.74170408  0.08757938  0.52157693  1
  O  O230  1  0.74317329  0.41474747  0.02425737  1
  O  O231  1  0.73786106  0.41705693  0.51651517  1
  O  O232  1  0.73860227  0.77103330  0.03478277  1
  O  O233  1  0.73964048  0.76757242  0.52446017  1
  O  O234  1  0.08922508  0.25453074  0.02376370  1
  O  O235  1  0.08669930  0.25852744  0.51146998  1
  O  O236  1  0.09877530  0.58867453  0.00728883  1
  O  O237  1  0.10170210  0.58876353  0.50311548  1
  O  O238  1  0.10196412  0.93369824  0.03134659  1
  O  O239  1  0.09856299  0.93432540  0.52440261  1
  O  O240  1  0.43500722  0.26559877  0.01794914  1
  O  O241  1  0.42588557  0.26396964  0.52923407  1
  O  O242  1  0.42832818  0.60050978  0.01077261  1
  O  O243  1  0.41354953  0.59080797  0.51916742  1
  O  O244  1  0.42806892  0.93184245  0.03380221  1
  O  O245  1  0.42894482  0.93602466  0.52195148  1
  O  O246  1  0.76567996  0.25187680  0.03130412  1
  O  O247  1  0.75837863  0.25433818  0.51670730  1
  O  O248  1  0.76661272  0.60481670  0.02652702  1
  O  O249  1  0.76077222  0.58101775  0.50892285  1
  O  O250  1  0.75271090  0.93408143  0.01924190  1
  O  O251  1  0.75731289  0.93241550  0.52438641  1
  O  O252  1  0.23875150  0.06405051  0.27532044  1
  O  O253  1  0.23311419  0.07057750  0.77262642  1
  O  O254  1  0.24359607  0.41753204  0.26934192  1
  O  O255  1  0.24268283  0.38827107  0.77114481  1
  O  O256  1  0.22796715  0.73402583  0.27572897  1
  O  O257  1  0.22749264  0.73168003  0.77629222  1
  O  O258  1  0.56968929  0.06998351  0.28077551  1
  O  O259  1  0.55973408  0.06305918  0.75441164  1
  O  O260  1  0.56627757  0.38890778  0.26641504  1
  O  O261  1  0.55464962  0.39664865  0.76831075  1
  O  O262  1  0.57435931  0.74877735  0.26404431  1
  O  O263  1  0.56777855  0.73885232  0.78409258  1
  O  O264  1  0.91508379  0.06923245  0.26605600  1
  O  O265  1  0.90225746  0.06549888  0.75012625  1
  O  O266  1  0.90248592  0.39998274  0.25511612  1
  O  O267  1  0.91049069  0.40743310  0.76436079  1
  O  O268  1  0.91083791  0.74486569  0.27340595  1
  O  O269  1  0.89923636  0.73918106  0.78429977  1
  O  O270  1  0.26577959  0.23944011  0.25645974  1
  O  O271  1  0.27791605  0.22761565  0.75665377  1
  O  O272  1  0.25481442  0.57245547  0.27331926  1
  O  O273  1  0.26753777  0.56513369  0.75434334  1
  O  O274  1  0.26261924  0.91270536  0.27094277  1
  O  O275  1  0.25480077  0.91056097  0.76994561  1
  O  O276  1  0.60016619  0.22685883  0.27631546  1
  O  O277  1  0.59156440  0.22746305  0.77285180  1
  O  O278  1  0.59453605  0.56777055  0.26329411  1
  O  O279  1  0.58049580  0.57083389  0.77086069  1
  O  O280  1  0.58994606  0.91660422  0.27060070  1
  O  O281  1  0.60420377  0.90381727  0.76486281  1
  O  O282  1  0.93305130  0.22715628  0.27291804  1
  O  O283  1  0.93058920  0.23554957  0.76369803  1
  O  O284  1  0.93364425  0.58176548  0.26653841  1
  O  O285  1  0.92331330  0.57948182  0.77532585  1
  O  O286  1  0.93892607  0.90364111  0.27154663  1
  O  O287  1  0.93441756  0.90371599  0.78125328  1
  O  O288  1  0.26520796  0.24497473  0.48647718  1
  O  O289  1  0.27188946  0.23923066  0.99346199  1
  O  O290  1  0.26297767  0.57060359  0.46935542  1
  O  O291  1  0.25957659  0.57759461  0.97610341  1
  O  O292  1  0.25564743  0.91130617  0.47396624  1
  O  O293  1  0.26153073  0.90386830  0.98374583  1
  O  O294  1  0.59646561  0.23667002  0.46992572  1
  O  O295  1  0.60339687  0.22288411  0.98807795  1
  O  O296  1  0.58531954  0.57558147  0.48651194  1
  O  O297  1  0.58240630  0.57492555  0.97664819  1
  O  O298  1  0.58877683  0.91298979  0.47626185  1
  O  O299  1  0.60033317  0.89944034  0.98054273  1
  O  O300  1  0.92818210  0.23405747  0.47573830  1
  O  O301  1  0.93275198  0.23180288  0.98498480  1
  O  O302  1  0.92029548  0.56822937  0.48668321  1
  O  O303  1  0.92684900  0.57920893  0.97936234  1
  O  O304  1  0.93845402  0.90997774  0.47040603  1
  O  O305  1  0.93972906  0.90738290  0.98252254  1
  O  O306  1  0.23823672  0.06569077  0.47474428  1
  O  O307  1  0.23261869  0.05791287  0.98412478  1
  O  O308  1  0.25151012  0.41248021  0.46981436  1
  O  O309  1  0.23926035  0.39515711  0.98032065  1
  O  O310  1  0.22830738  0.73936145  0.47341580  1
  O  O311  1  0.23184112  0.73873160  0.97482087  1
  O  O312  1  0.57152344  0.07037269  0.47699372  1
  O  O313  1  0.56441501  0.05918342  1.00112716  1
  O  O314  1  0.56996486  0.39246688  0.47687615  1
  O  O315  1  0.55570069  0.39908068  0.97897124  1
  O  O316  1  0.56774274  0.75297743  0.48337352  1
  O  O317  1  0.56336207  0.74481937  0.97155173  1
  O  O318  1  0.91325287  0.07735239  0.47009385  1
  O  O319  1  0.91304662  0.07104271  0.98219891  1
  O  O320  1  0.90786177  0.40377688  0.48830810  1
  O  O321  1  0.91445404  0.39835305  0.98635998  1
  O  O322  1  0.91429433  0.74562428  0.47569101  1
  O  O323  1  0.90421928  0.74446469  0.97001062  1
  O  O324  1  0.08825879  0.25168587  0.21881057  1
  O  O325  1  0.10949605  0.25829985  0.74108476  1
  O  O326  1  0.09577892  0.60099248  0.23605937  1
  O  O327  1  0.10203906  0.59588349  0.75330771  1
  O  O328  1  0.09659481  0.93294944  0.22651487  1
  O  O329  1  0.09705859  0.93528855  0.71905338  1
  O  O330  1  0.43834026  0.25722448  0.22303856  1
  O  O331  1  0.43974364  0.26549034  0.73110989  1
  O  O332  1  0.42035167  0.59383637  0.23724647  1
  O  O333  1  0.42649520  0.58523713  0.73038150  1
  O  O334  1  0.42821618  0.93842394  0.22944062  1
  O  O335  1  0.43250674  0.93627456  0.72525036  1
  O  O336  1  0.75548489  0.25953259  0.21942970  1
  O  O337  1  0.75514532  0.25329709  0.73618578  1
  O  O338  1  0.76852508  0.60002250  0.22523049  1
  O  O339  1  0.76227290  0.60037587  0.74645170  1
  O  O340  1  0.75453119  0.92276406  0.22378004  1
  O  O341  1  0.75988614  0.94561143  0.72116536  1
  O  O342  1  0.07106330  0.08888954  0.21680199  1
  O  O343  1  0.08360681  0.09848445  0.73166794  1
  O  O344  1  0.07970728  0.42629919  0.23681016  1
  O  O345  1  0.08183083  0.41956948  0.73694358  1
  O  O346  1  0.06193645  0.76885930  0.23072722  1
  O  O347  1  0.05669195  0.77947271  0.73211669  1
  O  O348  1  0.40503289  0.09800457  0.22361360  1
  O  O349  1  0.40219519  0.10175482  0.72539920  1
  O  O350  1  0.41089684  0.42078618  0.22383589  1
  O  O351  1  0.39879348  0.42587005  0.72411294  1
  O  O352  1  0.39475017  0.77438223  0.22786135  1
  O  O353  1  0.40479121  0.76039640  0.73303486  1
  O  O354  1  0.73061386  0.09458567  0.22928351  1
  O  O355  1  0.72579040  0.09637718  0.74632628  1
  O  O356  1  0.72944785  0.41491208  0.22934625  1
  O  O357  1  0.73444880  0.42432013  0.73641843  1
  O  O358  1  0.75003505  0.76673768  0.22274599  1
  O  O359  1  0.72709948  0.78069160  0.72448538  1
