# generated using pymatgen
data_BaLaInIrO6
_symmetry_space_group_name_H-M   'P 1'
_cell_length_a   17.54144215
_cell_length_b   17.57157321
_cell_length_c   16.51153129
_cell_angle_alpha   90.06774710
_cell_angle_beta   90.02624749
_cell_angle_gamma   89.93229844
_symmetry_Int_Tables_number   1
_chemical_formula_structural   BaLaInIrO6
_chemical_formula_sum   'Ba36 La36 In36 Ir36 O216'
_cell_volume   5089.35378530
_cell_formula_units_Z   36
loop_
 _symmetry_equiv_pos_site_id
 _symmetry_equiv_pos_as_xyz
  1  'x, y, z'
loop_
 _atom_site_type_symbol
 _atom_site_label
 _atom_site_symmetry_multiplicity
 _atom_site_fract_x
 _atom_site_fract_y
 _atom_site_fract_z
 _atom_site_occupancy
  Ba  Ba0  1  0.82947147  0.34515805  0.12642564  1
  Ba  Ba1  1  0.50111250  0.99305705  0.37595262  1
  Ba  Ba2  1  0.99966537  0.17622035  0.12198574  1
  Ba  Ba3  1  0.32937527  0.50334481  0.12302974  1
  Ba  Ba4  1  0.50255841  0.32469578  0.37257040  1
  Ba  Ba5  1  0.16561245  0.32630986  0.37634745  1
  Ba  Ba6  1  0.00321138  0.15720204  0.87546095  1
  Ba  Ba7  1  0.83739103  0.65777857  0.37102305  1
  Ba  Ba8  1  0.16929272  0.00838472  0.62021456  1
  Ba  Ba9  1  0.16647191  0.65662494  0.37675645  1
  Ba  Ba10  1  0.49839004  0.34044303  0.62602411  1
  Ba  Ba11  1  1.00353852  0.83881090  0.62036567  1
  Ba  Ba12  1  0.66974117  0.83736134  0.62442074  1
  Ba  Ba13  1  0.50209053  0.65944102  0.87336160  1
  Ba  Ba14  1  0.32876316  0.82164718  0.37649006  1
  Ba  Ba15  1  0.66664529  0.82399093  0.87907536  1
  Ba  Ba16  1  0.50249302  0.67375847  0.62420933  1
  Ba  Ba17  1  0.83256785  0.99002985  0.87403412  1
  Ba  Ba18  1  0.33959189  0.84168765  0.62602095  1
  Ba  Ba19  1  0.49860543  0.34602013  0.12848037  1
  Ba  Ba20  1  0.66654373  0.50689976  0.62431819  1
  Ba  Ba21  1  0.33645298  0.17351990  0.62193579  1
  Ba  Ba22  1  0.49836898  0.32545174  0.88132668  1
  Ba  Ba23  1  0.66601945  0.84480296  0.12121519  1
  Ba  Ba24  1  0.17176732  0.32399893  0.87934324  1
  Ba  Ba25  1  0.99964821  0.50607539  0.62456261  1
  Ba  Ba26  1  0.49525931  0.67745262  0.11911363  1
  Ba  Ba27  1  0.16602236  0.33836045  0.62617106  1
  Ba  Ba28  1  0.33096515  0.49075839  0.37205969  1
  Ba  Ba29  1  0.82981591  0.67989883  0.12389252  1
  Ba  Ba30  1  0.82833441  0.34650566  0.62833824  1
  Ba  Ba31  1  0.16185616  0.34450247  0.12700014  1
  Ba  Ba32  1  0.16428838  0.65819665  0.87229496  1
  Ba  Ba33  1  0.17436221  0.99183376  0.37351986  1
  Ba  Ba34  1  0.66537927  0.17585717  0.62757496  1
  Ba  Ba35  1  0.33264985  0.49089080  0.87638502  1
  La  La36  1  0.66162046  0.48763641  0.37480745  1
  La  La37  1  0.83408893  0.01406261  0.62664991  1
  La  La38  1  0.83454794  0.31763165  0.87408951  1
  La  La39  1  0.00064234  0.81603988  0.37190734  1
  La  La40  1  0.50591670  0.98841885  0.87382085  1
  La  La41  1  -0.00647502  0.81859980  0.87476146  1
  La  La42  1  -0.00434093  0.47953241  0.87540836  1
  La  La43  1  0.82396969  0.67693547  0.62724874  1
  La  La44  1  0.65856738  0.15393504  0.37282584  1
  La  La45  1  1.00602311  0.51488401  0.12589265  1
  La  La46  1  0.82827267  0.01080451  0.11877640  1
  La  La47  1  0.33327453  0.15898954  0.37505803  1
  La  La48  1  0.65835347  0.15391423  0.88104033  1
  La  La49  1  0.16820328  0.67683361  0.62186220  1
  La  La50  1  0.33142873  0.81438587  0.87434709  1
  La  La51  1  0.17235143  0.98399587  0.87236691  1
  La  La52  1  -0.00275011  0.48633328  0.37150206  1
  La  La53  1  0.16230052  0.01431553  0.12621776  1
  La  La54  1  0.83722334  0.65075364  0.87384865  1
  La  La55  1  0.33912299  0.51209921  0.62721868  1
  La  La56  1  0.83488216  0.31955214  0.37794995  1
  La  La57  1  0.33761422  0.84710089  0.12300735  1
  La  La58  1  0.16870342  0.67373927  0.12933922  1
  La  La59  1  0.66126720  0.81357728  0.36994527  1
  La  La60  1  1.00959574  0.17594235  0.62663025  1
  La  La61  1  0.66968708  0.18341250  0.12809762  1
  La  La62  1  0.66933160  0.51792460  0.12199166  1
  La  La63  1  -0.00203450  0.15141238  0.37500025  1
  La  La64  1  0.50443130  0.65281503  0.37249017  1
  La  La65  1  0.66039457  0.48895243  0.87556701  1
  La  La66  1  0.83550838  0.98739061  0.37744220  1
  La  La67  1  0.49576662  0.01886931  0.12272889  1
  La  La68  1  0.49175686  0.01843057  0.62646276  1
  La  La69  1  0.99947416  0.84577906  0.12632915  1
  La  La70  1  0.32969231  0.15970326  0.87696548  1
  La  La71  1  0.33668316  0.18543134  0.13153240  1
  In  In72  1  0.16754973  0.16352040  0.75193646  1
  In  In73  1  0.16334817  0.50153450  -0.00174588  1
  In  In74  1  -0.00281630  0.33250069  0.50040301  1
  In  In75  1  0.49923956  0.83635665  0.24699875  1
  In  In76  1  0.50381785  0.83439117  0.49701595  1
  In  In77  1  -0.00343291  0.33303991  0.24853018  1
  In  In78  1  0.33355116  0.66625350  0.24879365  1
  In  In79  1  0.49747373  0.49676161  0.49904924  1
  In  In80  1  0.16788659  0.49925127  0.50226451  1
  In  In81  1  0.00218952  -0.00306042  -0.00023733  1
  In  In82  1  0.33543537  0.00022532  0.50030062  1
  In  In83  1  0.83063104  0.16282675  0.25309390  1
  In  In84  1  0.16599862  0.49891000  0.74863620  1
  In  In85  1  0.83419022  0.16590220  0.50017485  1
  In  In86  1  0.33360704  0.33176148  0.75045804  1
  In  In87  1  0.83016772  0.83663362  0.24692632  1
  In  In88  1  -0.00139376  0.66280463  0.74816764  1
  In  In89  1  0.33464732  0.00245724  0.24608651  1
  In  In90  1  0.16757783  0.83179956  0.24805094  1
  In  In91  1  0.66858473  0.66280744  0.49668889  1
  In  In92  1  0.83358561  0.16485096  0.75016488  1
  In  In93  1  0.49892448  0.50218113  0.00101589  1
  In  In94  1  0.66845625  0.33348540  0.50059497  1
  In  In95  1  0.83524230  0.83438901  0.49824115  1
  In  In96  1  0.83095253  0.16454606  0.00010087  1
  In  In97  1  0.66623570  0.33540088  0.00162813  1
  In  In98  1  0.66773127  0.66472950  0.75400915  1
  In  In99  1  -0.00291938  0.66245962  0.50068770  1
  In  In100  1  0.16695580  0.83313160  0.00018310  1
  In  In101  1  0.00266538  -0.00413927  0.74832887  1
  In  In102  1  0.83530479  0.50034514  0.00299403  1
  In  In103  1  0.66639253  -0.00158680  0.74780864  1
  In  In104  1  0.50256234  0.83482404  0.75018470  1
  In  In105  1  0.66915840  -0.00198849  0.50189250  1
  In  In106  1  0.33586255  -0.00061579  0.75516358  1
  In  In107  1  0.16552933  0.16830046  0.25072585  1
  Ir  Ir108  1  0.66635352  0.66335187  0.24664184  1
  Ir  Ir109  1  0.83210319  0.49873535  0.75318382  1
  Ir  Ir110  1  0.49993828  0.49958393  0.75109114  1
  Ir  Ir111  1  0.33014418  0.66822426  -0.00382599  1
  Ir  Ir112  1  0.16445737  0.16636883  0.49852575  1
  Ir  Ir113  1  0.83539010  0.83152540  -0.00270877  1
  Ir  Ir114  1  -0.00250020  0.33275791  -0.00291013  1
  Ir  Ir115  1  0.50055752  0.16937402  0.49551723  1
  Ir  Ir116  1  0.16268201  0.50184783  0.24844557  1
  Ir  Ir117  1  0.17088855  0.16371940  0.00208026  1
  Ir  Ir118  1  0.33542954  0.33390798  0.25250365  1
  Ir  Ir119  1  0.50355636  0.50138394  0.24946822  1
  Ir  Ir120  1  0.49643770  0.16399791  0.00324191  1
  Ir  Ir121  1  0.83077230  0.50113129  0.25216739  1
  Ir  Ir122  1  0.49582909  0.83879582  0.00055467  1
  Ir  Ir123  1  0.33362376  0.66657458  0.50201903  1
  Ir  Ir124  1  0.16773426  0.83089842  0.75009273  1
  Ir  Ir125  1  0.50087204  0.17063303  0.75702094  1
  Ir  Ir126  1  0.66654715  0.00393366  0.24693013  1
  Ir  Ir127  1  0.33245349  0.66635240  0.75012733  1
  Ir  Ir128  1  0.67046034  0.66994525  0.00066426  1
  Ir  Ir129  1  0.66856068  0.33826023  0.25002146  1
  Ir  Ir130  1  0.66014199  0.00159722  0.00507440  1
  Ir  Ir131  1  0.33265598  0.32992093  0.49664559  1
  Ir  Ir132  1  0.16571154  0.83234074  0.50223673  1
  Ir  Ir133  1  0.83718650  0.82947169  0.75286297  1
  Ir  Ir134  1  0.83169592  0.50048312  0.49619297  1
  Ir  Ir135  1  -0.00171297  0.66497424  0.24464123  1
  Ir  Ir136  1  -0.00123964  -0.00415155  0.25244480  1
  Ir  Ir137  1  0.50401467  0.16959348  0.24815430  1
  Ir  Ir138  1  -0.00261436  0.66895621  0.00268109  1
  Ir  Ir139  1  -0.00508095  0.33190748  0.75458970  1
  Ir  Ir140  1  0.00243781  -0.00236081  0.49185509  1
  Ir  Ir141  1  0.33396358  0.32789470  0.00573570  1
  Ir  Ir142  1  0.33353418  0.00263150  -0.00057894  1
  Ir  Ir143  1  0.66867519  0.33752104  0.75472317  1
  O  O144  1  0.31237848  0.32459026  0.13008550  1
  O  O145  1  0.31712559  0.32629584  0.61622657  1
  O  O146  1  0.30472908  0.66270500  0.11572120  1
  O  O147  1  0.30426887  0.65677670  0.62656489  1
  O  O148  1  0.29789267  0.98829902  0.11475033  1
  O  O149  1  0.32218927  1.00694758  0.62778336  1
  O  O150  1  0.64582829  0.32385928  0.13163201  1
  O  O151  1  0.65001152  0.33463762  0.63413287  1
  O  O152  1  0.64433978  0.65749913  0.12434765  1
  O  O153  1  0.65764223  0.66340309  0.62574864  1
  O  O154  1  0.63033263  0.99636284  0.12773531  1
  O  O155  1  0.62491884  0.99402419  0.62487022  1
  O  O156  1  0.97827902  0.33286550  0.11797096  1
  O  O157  1  0.97603808  0.31743984  0.63290197  1
  O  O158  1  0.97516103  0.65108514  0.12360109  1
  O  O159  1  0.95841524  0.66499717  0.62539500  1
  O  O160  1  0.96515204  0.98536448  0.13305392  1
  O  O161  1  0.97087920  0.99295457  0.61160976  1
  O  O162  1  0.19793273  0.15493357  0.12086922  1
  O  O163  1  0.18296169  0.16856546  0.61882462  1
  O  O164  1  0.17660308  0.50511020  0.12735037  1
  O  O165  1  0.20360773  0.49389357  0.62524684  1
  O  O166  1  0.20149096  0.81440555  0.12068441  1
  O  O167  1  0.19131227  0.81793659  0.62711864  1
  O  O168  1  0.53424156  0.16016008  0.12492391  1
  O  O169  1  0.52010740  0.15824486  0.62603184  1
  O  O170  1  0.53133865  0.50259574  0.12953594  1
  O  O171  1  0.51476967  0.50167723  0.63105627  1
  O  O172  1  0.51793719  0.83249580  0.11803568  1
  O  O173  1  0.51930011  0.82655879  0.62378115  1
  O  O174  1  0.84939900  0.15082962  0.12803780  1
  O  O175  1  0.87290678  0.15735450  0.62432993  1
  O  O176  1  0.86688621  0.49888592  0.13275696  1
  O  O177  1  0.85368898  0.49764474  0.62111730  1
  O  O178  1  0.86083110  0.83717848  0.11893009  1
  O  O179  1  0.85473356  0.81505246  0.63247187  1
  O  O180  1  0.13474960  0.16538511  0.37952309  1
  O  O181  1  0.15151093  0.16732633  0.88378688  1
  O  O182  1  0.13689544  0.50168309  0.36912341  1
  O  O183  1  0.13133047  0.50407782  0.87492877  1
  O  O184  1  0.13822499  0.83436318  0.37965579  1
  O  O185  1  0.13540674  0.84097264  0.87206171  1
  O  O186  1  0.47138434  0.17016004  0.37147700  1
  O  O187  1  0.46659214  0.17037162  0.88060612  1
  O  O188  1  0.48211953  0.50886342  0.36861576  1
  O  O189  1  0.48300407  0.50099239  0.87031414  1
  O  O190  1  0.47718322  0.83828512  0.37065387  1
  O  O191  1  0.46550791  0.84872257  0.88226087  1
  O  O192  1  0.79405039  0.16949625  0.37426153  1
  O  O193  1  0.79637103  0.17243785  0.87610019  1
  O  O194  1  0.79882286  0.50566456  0.37424433  1
  O  O195  1  0.80298146  0.50854952  0.87266467  1
  O  O196  1  0.79719932  0.85195186  0.36989988  1
  O  O197  1  0.81547436  0.83624209  0.87516226  1
  O  O198  1  0.02923361  0.01113032  0.37136482  1
  O  O199  1  0.03660726  -0.00398951  0.87593756  1
  O  O200  1  0.01567123  0.35191020  0.37325185  1
  O  O201  1  0.02193123  0.34297667  0.87596791  1
  O  O202  1  0.01785040  0.67344082  0.36468414  1
  O  O203  1  0.01627423  0.68101357  0.88239251  1
  O  O204  1  0.35072156  0.01657566  0.37374359  1
  O  O205  1  0.36877975  0.01873780  0.88453040  1
  O  O206  1  0.35532857  0.33123042  0.37451193  1
  O  O207  1  0.34795861  0.32268066  0.88635091  1
  O  O208  1  0.36358223  0.66781742  0.38086011  1
  O  O209  1  0.35531240  0.67675749  0.87373215  1
  O  O210  1  0.69911281  0.01717422  0.36590495  1
  O  O211  1  0.68332109  0.01572529  0.88544884  1
  O  O212  1  0.69793657  0.34812079  0.36777299  1
  O  O213  1  0.69766324  0.34730241  0.87398378  1
  O  O214  1  0.68799750  0.66737788  0.36421454  1
  O  O215  1  0.70063327  0.66669505  0.88202672  1
  O  O216  1  0.08394709  0.08986872  0.02566832  1
  O  O217  1  0.06619181  0.09759668  0.51895727  1
  O  O218  1  0.06013554  0.43182062  0.01625812  1
  O  O219  1  0.07240070  0.42498028  0.51513900  1
  O  O220  1  0.06130882  0.76421167  0.02606180  1
  O  O221  1  0.08119063  0.75718923  0.51523035  1
  O  O222  1  0.40121217  0.09580902  0.03430079  1
  O  O223  1  0.41457322  0.09808461  0.51081382  1
  O  O224  1  0.40703761  0.41710034  0.01513741  1
  O  O225  1  0.39865987  0.42443867  0.51951022  1
  O  O226  1  0.39678958  0.77066629  0.01631722  1
  O  O227  1  0.40331654  0.75354147  0.51662622  1
  O  O228  1  0.72704030  0.09241076  0.03018637  1
  O  O229  1  0.74718862  0.08769804  0.52961658  1
  O  O230  1  0.73601613  0.43616122  0.02661463  1
  O  O231  1  0.73811730  0.43809921  0.50740059  1
  O  O232  1  0.73963645  0.76364285  0.01708886  1
  O  O233  1  0.74383257  0.75742955  0.50735570  1
  O  O234  1  0.09673936  0.25683148  0.02019200  1
  O  O235  1  0.08900960  0.24989261  0.51905294  1
  O  O236  1  0.09094863  0.60351275  0.02712313  1
  O  O237  1  0.09702340  0.59838386  0.52663083  1
  O  O238  1  0.09691603  0.92698045  0.03696735  1
  O  O239  1  0.09493717  0.92614359  0.51641132  1
  O  O240  1  0.42372570  0.25218396  0.03106002  1
  O  O241  1  0.42722529  0.26013234  0.51248776  1
  O  O242  1  0.41839273  0.59455334  0.01186777  1
  O  O243  1  0.41982851  0.59223849  0.51904993  1
  O  O244  1  0.42704435  0.93455184  0.02846836  1
  O  O245  1  0.43680870  0.93552449  0.52290889  1
  O  O246  1  0.75426193  0.25675088  0.02052605  1
  O  O247  1  0.76713116  0.26767736  0.50853654  1
  O  O248  1  0.75870282  0.59838914  0.01771883  1
  O  O249  1  0.77412471  0.59721449  0.51787988  1
  O  O250  1  0.76333699  0.93347934  0.02214329  1
  O  O251  1  0.77856281  0.93751241  0.52267765  1
  O  O252  1  0.24519621  0.08130371  0.26321326  1
  O  O253  1  0.23891173  0.06654983  0.78245067  1
  O  O254  1  0.23601473  0.40726457  0.26675132  1
  O  O255  1  0.24142070  0.40583495  0.76911350  1
  O  O256  1  0.23132770  0.73002289  0.26039931  1
  O  O257  1  0.24126028  0.74015932  0.77054859  1
  O  O258  1  0.57414920  0.07720372  0.27045852  1
  O  O259  1  0.57213843  0.08254642  0.78123473  1
  O  O260  1  0.57945619  0.41254039  0.27321261  1
  O  O261  1  0.57617920  0.41133629  0.77768224  1
  O  O262  1  0.57335996  0.73181368  0.27107758  1
  O  O263  1  0.57750716  0.74200997  0.76992951  1
  O  O264  1  0.90669805  0.06402676  0.27910537  1
  O  O265  1  0.90934537  0.06983379  0.76714568  1
  O  O266  1  0.89431213  0.40880133  0.27871374  1
  O  O267  1  0.89891827  0.40271470  0.78032285  1
  O  O268  1  0.91296677  0.74292085  0.26337971  1
  O  O269  1  0.90246002  0.73610909  0.78022801  1
  O  O270  1  0.27135362  0.23798260  0.26887256  1
  O  O271  1  0.26643556  0.23073524  0.77025585  1
  O  O272  1  0.25487704  0.56917066  0.26121788  1
  O  O273  1  0.26477484  0.57730714  0.76381259  1
  O  O274  1  0.26232059  0.90518199  0.25749787  1
  O  O275  1  0.26068641  0.89905590  0.77916615  1
  O  O276  1  0.60288244  0.23759016  0.27120748  1
  O  O277  1  0.60215492  0.23988360  0.77963850  1
  O  O278  1  0.59822674  0.56902428  0.27283451  1
  O  O279  1  0.59608219  0.56489235  0.77430894  1
  O  O280  1  0.60738651  0.90683113  0.27124934  1
  O  O281  1  0.59017375  0.91481652  0.78417010  1
  O  O282  1  0.92391469  0.23718359  0.28011146  1
  O  O283  1  0.92100894  0.24803601  0.77985691  1
  O  O284  1  0.93164828  0.56475476  0.27103746  1
  O  O285  1  0.92716828  0.56326300  0.78078648  1
  O  O286  1  0.93348123  0.90406956  0.27832344  1
  O  O287  1  0.93294422  0.89344301  0.77076140  1
  O  O288  1  0.26300101  0.23356331  0.47232644  1
  O  O289  1  0.26970195  0.22746513  0.98887898  1
  O  O290  1  0.26376496  0.57811302  0.48594863  1
  O  O291  1  0.25853203  0.57977515  0.98084150  1
  O  O292  1  0.25370401  0.90518659  0.48948066  1
  O  O293  1  0.26634281  0.91111221  0.96688254  1
  O  O294  1  0.59507856  0.23574738  0.47544172  1
  O  O295  1  0.59225325  0.22982567  0.98068008  1
  O  O296  1  0.59244123  0.57136430  0.47106886  1
  O  O297  1  0.60373133  0.57612247  0.98280337  1
  O  O298  1  0.61069574  0.89781012  0.46888667  1
  O  O299  1  0.58543200  0.91296749  0.97665227  1
  O  O300  1  0.92961337  0.23545768  0.46538017  1
  O  O301  1  0.92418643  0.24520341  0.97687214  1
  O  O302  1  0.92940546  0.56057165  0.47281739  1
  O  O303  1  0.93275969  0.57275247  0.97512480  1
  O  O304  1  0.93664005  0.90757412  0.46214644  1
  O  O305  1  0.93540521  0.89082525  0.98193606  1
  O  O306  1  0.24195539  0.08449155  0.48013523  1
  O  O307  1  0.23743362  0.06819068  0.97399074  1
  O  O308  1  0.24494821  0.40026690  0.48222855  1
  O  O309  1  0.24606093  0.40399109  0.99298419  1
  O  O310  1  0.23679183  0.73706757  0.48877405  1
  O  O311  1  0.24564668  0.74248831  0.97244700  1
  O  O312  1  0.57631875  0.08376924  0.47746226  1
  O  O313  1  0.56252787  0.06851029  0.98007084  1
  O  O314  1  0.57806069  0.40915019  0.48094876  1
  O  O315  1  0.57981226  0.41492415  0.98064503  1
  O  O316  1  0.57262666  0.73461646  0.46539726  1
  O  O317  1  0.56983352  0.74567754  0.98149325  1
  O  O318  1  0.91192447  0.06645338  0.46646589  1
  O  O319  1  0.90506872  0.06783192  0.99025748  1
  O  O320  1  0.89387932  0.40452009  0.47439406  1
  O  O321  1  0.90542691  0.40137188  0.97029612  1
  O  O322  1  0.91818730  0.75006159  0.47011813  1
  O  O323  1  0.89972158  0.73478971  0.97379474  1
  O  O324  1  0.09077123  0.25815400  0.23384457  1
  O  O325  1  0.08218135  0.25721875  0.73816711  1
  O  O326  1  0.09370996  0.59619840  0.22187159  1
  O  O327  1  0.09745562  0.59817229  0.72151797  1
  O  O328  1  0.08890351  0.92591809  0.21995966  1
  O  O329  1  0.10422857  0.92318436  0.73225621  1
  O  O330  1  0.42691495  0.25915801  0.22776143  1
  O  O331  1  0.43372888  0.26053217  0.73987700  1
  O  O332  1  0.43436500  0.59296682  0.23660846  1
  O  O333  1  0.42213204  0.58998247  0.72553427  1
  O  O334  1  0.43179204  0.93620702  0.21619854  1
  O  O335  1  0.43751442  0.93878969  0.73599414  1
  O  O336  1  0.75438529  0.26399111  0.23304105  1
  O  O337  1  0.75823250  0.26727583  0.74121522  1
  O  O338  1  0.75674500  0.58871531  0.22198541  1
  O  O339  1  0.77499854  0.59819243  0.73604330  1
  O  O340  1  0.76357449  0.94327382  0.22439035  1
  O  O341  1  0.77209719  0.92404535  0.72620740  1
  O  O342  1  0.07072605  0.08320881  0.22803655  1
  O  O343  1  0.07178755  0.09437868  0.72363532  1
  O  O344  1  0.06334131  0.44001454  0.23097595  1
  O  O345  1  0.06292388  0.42209085  0.73877964  1
  O  O346  1  0.06533501  0.75847186  0.21959473  1
  O  O347  1  0.07828114  0.76018426  0.73392444  1
  O  O348  1  0.41218608  0.10196516  0.22040560  1
  O  O349  1  0.41350726  0.10075975  0.73961113  1
  O  O350  1  0.40926755  0.43054702  0.23239270  1
  O  O351  1  0.40630220  0.43245133  0.72956457  1
  O  O352  1  0.39802527  0.76743050  0.22158299  1
  O  O353  1  0.40053001  0.75897486  0.74479027  1
  O  O354  1  0.72668852  0.09749914  0.22202242  1
  O  O355  1  0.74555785  0.08481170  0.72459090  1
  O  O356  1  0.73092490  0.43706916  0.22724998  1
  O  O357  1  0.73389367  0.43445343  0.73931975  1
  O  O358  1  0.73354311  0.75820066  0.23446611  1
  O  O359  1  0.74974908  0.75895280  0.73733707  1
