# generated using pymatgen
data_BaLaInIrO6
_symmetry_space_group_name_H-M   'P 1'
_cell_length_a   17.54823581
_cell_length_b   17.57436943
_cell_length_c   16.52421527
_cell_angle_alpha   90.01933739
_cell_angle_beta   89.98956993
_cell_angle_gamma   90.04166232
_symmetry_Int_Tables_number   1
_chemical_formula_structural   BaLaInIrO6
_chemical_formula_sum   'Ba36 La36 In36 Ir36 O216'
_cell_volume   5096.05270348
_cell_formula_units_Z   36
loop_
 _symmetry_equiv_pos_site_id
 _symmetry_equiv_pos_as_xyz
  1  'x, y, z'
loop_
 _atom_site_type_symbol
 _atom_site_label
 _atom_site_symmetry_multiplicity
 _atom_site_fract_x
 _atom_site_fract_y
 _atom_site_fract_z
 _atom_site_occupancy
  Ba  Ba0  1  0.16487146  0.67621388  0.12685091  1
  Ba  Ba1  1  0.66906213  0.84501671  0.62022279  1
  Ba  Ba2  1  0.33707937  0.84580883  0.62177468  1
  Ba  Ba3  1  0.33273820  0.16215563  0.87634126  1
  Ba  Ba4  1  -0.00399036  0.16052499  0.87526294  1
  Ba  Ba5  1  0.33074901  0.50421557  0.12246255  1
  Ba  Ba6  1  0.83596238  0.32516402  0.87577104  1
  Ba  Ba7  1  0.50243480  0.32544246  0.87425901  1
  Ba  Ba8  1  0.33096176  0.49456928  0.37177118  1
  Ba  Ba9  1  0.33382605  0.17582266  0.12570750  1
  Ba  Ba10  1  0.16877051  0.32669530  0.87363259  1
  Ba  Ba11  1  -0.00118547  0.81611822  0.37351586  1
  Ba  Ba12  1  0.83125985  0.34970395  0.12618632  1
  Ba  Ba13  1  0.33107106  0.83030650  0.87419548  1
  Ba  Ba14  1  0.83136934  0.01089948  0.62283005  1
  Ba  Ba15  1  0.16763656  0.34403482  0.62665554  1
  Ba  Ba16  1  0.49707561  0.67501402  0.62453973  1
  Ba  Ba17  1  1.00136864  0.17827389  0.12924055  1
  Ba  Ba18  1  0.66577219  0.17147075  0.62699708  1
  Ba  Ba19  1  0.33957615  0.49275219  0.87472706  1
  Ba  Ba20  1  0.66302967  0.15747812  0.87514714  1
  Ba  Ba21  1  0.50143097  0.33925790  0.62397349  1
  Ba  Ba22  1  0.83473458  0.65581958  0.87499417  1
  Ba  Ba23  1  0.50167494  0.33815473  0.12592060  1
  Ba  Ba24  1  0.33550033  0.50387374  0.62796585  1
  Ba  Ba25  1  0.16363691  0.00990933  0.12722486  1
  Ba  Ba26  1  -0.00498030  0.48290409  0.37405289  1
  Ba  Ba27  1  0.49972902  0.99210803  0.87569019  1
  Ba  Ba28  1  0.83645487  0.99316193  0.86955233  1
  Ba  Ba29  1  0.66490567  0.15684701  0.37759758  1
  Ba  Ba30  1  -0.00024102  0.82510888  0.87663883  1
  Ba  Ba31  1  0.33316949  0.82529227  0.37361258  1
  Ba  Ba32  1  0.49869771  0.00766855  0.62327575  1
  Ba  Ba33  1  0.49744968  0.67315877  0.12590463  1
  Ba  Ba34  1  0.49847599  0.00828961  0.12700907  1
  Ba  Ba35  1  1.00039170  0.84348707  0.12742305  1
  La  La36  1  0.17116235  0.65342468  0.87659482  1
  La  La37  1  0.82846179  0.34694135  0.62436066  1
  La  La38  1  0.16818664  0.65149957  0.36886664  1
  La  La39  1  0.50009657  0.64726369  0.37710044  1
  La  La40  1  -0.00452734  0.14922764  0.37509522  1
  La  La41  1  0.83992071  0.67440892  0.12499329  1
  La  La42  1  0.50107077  0.31978931  0.37717374  1
  La  La43  1  0.66103898  0.82720981  0.87396551  1
  La  La44  1  0.17629748  0.98716873  0.88025744  1
  La  La45  1  0.66854358  0.48710069  0.37444274  1
  La  La46  1  0.16625871  0.31696315  0.37778460  1
  La  La47  1  0.49940695  0.99057913  0.37891042  1
  La  La48  1  0.84142544  0.64565214  0.37524715  1
  La  La49  1  1.00318095  0.84943763  0.62449796  1
  La  La50  1  0.33804055  0.18366410  0.62791632  1
  La  La51  1  0.17004432  0.98335239  0.36990245  1
  La  La52  1  0.82701190  0.68084818  0.62461176  1
  La  La53  1  1.00396059  0.51220209  0.12229100  1
  La  La54  1  0.83651633  0.98366655  0.37607303  1
  La  La55  1  0.83207916  0.01671740  0.12425805  1
  La  La56  1  0.49277383  0.66376541  0.87443378  1
  La  La57  1  0.33327426  0.84633802  0.12565853  1
  La  La58  1  0.66164774  0.81577750  0.37162229  1
  La  La59  1  0.16296841  0.67503188  0.62157818  1
  La  La60  1  0.33117877  0.15548433  0.37744724  1
  La  La61  1  0.84314829  0.31479437  0.37445496  1
  La  La62  1  -0.00486371  0.48745611  0.87525737  1
  La  La63  1  0.67280861  0.51070649  0.62855869  1
  La  La64  1  0.67331665  0.51650966  0.12231094  1
  La  La65  1  0.66156321  0.48706592  0.87578068  1
  La  La66  1  0.67628542  0.18284102  0.12298577  1
  La  La67  1  0.67257685  0.84935389  0.12626500  1
  La  La68  1  1.00178319  0.18548541  0.62727906  1
  La  La69  1  0.16499378  0.33829387  0.12929220  1
  La  La70  1  0.16086383  0.01781884  0.62131285  1
  La  La71  1  1.00345958  0.51236070  0.62457355  1
  In  In72  1  0.50440383  0.50119859  0.74680610  1
  In  In73  1  0.66760571  -0.00196470  0.74923733  1
  In  In74  1  0.50296556  0.16569058  0.00262373  1
  In  In75  1  0.32785557  0.66658720  0.74766167  1
  In  In76  1  0.32958287  0.66464914  0.49665134  1
  In  In77  1  0.33268854  0.33512790  0.49811289  1
  In  In78  1  0.50163989  0.83110898  0.24798055  1
  In  In79  1  0.66863999  0.66498641  0.75296746  1
  In  In80  1  0.16397578  0.16919776  0.00108656  1
  In  In81  1  0.49848618  0.83269879  0.74800585  1
  In  In82  1  0.83207178  0.83016112  0.25123091  1
  In  In83  1  0.83446790  0.83226095  0.49806645  1
  In  In84  1  0.66970014  0.33534820  0.25521384  1
  In  In85  1  0.16149440  0.49700725  0.49812172  1
  In  In86  1  0.83354203  0.16844084  0.74671729  1
  In  In87  1  0.83416128  0.16780117  0.00005300  1
  In  In88  1  0.00133982  -0.00065616  -0.00113269  1
  In  In89  1  0.16493309  0.16603386  0.25608909  1
  In  In90  1  0.50352129  0.16378723  0.25313879  1
  In  In91  1  0.49992343  0.83157480  0.49639210  1
  In  In92  1  0.50198853  0.50305694  0.00328572  1
  In  In93  1  -0.00171055  0.66651786  0.74941458  1
  In  In94  1  -0.00077430  0.33773287  0.00301925  1
  In  In95  1  0.67122227  0.33148256  0.49883886  1
  In  In96  1  0.66835751  0.33650598  0.00049415  1
  In  In97  1  0.66835890  -0.00105119  0.00272203  1
  In  In98  1  0.00486323  0.00248929  0.74815256  1
  In  In99  1  0.16459964  0.83202592  0.74686408  1
  In  In100  1  0.83316629  0.83259326  -0.00068692  1
  In  In101  1  0.66920912  0.66270435  0.49676596  1
  In  In102  1  0.33476876  0.33382489  0.25181736  1
  In  In103  1  0.16584991  0.50025441  -0.00143434  1
  In  In104  1  0.33340350  0.66727278  0.24686117  1
  In  In105  1  0.33049775  0.00387800  0.74687122  1
  In  In106  1  0.33390871  0.00122820  0.00259911  1
  In  In107  1  0.16424475  0.83135567  0.49771697  1
  Ir  Ir108  1  0.33196065  0.67025917  0.00011943  1
  Ir  Ir109  1  0.00033807  0.66141601  0.25272362  1
  Ir  Ir110  1  0.83709843  0.49783020  0.50201066  1
  Ir  Ir111  1  0.33170003  -0.00073478  0.25477348  1
  Ir  Ir112  1  0.00254205  0.66551939  0.00050612  1
  Ir  Ir113  1  0.83744397  0.49735671  0.74793409  1
  Ir  Ir114  1  0.66931091  0.33641850  0.74571494  1
  Ir  Ir115  1  0.83462605  0.83001522  0.74753703  1
  Ir  Ir116  1  0.67087760  0.00358103  0.49217498  1
  Ir  Ir117  1  0.66764337  0.66929370  0.00445617  1
  Ir  Ir118  1  0.33116503  0.33419991  -0.00058308  1
  Ir  Ir119  1  0.16536015  0.17052049  0.74370086  1
  Ir  Ir120  1  0.50656008  0.49994310  0.25402692  1
  Ir  Ir121  1  0.67147322  -0.00081996  0.25410058  1
  Ir  Ir122  1  -0.00126674  0.33801239  0.74423645  1
  Ir  Ir123  1  0.83394485  0.16325829  0.25716070  1
  Ir  Ir124  1  0.16265852  0.83259358  0.25049109  1
  Ir  Ir125  1  0.32703642  0.00699622  0.49592378  1
  Ir  Ir126  1  0.83335124  0.50492182  0.24872372  1
  Ir  Ir127  1  0.33060834  0.33387906  0.75136620  1
  Ir  Ir128  1  0.83833029  0.16562164  0.49587028  1
  Ir  Ir129  1  0.49778100  0.17029719  0.74480903  1
  Ir  Ir130  1  0.16183307  0.16651290  0.50086380  1
  Ir  Ir131  1  0.50560477  0.49713759  0.49414182  1
  Ir  Ir132  1  0.66928475  0.66428902  0.25041244  1
  Ir  Ir133  1  0.00081771  0.00236959  0.49813650  1
  Ir  Ir134  1  0.16356316  0.50094563  0.74816047  1
  Ir  Ir135  1  0.83428488  0.50920957  -0.00051464  1
  Ir  Ir136  1  0.49432440  0.16482139  0.50153740  1
  Ir  Ir137  1  0.15879332  0.49635114  0.24977466  1
  Ir  Ir138  1  -0.00187746  -0.00094555  0.25784486  1
  Ir  Ir139  1  -0.00588828  0.66196801  0.50086115  1
  Ir  Ir140  1  0.50226485  0.82534385  0.00434300  1
  Ir  Ir141  1  -0.00167463  0.33617722  0.25548103  1
  Ir  Ir142  1  0.16664209  0.82981083  0.00388388  1
  Ir  Ir143  1  -0.00346246  0.32999569  0.50058909  1
  O  O144  1  0.30343110  0.33462026  0.12226027  1
  O  O145  1  0.31659070  0.32952974  0.62856383  1
  O  O146  1  0.31453682  0.66178177  0.11900484  1
  O  O147  1  0.29691507  0.65695333  0.62198731  1
  O  O148  1  0.31329614  0.98644180  0.13413952  1
  O  O149  1  0.29696949  1.00467761  0.61493289  1
  O  O150  1  0.65375947  0.32823693  0.13102154  1
  O  O151  1  0.65320762  0.33597801  0.62568966  1
  O  O152  1  0.64533697  0.65182981  0.12852867  1
  O  O153  1  0.65012563  0.64873794  0.62296050  1
  O  O154  1  0.64635582  0.98784209  0.13772752  1
  O  O155  1  0.65073411  1.00033535  0.61166074  1
  O  O156  1  0.98042684  0.34275550  0.13676482  1
  O  O157  1  0.96517093  0.32640412  0.62116390  1
  O  O158  1  0.97296336  0.65318493  0.12645801  1
  O  O159  1  0.96108213  0.65051218  0.61929340  1
  O  O160  1  0.96965694  0.99797133  0.13981517  1
  O  O161  1  0.97933786  0.99250942  0.61481246  1
  O  O162  1  0.18233896  0.17616684  0.13212592  1
  O  O163  1  0.19859297  0.15916823  0.62074322  1
  O  O164  1  0.17715215  0.48198380  0.12997810  1
  O  O165  1  0.18455648  0.50052194  0.62908025  1
  O  O166  1  0.19543955  0.82709524  0.12852434  1
  O  O167  1  0.18980421  0.81109727  0.61975033  1
  O  O168  1  0.54043323  0.16535523  0.13156572  1
  O  O169  1  0.51518617  0.16924706  0.62221144  1
  O  O170  1  0.53588188  0.49793239  0.13398546  1
  O  O171  1  0.53548994  0.49576847  0.61377103  1
  O  O172  1  0.53489618  0.82729517  0.12342152  1
  O  O173  1  0.52129438  0.83361769  0.61950360  1
  O  O174  1  0.85301797  0.15516649  0.13945499  1
  O  O175  1  0.86610753  0.16619022  0.61383746  1
  O  O176  1  0.86559472  0.51013004  0.12454591  1
  O  O177  1  0.86945579  0.48444315  0.62440575  1
  O  O178  1  0.85074107  0.81061475  0.12869493  1
  O  O179  1  0.86561871  0.82223909  0.62545828  1
  O  O180  1  0.12874194  0.17799826  0.38294253  1
  O  O181  1  0.14397365  0.17513474  0.86233982  1
  O  O182  1  0.14025993  0.51025869  0.36812641  1
  O  O183  1  0.13263033  0.50820052  0.86804041  1
  O  O184  1  0.14239882  0.84664532  0.37041760  1
  O  O185  1  0.14906276  0.84361366  0.88335338  1
  O  O186  1  0.46843982  0.16869861  0.38295353  1
  O  O187  1  0.48440263  0.16936832  0.86316275  1
  O  O188  1  0.47954443  0.50889875  0.37427066  1
  O  O189  1  0.49497141  0.52277682  0.87582548  1
  O  O190  1  0.48617836  0.85240447  0.37155502  1
  O  O191  1  0.48366428  0.82504308  0.88654826  1
  O  O192  1  0.81388322  0.17649115  0.37724920  1
  O  O193  1  0.81641212  0.16976422  0.87294207  1
  O  O194  1  0.80470286  0.51030676  0.37577403  1
  O  O195  1  0.80160824  0.50440727  0.87275326  1
  O  O196  1  0.79970114  0.84091093  0.37314786  1
  O  O197  1  0.80217964  0.83199906  0.86837460  1
  O  O198  1  0.03212641  0.00916031  0.37941544  1
  O  O199  1  0.04071883  -0.00008849  0.87167919  1
  O  O200  1  0.02794325  0.33053952  0.37867516  1
  O  O201  1  0.01760832  0.34901856  0.86526247  1
  O  O202  1  0.03047095  0.66348735  0.37717368  1
  O  O203  1  0.03130039  0.66752793  0.87965936  1
  O  O204  1  0.36043306  0.01480892  0.37602163  1
  O  O205  1  0.34430182  0.00057305  0.87560131  1
  O  O206  1  0.36680516  0.33841362  0.37623314  1
  O  O207  1  0.35179995  0.33322523  0.87551605  1
  O  O208  1  0.36448021  0.66501940  0.37003365  1
  O  O209  1  0.35634370  0.67316597  0.88177586  1
  O  O210  1  0.70288569  0.00648387  0.37148423  1
  O  O211  1  0.68662551  -0.01483711  0.87713906  1
  O  O212  1  0.70942196  0.34970092  0.37720350  1
  O  O213  1  0.68872138  0.34753567  0.86599098  1
  O  O214  1  0.70466363  0.67107503  0.36776099  1
  O  O215  1  0.68799554  0.68196967  0.88494330  1
  O  O216  1  0.07005778  0.09569434  0.01860929  1
  O  O217  1  0.06683665  0.09831757  0.52646275  1
  O  O218  1  0.06067679  0.44097478  0.01160060  1
  O  O219  1  0.05888144  0.42656485  0.52359126  1
  O  O220  1  0.07216292  0.75898389  0.01996621  1
  O  O221  1  0.05819004  0.75665315  0.52671202  1
  O  O222  1  0.40879629  0.09255164  0.01976190  1
  O  O223  1  0.39294112  0.10222101  0.51937911  1
  O  O224  1  0.40663519  0.42253959  0.01417183  1
  O  O225  1  0.41638326  0.42778770  0.51463675  1
  O  O226  1  0.40019758  0.76370677  0.02604270  1
  O  O227  1  0.40514178  0.75775786  0.51165402  1
  O  O228  1  0.73834151  0.09470748  0.03595733  1
  O  O229  1  0.74262444  0.09969464  0.51368730  1
  O  O230  1  0.74054338  0.44442302  0.02101451  1
  O  O231  1  0.74331313  0.43392433  0.52689211  1
  O  O232  1  0.72722762  0.76438982  0.02357384  1
  O  O233  1  0.74451223  0.75522921  0.51978342  1
  O  O234  1  0.10063653  0.27432455  0.02186672  1
  O  O235  1  0.08990000  0.25915581  0.52619016  1
  O  O236  1  0.09020898  0.59575417  0.01905977  1
  O  O237  1  0.08559570  0.59516051  0.52851378  1
  O  O238  1  0.09956064  0.92012446  0.02046053  1
  O  O239  1  0.09326977  0.93362591  0.52128403  1
  O  O240  1  0.41849142  0.26271044  0.01434909  1
  O  O241  1  0.42194786  0.25226945  0.51886868  1
  O  O242  1  0.42445919  0.60033458  0.01088360  1
  O  O243  1  0.43660233  0.58790129  0.50948949  1
  O  O244  1  0.42865778  0.91263187  0.02503063  1
  O  O245  1  0.41976848  0.93873612  0.50628543  1
  O  O246  1  0.75719492  0.25880709  0.02337053  1
  O  O247  1  0.77558398  0.26328588  0.51628496  1
  O  O248  1  0.76610040  0.60498509  0.02783342  1
  O  O249  1  0.77320746  0.59159815  0.52303947  1
  O  O250  1  0.76148860  0.92539362  0.03878584  1
  O  O251  1  0.76390842  0.93612482  0.50539980  1
  O  O252  1  0.24086721  0.06979642  0.28082407  1
  O  O253  1  0.22549154  0.07536956  0.76399617  1
  O  O254  1  0.22447359  0.40158129  0.27203408  1
  O  O255  1  0.23978666  0.41032360  0.76900906  1
  O  O256  1  0.22946027  0.73925352  0.27272401  1
  O  O257  1  0.22395475  0.72861730  0.77302286  1
  O  O258  1  0.57310274  0.05959168  0.27930701  1
  O  O259  1  0.56947483  0.08150758  0.75733672  1
  O  O260  1  0.57283567  0.41084569  0.28489411  1
  O  O261  1  0.58083562  0.40628502  0.76539427  1
  O  O262  1  0.57354837  0.72737373  0.27907874  1
  O  O263  1  0.57042827  0.73227611  0.77572267  1
  O  O264  1  0.90360727  0.06834794  0.28353235  1
  O  O265  1  0.91601038  0.07922933  0.75914890  1
  O  O266  1  0.89548852  0.40252699  0.27452195  1
  O  O267  1  0.90690180  0.40686054  0.76743627  1
  O  O268  1  0.90357938  0.72615174  0.27324670  1
  O  O269  1  0.89986698  0.73729117  0.76247209  1
  O  O270  1  0.25713658  0.24075135  0.29078155  1
  O  O271  1  0.25903422  0.23786745  0.75834808  1
  O  O272  1  0.24777026  0.57252799  0.26261799  1
  O  O273  1  0.24887741  0.57126963  0.77656342  1
  O  O274  1  0.25508366  0.90764637  0.27131953  1
  O  O275  1  0.24777949  0.91575215  0.76824423  1
  O  O276  1  0.58657774  0.25016268  0.28616696  1
  O  O277  1  0.59726142  0.24450715  0.76439250  1
  O  O278  1  0.60583867  0.56624320  0.27632705  1
  O  O279  1  0.61429479  0.55848341  0.76320413  1
  O  O280  1  0.61202915  0.89948825  0.27042655  1
  O  O281  1  0.59828644  0.89981106  0.76997972  1
  O  O282  1  0.93074743  0.23528928  0.28222323  1
  O  O283  1  0.93247665  0.24689943  0.75733039  1
  O  O284  1  0.92783807  0.57136449  0.27051563  1
  O  O285  1  0.93340803  0.56153796  0.76956837  1
  O  O286  1  0.92578365  0.91105998  0.27717465  1
  O  O287  1  0.92631186  0.89969859  0.75834057  1
  O  O288  1  0.25550775  0.23294443  0.47631119  1
  O  O289  1  0.26095671  0.24590272  0.98550969  1
  O  O290  1  0.24843420  0.57583274  0.47252759  1
  O  O291  1  0.25669232  0.58221642  0.97780927  1
  O  O292  1  0.25569879  0.91840279  0.47366174  1
  O  O293  1  0.25663650  0.89985109  0.99458645  1
  O  O294  1  0.58236359  0.24159887  0.48143868  1
  O  O295  1  0.59265025  0.24339371  0.98705123  1
  O  O296  1  0.59823285  0.56493678  0.46869869  1
  O  O297  1  0.61152229  0.57240391  0.98732731  1
  O  O298  1  0.60361838  0.91266165  0.46648217  1
  O  O299  1  0.60003037  0.88601759  0.98808171  1
  O  O300  1  0.93416807  0.23240906  0.47349862  1
  O  O301  1  0.92759718  0.24523628  0.99196964  1
  O  O302  1  0.92740508  0.56887928  0.47712575  1
  O  O303  1  0.93591820  0.57070672  0.97774600  1
  O  O304  1  0.93011040  0.91123081  0.47745250  1
  O  O305  1  0.92676562  0.90502214  0.98425283  1
  O  O306  1  0.22903992  0.07380303  0.46993232  1
  O  O307  1  0.23321677  0.06971930  0.98130023  1
  O  O308  1  0.23001582  0.39804397  0.47619775  1
  O  O309  1  0.24300974  0.40687577  0.98800541  1
  O  O310  1  0.22620129  0.73196371  0.46762702  1
  O  O311  1  0.23388355  0.73545058  0.97779257  1
  O  O312  1  0.56677030  0.06950086  0.47568424  1
  O  O313  1  0.57324578  0.06785229  0.98506530  1
  O  O314  1  0.57548276  0.40612792  0.46748264  1
  O  O315  1  0.58218340  0.41701392  0.97784943  1
  O  O316  1  0.57690401  0.73674145  0.46303344  1
  O  O317  1  0.56771073  0.72776895  0.97973543  1
  O  O318  1  0.90626314  0.07082834  0.46774762  1
  O  O319  1  0.89925688  0.06611204  0.99732813  1
  O  O320  1  0.89809258  0.39494686  0.47893689  1
  O  O321  1  0.90313076  0.42014485  0.97971580  1
  O  O322  1  0.90147839  0.72721971  0.47465968  1
  O  O323  1  0.90841393  0.73058468  0.99060020  1
  O  O324  1  0.09645049  0.27546508  0.23932825  1
  O  O325  1  0.08694389  0.26140274  0.71989285  1
  O  O326  1  0.08840889  0.58780705  0.22532951  1
  O  O327  1  0.09553503  0.59240959  0.72211428  1
  O  O328  1  0.09336377  0.93117141  0.23811557  1
  O  O329  1  0.09247226  0.92751011  0.70888933  1
  O  O330  1  0.42462931  0.25563914  0.23739672  1
  O  O331  1  0.41856722  0.25788544  0.72536988  1
  O  O332  1  0.43708232  0.58990522  0.24001517  1
  O  O333  1  0.42527461  0.59116227  0.73711221  1
  O  O334  1  0.42097209  0.92874293  0.23840438  1
  O  O335  1  0.42348246  0.92878074  0.73389298  1
  O  O336  1  0.76532094  0.25453219  0.23835826  1
  O  O337  1  0.76347075  0.27054197  0.72380630  1
  O  O338  1  0.76937151  0.60238214  0.22506029  1
  O  O339  1  0.77337614  0.58950598  0.72115771  1
  O  O340  1  0.76774185  0.93815045  0.23079359  1
  O  O341  1  0.76591826  0.91720888  0.72828862  1
  O  O342  1  0.06556066  0.09193137  0.24611604  1
  O  O343  1  0.07820737  0.10227535  0.71229482  1
  O  O344  1  0.06260151  0.43149695  0.22751453  1
  O  O345  1  0.06531674  0.43473133  0.72454398  1
  O  O346  1  0.07004457  0.75772873  0.23400695  1
  O  O347  1  0.06326385  0.76363236  0.71960570  1
  O  O348  1  0.40011154  0.08949648  0.24186409  1
  O  O349  1  0.40294195  0.10511422  0.72431613  1
  O  O350  1  0.41529550  0.43162618  0.23332139  1
  O  O351  1  0.40830366  0.41891118  0.74034456  1
  O  O352  1  0.40010366  0.76756752  0.22371208  1
  O  O353  1  0.40335482  0.75866137  0.73585075  1
  O  O354  1  0.73580955  0.09770860  0.22921968  1
  O  O355  1  0.74207006  0.09028007  0.73353953  1
  O  O356  1  0.73640591  0.44478523  0.23182249  1
  O  O357  1  0.74073513  0.43021450  0.72136938  1
  O  O358  1  0.72469370  0.76387965  0.23074808  1
  O  O359  1  0.74656327  0.75653928  0.72565030  1
