# generated using pymatgen
data_BaLaInIrO6
_symmetry_space_group_name_H-M   'P 1'
_cell_length_a   17.52320862
_cell_length_b   17.55621060
_cell_length_c   16.50903416
_cell_angle_alpha   89.98404571
_cell_angle_beta   89.98135112
_cell_angle_gamma   89.98189356
_symmetry_Int_Tables_number   1
_chemical_formula_structural   BaLaInIrO6
_chemical_formula_sum   'Ba36 La36 In36 Ir36 O216'
_cell_volume   5078.85738485
_cell_formula_units_Z   36
loop_
 _symmetry_equiv_pos_site_id
 _symmetry_equiv_pos_as_xyz
  1  'x, y, z'
loop_
 _atom_site_type_symbol
 _atom_site_label
 _atom_site_symmetry_multiplicity
 _atom_site_fract_x
 _atom_site_fract_y
 _atom_site_fract_z
 _atom_site_occupancy
  Ba  Ba0  1  0.50019241  0.65722434  0.87832628  1
  Ba  Ba1  1  0.50021037  0.99249639  0.87121220  1
  Ba  Ba2  1  0.66819095  0.82978067  0.38186367  1
  Ba  Ba3  1  0.66783861  0.15761833  0.37426062  1
  Ba  Ba4  1  1.00599018  0.84061587  0.62888891  1
  Ba  Ba5  1  0.83024247  0.68001444  0.12812048  1
  Ba  Ba6  1  0.33148674  0.17438773  0.12962672  1
  Ba  Ba7  1  0.33214542  0.49092381  0.87427348  1
  Ba  Ba8  1  0.33069199  0.17317592  0.62572096  1
  Ba  Ba9  1  0.16051604  0.67131521  0.62953841  1
  Ba  Ba10  1  0.49841429  0.00816769  0.12061618  1
  Ba  Ba11  1  0.33437181  0.50467714  0.12441659  1
  Ba  Ba12  1  0.16419355  0.32902303  0.87392253  1
  Ba  Ba13  1  0.16965314  0.65508652  0.87598168  1
  Ba  Ba14  1  0.16728887  0.65743944  0.37722787  1
  Ba  Ba15  1  0.83911955  0.98846857  0.37247187  1
  Ba  Ba16  1  0.16386838  0.34405215  0.12684026  1
  Ba  Ba17  1  0.83882484  0.00414336  0.62281045  1
  Ba  Ba18  1  0.83598428  0.67591758  0.62982051  1
  Ba  Ba19  1  0.50408284  0.99236558  0.36962030  1
  Ba  Ba20  1  0.16209744  0.01323536  0.62427077  1
  Ba  Ba21  1  -0.00231606  0.15638135  0.37024066  1
  Ba  Ba22  1  0.49978992  0.67447151  0.12821592  1
  Ba  Ba23  1  1.00165832  0.17966274  0.12538042  1
  Ba  Ba24  1  0.49547190  0.34150559  0.12748834  1
  Ba  Ba25  1  0.33119273  0.83917214  0.62471296  1
  Ba  Ba26  1  0.16702550  0.01304025  0.12530195  1
  Ba  Ba27  1  0.83315488  0.34001858  0.62630931  1
  Ba  Ba28  1  0.83443569  0.65189515  0.87727152  1
  Ba  Ba29  1  0.33056462  0.50631521  0.62416789  1
  Ba  Ba30  1  -0.00164058  0.82543563  0.37548203  1
  Ba  Ba31  1  0.33406901  0.84129381  0.12358615  1
  Ba  Ba32  1  1.00198781  0.51041055  0.12825612  1
  Ba  Ba33  1  0.66806384  0.49100208  0.37081264  1
  Ba  Ba34  1  1.00324741  0.50490783  0.62832021  1
  Ba  Ba35  1  0.16409792  0.34043621  0.62473782  1
  La  La36  1  0.17389063  0.99135552  0.87237708  1
  La  La37  1  0.32806689  0.82084770  0.36869000  1
  La  La38  1  0.16645353  0.31388396  0.37498954  1
  La  La39  1  -0.00288342  0.15430259  0.87560023  1
  La  La40  1  0.66282831  0.81586053  0.87751309  1
  La  La41  1  0.32672947  0.16222106  0.87746136  1
  La  La42  1  0.66046761  0.48716571  0.87505331  1
  La  La43  1  0.82685647  0.34867159  0.12151769  1
  La  La44  1  0.17025286  0.98620266  0.37441409  1
  La  La45  1  0.16093858  0.67868713  0.12483866  1
  La  La46  1  0.67213401  0.52060823  0.12124241  1
  La  La47  1  0.50085908  0.65455256  0.37503188  1
  La  La48  1  0.66427019  0.15540586  0.87271454  1
  La  La49  1  1.00547511  0.84672190  0.12161991  1
  La  La50  1  0.67327770  0.85014927  0.62986606  1
  La  La51  1  0.83935701  0.31624430  0.87392921  1
  La  La52  1  0.00013090  0.48520985  0.87562853  1
  La  La53  1  0.83936676  0.98682060  0.87585493  1
  La  La54  1  0.33206286  0.81654093  0.88135251  1
  La  La55  1  0.49869276  0.32152383  0.87718473  1
  La  La56  1  1.00677697  0.18112189  0.62095436  1
  La  La57  1  0.66958571  0.17785914  0.12506302  1
  La  La58  1  0.67414646  0.51563614  0.62612102  1
  La  La59  1  0.84158096  0.31768489  0.37601277  1
  La  La60  1  0.66393250  0.84517653  0.12970564  1
  La  La61  1  0.67030372  0.17676704  0.62410418  1
  La  La62  1  -0.00417235  0.48711156  0.38055589  1
  La  La63  1  0.84381015  0.65539392  0.37444323  1
  La  La64  1  -0.00301716  0.81466748  0.87474740  1
  La  La65  1  0.49240224  0.68239496  0.62436071  1
  La  La66  1  0.49535791  0.01301720  0.61508817  1
  La  La67  1  0.50029510  0.31823152  0.37297905  1
  La  La68  1  0.32891126  0.47931865  0.37192981  1
  La  La69  1  0.32910321  0.15049529  0.37254132  1
  La  La70  1  0.83310598  0.01193558  0.12432428  1
  La  La71  1  0.49238793  0.34177257  0.62018561  1
  In  In72  1  0.83252312  0.50005539  0.24998504  1
  In  In73  1  0.66349521  0.33414316  0.49913207  1
  In  In74  1  0.33210086  0.66354090  0.24906726  1
  In  In75  1  0.50172719  0.49860757  0.50001573  1
  In  In76  1  0.66500502  0.66654608  0.74898259  1
  In  In77  1  0.50010851  0.83452814  0.49907244  1
  In  In78  1  0.83235917  0.83536989  0.00118042  1
  In  In79  1  0.16846445  0.83387273  0.50022376  1
  In  In80  1  0.50372801  0.49749358  0.74813748  1
  In  In81  1  0.16457611  0.83545587  -0.00125177  1
  In  In82  1  0.66802188  0.67278845  0.25739929  1
  In  In83  1  0.83334658  0.83389286  0.75290983  1
  In  In84  1  0.00126798  0.66365259  0.50155741  1
  In  In85  1  0.83381121  0.83005197  0.50163821  1
  In  In86  1  0.66575119  0.00213796  0.50086430  1
  In  In87  1  0.33270717  0.33369379  0.00082284  1
  In  In88  1  0.83288584  0.16573208  0.24636783  1
  In  In89  1  0.50035238  0.49855776  0.25072370  1
  In  In90  1  0.50145098  0.83254831  -0.00070079  1
  In  In91  1  -0.00017853  0.33495080  0.24857447  1
  In  In92  1  0.33743409  -0.00002440  0.74688131  1
  In  In93  1  0.83139144  0.49937964  0.50333787  1
  In  In94  1  0.16780731  0.83488241  0.75547955  1
  In  In95  1  0.33464481  0.66430038  0.49932614  1
  In  In96  1  0.66604365  0.33233990  0.75145755  1
  In  In97  1  0.83430820  0.16582521  0.50399735  1
  In  In98  1  0.67061002  0.00179606  -0.00376978  1
  In  In99  1  0.50151232  0.16685924  0.74840216  1
  In  In100  1  0.50071770  0.16512463  0.24683150  1
  In  In101  1  0.16624355  0.49520951  0.75084938  1
  In  In102  1  -0.00358986  0.66247378  0.00239847  1
  In  In103  1  0.33468486  0.00264136  -0.00258839  1
  In  In104  1  0.16128443  0.16934529  -0.00085170  1
  In  In105  1  0.66747542  0.33337012  -0.00142705  1
  In  In106  1  0.00287626  0.00091371  0.49854034  1
  In  In107  1  0.33432064  0.66465699  0.74946463  1
  Ir  Ir108  1  0.83320912  0.16732126  -0.00291905  1
  Ir  Ir109  1  -0.00168944  0.00210716  -0.00403855  1
  Ir  Ir110  1  0.33310350  -0.00152734  0.25266149  1
  Ir  Ir111  1  0.16488554  0.83443814  0.24690469  1
  Ir  Ir112  1  0.00233428  -0.00302438  0.24251923  1
  Ir  Ir113  1  0.33100498  0.66208774  0.00251171  1
  Ir  Ir114  1  -0.00727392  0.33575514  -0.00324390  1
  Ir  Ir115  1  0.49673097  0.16734190  0.49829728  1
  Ir  Ir116  1  0.33381809  0.00346982  0.49606571  1
  Ir  Ir117  1  0.83156067  0.49764814  0.75379815  1
  Ir  Ir118  1  0.16670343  0.16349671  0.25431130  1
  Ir  Ir119  1  0.49795544  0.83605063  0.25215245  1
  Ir  Ir120  1  0.16444236  0.49988564  0.25353235  1
  Ir  Ir121  1  0.50652089  0.83550311  0.74985275  1
  Ir  Ir122  1  -0.00137491  0.66206948  0.75593218  1
  Ir  Ir123  1  0.00208532  0.66810754  0.25029415  1
  Ir  Ir124  1  0.66445413  0.66629271  0.50174959  1
  Ir  Ir125  1  0.16781805  0.16783348  0.49859370  1
  Ir  Ir126  1  0.50257917  0.49956546  -0.00088423  1
  Ir  Ir127  1  0.16366548  0.50094453  0.00576749  1
  Ir  Ir128  1  0.33253631  0.32921825  0.49863400  1
  Ir  Ir129  1  0.66944480  0.00291194  0.75133559  1
  Ir  Ir130  1  0.66702835  0.33149886  0.24645978  1
  Ir  Ir131  1  0.15990742  0.16989876  0.74969913  1
  Ir  Ir132  1  0.83730844  0.83558851  0.24605025  1
  Ir  Ir133  1  0.00239493  0.00630924  0.75732046  1
  Ir  Ir134  1  0.83359807  0.16361660  0.75303331  1
  Ir  Ir135  1  0.00347211  0.33343655  0.49875473  1
  Ir  Ir136  1  0.16624281  0.49311609  0.49322382  1
  Ir  Ir137  1  0.32971717  0.33074524  0.25628149  1
  Ir  Ir138  1  0.82912021  0.49654757  -0.00265283  1
  Ir  Ir139  1  0.66872987  -0.00334214  0.24525288  1
  Ir  Ir140  1  0.66768311  0.66607498  0.00194666  1
  Ir  Ir141  1  0.33550131  0.32947747  0.74506324  1
  Ir  Ir142  1  -0.00522880  0.32990068  0.75240949  1
  Ir  Ir143  1  0.50130597  0.16918544  -0.00429227  1
  O  O144  1  0.31396442  0.33015987  0.13417649  1
  O  O145  1  0.31123931  0.32747193  0.62173011  1
  O  O146  1  0.29913623  0.66428869  0.12186358  1
  O  O147  1  0.30890761  0.66848629  0.62399190  1
  O  O148  1  0.31596961  0.99970421  0.13165492  1
  O  O149  1  0.31121775  0.99986638  0.61561526  1
  O  O150  1  0.64343291  0.31714947  0.12582886  1
  O  O151  1  0.62965568  0.31428196  0.62713957  1
  O  O152  1  0.65078784  0.65971282  0.12282563  1
  O  O153  1  0.62880153  0.65332386  0.62086136  1
  O  O154  1  0.65117603  0.98482360  0.12525953  1
  O  O155  1  0.63305310  0.99318637  0.63456138  1
  O  O156  1  0.96558932  0.33564106  0.11787009  1
  O  O157  1  0.97974638  0.31791132  0.62622690  1
  O  O158  1  0.98104454  0.66624928  0.13169803  1
  O  O159  1  0.98625348  0.66282540  0.63494120  1
  O  O160  1  0.96758411  0.98807720  0.11748704  1
  O  O161  1  0.98882498  1.00016566  0.63722377  1
  O  O162  1  0.18032548  0.16904379  0.13251900  1
  O  O163  1  0.18282653  0.17068841  0.62391327  1
  O  O164  1  0.18603136  0.50238026  0.13139387  1
  O  O165  1  0.18030737  0.49375420  0.61488232  1
  O  O166  1  0.18343957  0.82338031  0.12720346  1
  O  O167  1  0.17835264  0.83577728  0.62940731  1
  O  O168  1  0.53201052  0.16840141  0.11739921  1
  O  O169  1  0.53199544  0.16188467  0.61827842  1
  O  O170  1  0.53387713  0.49535981  0.11944829  1
  O  O171  1  0.53986181  0.47552485  0.62326383  1
  O  O172  1  0.52864539  0.83205691  0.13085792  1
  O  O173  1  0.53938067  0.82398238  0.63183603  1
  O  O174  1  0.85509890  0.15259304  0.11620949  1
  O  O175  1  0.86934691  0.16232992  0.63567508  1
  O  O176  1  0.85259962  0.48748534  0.11855611  1
  O  O177  1  0.85431395  0.49743603  0.63471001  1
  O  O178  1  0.86589563  0.83698271  0.12724218  1
  O  O179  1  0.85496718  0.83392412  0.62976251  1
  O  O180  1  0.14561685  0.16914213  0.37768888  1
  O  O181  1  0.13259618  0.17316912  0.86839870  1
  O  O182  1  0.13351399  0.49818291  0.37279104  1
  O  O183  1  0.13831093  0.49833744  0.88488064  1
  O  O184  1  0.14894085  0.84635631  0.36509016  1
  O  O185  1  0.12852327  0.84833396  0.87698098  1
  O  O186  1  0.46762939  0.17451138  0.37818826  1
  O  O187  1  0.46686000  0.17555895  0.87648353  1
  O  O188  1  0.46401466  0.51321455  0.37649177  1
  O  O189  1  0.48221497  0.50388129  0.88081871  1
  O  O190  1  0.46625032  0.83952958  0.37029026  1
  O  O191  1  0.47078315  0.83745464  0.86828897  1
  O  O192  1  0.81666448  0.17919765  0.37351932  1
  O  O193  1  0.80113865  0.17600740  0.87535450  1
  O  O194  1  0.81525322  0.51639239  0.37675212  1
  O  O195  1  0.79854122  0.49798285  0.87550099  1
  O  O196  1  0.81908633  0.83268456  0.36534996  1
  O  O197  1  0.79871710  0.84776377  0.87585160  1
  O  O198  1  0.03121783  0.00072649  0.36131063  1
  O  O199  1  0.03316962  0.01797770  0.87742321  1
  O  O200  1  0.02862242  0.34339145  0.37909472  1
  O  O201  1  0.01351927  0.34538983  0.87476302  1
  O  O202  1  0.01702922  0.66816898  0.36822555  1
  O  O203  1  0.01674281  0.66628505  0.87504130  1
  O  O204  1  0.35586895  0.01256432  0.37548851  1
  O  O205  1  0.35409159  0.02890348  0.87105882  1
  O  O206  1  0.36170241  0.33671108  0.37851000  1
  O  O207  1  0.36094586  0.32810815  0.86593282  1
  O  O208  1  0.36527678  0.67858874  0.37358305  1
  O  O209  1  0.35122951  0.66692113  0.88292842  1
  O  O210  1  0.68644507  0.00181356  0.36574385  1
  O  O211  1  0.70460852  0.01727470  0.86963346  1
  O  O212  1  0.70383631  0.33407791  0.36452027  1
  O  O213  1  0.70594056  0.34517402  0.87621635  1
  O  O214  1  0.70526022  0.67448331  0.38494344  1
  O  O215  1  0.68555701  0.67564668  0.88160598  1
  O  O216  1  0.06118031  0.09660650  0.01193564  1
  O  O217  1  0.07221743  0.10559946  0.52039203  1
  O  O218  1  0.06116310  0.43405394  0.01167686  1
  O  O219  1  0.06934993  0.42800435  0.51045730  1
  O  O220  1  0.06977350  0.76161173  0.02099918  1
  O  O221  1  0.07584004  0.75619235  0.51092250  1
  O  O222  1  0.41086203  0.10208290  0.01673324  1
  O  O223  1  0.40639167  0.09540520  0.51900210  1
  O  O224  1  0.41334810  0.42708243  0.01262071  1
  O  O225  1  0.40295280  0.41806661  0.51767343  1
  O  O226  1  0.40282449  0.75248283  0.01163545  1
  O  O227  1  0.41640551  0.75672713  0.52690070  1
  O  O228  1  0.73544943  0.10701511  0.02130833  1
  O  O229  1  0.73397716  0.09707822  0.52743615  1
  O  O230  1  0.73471945  0.43358931  0.02636225  1
  O  O231  1  0.73204779  0.43167158  0.52626581  1
  O  O232  1  0.72890400  0.76693016  0.02220614  1
  O  O233  1  0.72525828  0.75873750  0.53179679  1
  O  O234  1  0.08542149  0.26834727  0.01328642  1
  O  O235  1  0.10002729  0.26412319  0.51190704  1
  O  O236  1  0.10015521  0.59680168  0.02489375  1
  O  O237  1  0.09872401  0.58350371  0.51026182  1
  O  O238  1  0.08653398  0.93311506  0.02074525  1
  O  O239  1  0.10497379  0.93785577  0.49937551  1
  O  O240  1  0.43459087  0.26147801  0.00957375  1
  O  O241  1  0.43055561  0.26406608  0.52007347  1
  O  O242  1  0.42754270  0.59025533  0.02164448  1
  O  O243  1  0.43585139  0.59679481  0.52691430  1
  O  O244  1  0.42570677  0.92431210  0.00983513  1
  O  O245  1  0.42570035  0.93700889  0.52056678  1
  O  O246  1  0.77038587  0.26315633  0.02333209  1
  O  O247  1  0.75303767  0.25538857  0.52248506  1
  O  O248  1  0.76077708  0.59058550  0.02323031  1
  O  O249  1  0.75226498  0.59561028  0.52840378  1
  O  O250  1  0.77733057  0.94396283  0.01482314  1
  O  O251  1  0.75122465  0.91827101  0.51917757  1
  O  O252  1  0.23935673  0.06935190  0.27806077  1
  O  O253  1  0.23129180  0.08105796  0.77224411  1
  O  O254  1  0.23130636  0.40149425  0.28052810  1
  O  O255  1  0.24687876  0.40043633  0.76262969  1
  O  O256  1  0.23928926  0.74704297  0.26770990  1
  O  O257  1  0.25361481  0.75175240  0.78182329  1
  O  O258  1  0.58072118  0.07125768  0.25810328  1
  O  O259  1  0.58640428  0.07767864  0.77441895  1
  O  O260  1  0.57270741  0.39767803  0.27455530  1
  O  O261  1  0.57168415  0.40169582  0.78749159  1
  O  O262  1  0.56507956  0.74388560  0.27740680  1
  O  O263  1  0.57448761  0.74776238  0.77651107  1
  O  O264  1  0.91086953  0.06697670  0.25613774  1
  O  O265  1  0.90523436  0.07327881  0.78340179  1
  O  O266  1  0.90346082  0.40624177  0.28098973  1
  O  O267  1  0.90081259  0.40272861  0.77890915  1
  O  O268  1  0.90267701  0.73403347  0.26988202  1
  O  O269  1  0.91324695  0.74052732  0.77595228  1
  O  O270  1  0.25981661  0.23432071  0.28182119  1
  O  O271  1  0.26199245  0.23432889  0.77177939  1
  O  O272  1  0.25958243  0.56226009  0.27739366  1
  O  O273  1  0.25560608  0.57245751  0.76446869  1
  O  O274  1  0.25939721  0.90612850  0.27487580  1
  O  O275  1  0.26416012  0.91154234  0.78550751  1
  O  O276  1  0.59457629  0.24382194  0.26941837  1
  O  O277  1  0.59335645  0.23850397  0.78577109  1
  O  O278  1  0.58740446  0.58258253  0.27322372  1
  O  O279  1  0.60624037  0.56293604  0.76979594  1
  O  O280  1  0.59897470  0.90129511  0.26218682  1
  O  O281  1  0.60499100  0.90411956  0.77740754  1
  O  O282  1  0.91984700  0.24751343  0.26658443  1
  O  O283  1  0.92455615  0.23553310  0.78093213  1
  O  O284  1  0.93386340  0.57568203  0.27435265  1
  O  O285  1  0.92888912  0.56302743  0.77768075  1
  O  O286  1  0.93581857  0.90210825  0.25826759  1
  O  O287  1  0.93470595  0.91300032  0.78507759  1
  O  O288  1  0.26395210  0.23541578  0.47082293  1
  O  O289  1  0.26163193  0.23747369  0.97935781  1
  O  O290  1  0.26160837  0.55756528  0.47246597  1
  O  O291  1  0.25892530  0.56811649  0.98646262  1
  O  O292  1  0.26873040  0.91320922  0.46785516  1
  O  O293  1  0.25958675  0.90656778  0.96891509  1
  O  O294  1  0.58182861  0.23897082  0.47289349  1
  O  O295  1  0.59417790  0.23694036  0.96978077  1
  O  O296  1  0.59815275  0.57692143  0.47587549  1
  O  O297  1  0.60511840  0.56395347  0.98373724  1
  O  O298  1  0.58845283  0.91137086  0.49155771  1
  O  O299  1  0.60555943  0.90006317  0.97952518  1
  O  O300  1  0.93012471  0.24687565  0.48284582  1
  O  O301  1  0.92814665  0.23689032  0.97046810  1
  O  O302  1  0.93130425  0.56674689  0.47916141  1
  O  O303  1  0.92631107  0.55910949  0.97677097  1
  O  O304  1  0.92752263  0.90737617  0.48852123  1
  O  O305  1  0.93591986  0.90813426  0.97029527  1
  O  O306  1  0.23777651  0.07352272  0.47045962  1
  O  O307  1  0.23446558  0.07440463  0.97471145  1
  O  O308  1  0.23749735  0.39702968  0.46824340  1
  O  O309  1  0.23521372  0.41074107  0.98980448  1
  O  O310  1  0.25237793  0.75167968  0.47008605  1
  O  O311  1  0.24543062  0.73866969  0.98403872  1
  O  O312  1  0.56528001  0.07696540  0.48489177  1
  O  O313  1  0.57546566  0.08106273  0.97604169  1
  O  O314  1  0.56429333  0.39739671  0.46814335  1
  O  O315  1  0.57038661  0.40758012  0.97214394  1
  O  O316  1  0.57159999  0.73012658  0.47403659  1
  O  O317  1  0.57855003  0.73787439  0.98362181  1
  O  O318  1  0.91038871  0.07570665  0.48289431  1
  O  O319  1  0.90073084  0.07006028  0.97037352  1
  O  O320  1  0.90816247  0.40014900  0.47550948  1
  O  O321  1  0.89127314  0.39801123  0.97641723  1
  O  O322  1  0.89646199  0.72750040  0.48089171  1
  O  O323  1  0.90857333  0.74465110  0.97943316  1
  O  O324  1  0.09782752  0.25823517  0.24568759  1
  O  O325  1  0.08361108  0.25671232  0.72602138  1
  O  O326  1  0.10148819  0.60277140  0.22931682  1
  O  O327  1  0.08442835  0.58768162  0.74241968  1
  O  O328  1  0.08939975  0.92156791  0.21782873  1
  O  O329  1  0.09590759  0.94293099  0.74647166  1
  O  O330  1  0.42229679  0.26144786  0.24150076  1
  O  O331  1  0.43003435  0.26520573  0.72515920  1
  O  O332  1  0.42430018  0.59071877  0.23025665  1
  O  O333  1  0.43592726  0.59614301  0.72614401  1
  O  O334  1  0.42693002  0.92851480  0.22962486  1
  O  O335  1  0.44090897  0.92574616  0.72076466  1
  O  O336  1  0.75708148  0.26166134  0.21601344  1
  O  O337  1  0.75986787  0.25002277  0.73025035  1
  O  O338  1  0.75521774  0.59040899  0.23100525  1
  O  O339  1  0.76326336  0.58776153  0.73357816  1
  O  O340  1  0.76855013  0.92992672  0.22059221  1
  O  O341  1  0.75602649  0.93277816  0.73107871  1
  O  O342  1  0.07254489  0.09097141  0.22847575  1
  O  O343  1  0.06064253  0.10741904  0.73251795  1
  O  O344  1  0.07192325  0.43270265  0.23831083  1
  O  O345  1  0.06743208  0.42007960  0.74302020  1
  O  O346  1  0.07203875  0.76266914  0.21981404  1
  O  O347  1  0.06869401  0.75410827  0.74810308  1
  O  O348  1  0.40297043  0.09080698  0.24098090  1
  O  O349  1  0.42033418  0.08412470  0.71785348  1
  O  O350  1  0.39893309  0.42174105  0.24505578  1
  O  O351  1  0.40948416  0.41641963  0.72459331  1
  O  O352  1  0.40767884  0.76795943  0.23636212  1
  O  O353  1  0.41987897  0.76257054  0.73019181  1
  O  O354  1  0.73688230  0.08975605  0.21900564  1
  O  O355  1  0.73538960  0.09863544  0.72489366  1
  O  O356  1  0.73383360  0.42252526  0.21728289  1
  O  O357  1  0.73623628  0.43393157  0.72782564  1
  O  O358  1  0.73870912  0.77341800  0.22639258  1
  O  O359  1  0.73208431  0.76535572  0.73261846  1
