# generated using pymatgen
data_BaLaInIrO6
_symmetry_space_group_name_H-M   'P 1'
_cell_length_a   17.51007185
_cell_length_b   17.53419792
_cell_length_c   16.47769917
_cell_angle_alpha   90.01263541
_cell_angle_beta   90.00583996
_cell_angle_gamma   89.91863028
_symmetry_Int_Tables_number   1
_chemical_formula_structural   BaLaInIrO6
_chemical_formula_sum   'Ba36 La36 In36 Ir36 O216'
_cell_volume   5059.06141534
_cell_formula_units_Z   36
loop_
 _symmetry_equiv_pos_site_id
 _symmetry_equiv_pos_as_xyz
  1  'x, y, z'
loop_
 _atom_site_type_symbol
 _atom_site_label
 _atom_site_symmetry_multiplicity
 _atom_site_fract_x
 _atom_site_fract_y
 _atom_site_fract_z
 _atom_site_occupancy
  Ba  Ba0  1  1.00045050  0.50897104  0.12947860  1
  Ba  Ba1  1  -0.00264786  0.48842516  0.37601359  1
  Ba  Ba2  1  0.50140861  0.34142396  0.12657223  1
  Ba  Ba3  1  0.16865792  0.00995465  0.62522267  1
  Ba  Ba4  1  0.82847598  0.00746232  0.12305539  1
  Ba  Ba5  1  0.50401246  0.00783224  0.12210797  1
  Ba  Ba6  1  0.16298203  0.32456103  0.87573540  1
  Ba  Ba7  1  0.49956667  0.33820310  0.62811297  1
  Ba  Ba8  1  0.16483760  0.99535552  0.38161661  1
  Ba  Ba9  1  0.32969825  0.48501425  0.87586440  1
  Ba  Ba10  1  0.16818779  0.32876649  0.37594405  1
  Ba  Ba11  1  1.00217869  0.17468432  0.62356830  1
  Ba  Ba12  1  0.83277379  0.67274620  0.12205306  1
  Ba  Ba13  1  0.66403998  0.49399096  0.87390094  1
  Ba  Ba14  1  1.00366931  0.50681353  0.62743014  1
  Ba  Ba15  1  -0.00151262  0.82470086  0.87472555  1
  Ba  Ba16  1  0.33209195  0.50256794  0.62327460  1
  Ba  Ba17  1  0.16627987  0.99506392  0.87366975  1
  Ba  Ba18  1  0.83281289  0.68068859  0.62370896  1
  Ba  Ba19  1  0.16676074  0.65992490  0.87727532  1
  Ba  Ba20  1  0.66737714  0.17719336  0.62543828  1
  Ba  Ba21  1  -0.00220516  0.49094740  0.87767800  1
  Ba  Ba22  1  0.33091147  0.48943634  0.37490293  1
  Ba  Ba23  1  0.49764852  0.01041813  0.62301144  1
  Ba  Ba24  1  0.33080849  0.83856699  0.62419130  1
  Ba  Ba25  1  0.49936541  0.32573497  0.87741858  1
  Ba  Ba26  1  0.16549788  0.33991749  0.62643196  1
  Ba  Ba27  1  0.83712194  0.32092757  0.37045599  1
  Ba  Ba28  1  1.00037997  0.84263469  0.12750847  1
  Ba  Ba29  1  0.50004868  0.32185223  0.37496944  1
  Ba  Ba30  1  0.66729129  0.82806866  0.87672455  1
  Ba  Ba31  1  0.00075165  0.15636260  0.86945387  1
  Ba  Ba32  1  0.16911831  0.66090389  0.37323493  1
  Ba  Ba33  1  0.33041749  0.17347933  0.62476420  1
  Ba  Ba34  1  0.33286117  0.50770412  0.12724811  1
  Ba  Ba35  1  0.66527569  0.16084619  0.87267715  1
  La  La36  1  0.15917567  0.01459182  0.12929078  1
  La  La37  1  0.49941202  0.98669567  0.37367252  1
  La  La38  1  0.32795108  0.82030736  0.87484111  1
  La  La39  1  1.00697620  0.84506749  0.62426967  1
  La  La40  1  0.49831220  0.98708351  0.87308974  1
  La  La41  1  0.50579926  0.65434801  0.87501167  1
  La  La42  1  -0.00477112  0.81819808  0.37748264  1
  La  La43  1  0.32563103  0.15724333  0.87303398  1
  La  La44  1  0.33809353  0.17810408  0.12214834  1
  La  La45  1  0.67346253  0.84391612  0.11730738  1
  La  La46  1  0.82485477  0.35030832  0.62444520  1
  La  La47  1  0.84050807  0.65228799  0.37699532  1
  La  La48  1  0.66341124  0.81985651  0.37305773  1
  La  La49  1  0.33050178  0.15998262  0.37744075  1
  La  La50  1  0.84183369  0.98279150  0.87188485  1
  La  La51  1  0.99967773  0.17673993  0.12543519  1
  La  La52  1  0.84204326  0.65333744  0.87297260  1
  La  La53  1  0.82995287  0.01172469  0.62704641  1
  La  La54  1  -0.00419949  0.15176680  0.37592539  1
  La  La55  1  0.66109054  0.14929957  0.37499823  1
  La  La56  1  0.67217231  0.18587324  0.12432598  1
  La  La57  1  0.50499628  0.65067806  0.37585505  1
  La  La58  1  0.67275685  0.51481931  0.12299326  1
  La  La59  1  0.66268957  0.48298137  0.36973198  1
  La  La60  1  0.67311389  0.84991579  0.62465847  1
  La  La61  1  0.15954614  0.67782663  0.12420676  1
  La  La62  1  0.84069775  0.31681910  0.87324082  1
  La  La63  1  0.16378635  0.34879721  0.12643321  1
  La  La64  1  0.16512500  0.66761170  0.63267158  1
  La  La65  1  0.50058776  0.67885783  0.63061290  1
  La  La66  1  0.49815644  0.68355720  0.12406109  1
  La  La67  1  0.82979425  0.34962102  0.12526041  1
  La  La68  1  0.83640733  0.98401514  0.37592240  1
  La  La69  1  0.33216109  0.82574869  0.37674087  1
  La  La70  1  0.67221846  0.51412366  0.62199739  1
  La  La71  1  0.33456349  0.84370643  0.12359165  1
  In  In72  1  0.83266293  0.83306731  0.25003666  1
  In  In73  1  0.83156720  0.50021702  0.25147696  1
  In  In74  1  0.50055184  0.50018253  0.74798622  1
  In  In75  1  -0.00315702  0.00242057  0.00244661  1
  In  In76  1  0.33533883  0.66564854  0.00199632  1
  In  In77  1  0.16696075  0.83412217  0.75062823  1
  In  In78  1  0.16677017  0.49925138  -0.00019292  1
  In  In79  1  0.83328500  0.16610583  0.74861303  1
  In  In80  1  0.83110045  0.49707549  -0.00401349  1
  In  In81  1  -0.00191808  0.66676103  0.50301922  1
  In  In82  1  0.16456168  0.83369901  0.49771187  1
  In  In83  1  0.66704442  0.00544482  -0.00335518  1
  In  In84  1  0.50495487  0.83227708  0.50111209  1
  In  In85  1  0.66607723  0.33463797  0.75214355  1
  In  In86  1  0.50080435  0.16299482  0.24756929  1
  In  In87  1  0.33542239  0.66485386  0.75072311  1
  In  In88  1  0.16933849  0.83733457  0.00104583  1
  In  In89  1  0.66770936  -0.00105441  0.25075934  1
  In  In90  1  0.66648147  0.33055747  0.49752981  1
  In  In91  1  0.33745357  0.66708708  0.50051931  1
  In  In92  1  0.16602981  0.16801845  0.00340683  1
  In  In93  1  -0.00212048  0.33344175  0.74787511  1
  In  In94  1  0.83215387  0.16666332  0.49708501  1
  In  In95  1  0.33488776  0.33246593  0.24766634  1
  In  In96  1  0.66535096  0.67018187  0.24914038  1
  In  In97  1  -0.00071517  0.66810321  0.00184249  1
  In  In98  1  0.33564620  0.66844267  0.25006095  1
  In  In99  1  0.50034958  0.49997071  0.00454408  1
  In  In100  1  -0.00002141  0.32756029  0.25013528  1
  In  In101  1  0.16818571  0.83826242  0.25344676  1
  In  In102  1  0.33479708  0.00109242  0.00186743  1
  In  In103  1  0.66499198  0.00208554  0.75161161  1
  In  In104  1  0.16676981  0.50160952  0.49929953  1
  In  In105  1  0.66959343  0.67271568  0.75014906  1
  In  In106  1  0.33619232  0.33134965  0.50053993  1
  In  In107  1  0.16265495  0.16693107  0.49671826  1
  Ir  Ir108  1  0.83084204  0.16467475  0.24793481  1
  Ir  Ir109  1  0.16698766  0.16303776  0.74994570  1
  Ir  Ir110  1  0.49968797  0.16801656  -0.00234437  1
  Ir  Ir111  1  0.50724884  0.50067431  0.25144318  1
  Ir  Ir112  1  0.16629355  0.49863427  0.75224916  1
  Ir  Ir113  1  0.66936763  0.33155048  0.00313209  1
  Ir  Ir114  1  0.49962764  0.16058384  0.49892092  1
  Ir  Ir115  1  0.00058355  0.66744031  0.25223846  1
  Ir  Ir116  1  0.16776360  0.16292700  0.24896236  1
  Ir  Ir117  1  0.16567448  0.49993498  0.24863254  1
  Ir  Ir118  1  0.33221964  0.32680329  0.00016236  1
  Ir  Ir119  1  0.33970234  0.00273429  0.49710496  1
  Ir  Ir120  1  0.49881189  0.83516458  0.24817357  1
  Ir  Ir121  1  0.66889441  0.33188199  0.24727648  1
  Ir  Ir122  1  0.33223521  0.00113400  0.25160060  1
  Ir  Ir123  1  -0.00316095  -0.00339313  0.74585496  1
  Ir  Ir124  1  0.66860434  -0.00184062  0.49820390  1
  Ir  Ir125  1  0.50957963  0.50263068  0.49598482  1
  Ir  Ir126  1  0.49314318  0.16523689  0.75378332  1
  Ir  Ir127  1  0.50121686  0.83431393  0.00151499  1
  Ir  Ir128  1  -0.00233233  0.00376099  0.25331274  1
  Ir  Ir129  1  0.82978258  0.83150739  -0.00435843  1
  Ir  Ir130  1  0.83684233  0.83424584  0.74411527  1
  Ir  Ir131  1  0.82903879  0.50206491  0.50215132  1
  Ir  Ir132  1  -0.00546090  0.33318914  0.49813363  1
  Ir  Ir133  1  -0.00607979  -0.00308315  0.49723800  1
  Ir  Ir134  1  0.82940861  0.83525601  0.50083666  1
  Ir  Ir135  1  0.67001665  0.66801529  0.49612402  1
  Ir  Ir136  1  0.83340315  0.16898369  0.00444869  1
  Ir  Ir137  1  -0.00513088  0.32749963  0.00378234  1
  Ir  Ir138  1  -0.00360837  0.66584405  0.75001892  1
  Ir  Ir139  1  0.50065841  0.83542159  0.75454530  1
  Ir  Ir140  1  0.33077732  0.32964047  0.75333611  1
  Ir  Ir141  1  0.66528390  0.66994364  -0.00178062  1
  Ir  Ir142  1  0.34007893  0.00204356  0.74909541  1
  Ir  Ir143  1  0.83200270  0.50274357  0.74574370  1
  O  O144  1  0.30364437  0.31908646  0.12078122  1
  O  O145  1  0.31722786  0.33109608  0.63281224  1
  O  O146  1  0.29754583  0.67135202  0.12814612  1
  O  O147  1  0.29989213  0.66625955  0.62586336  1
  O  O148  1  0.29797532  0.98491071  0.13420664  1
  O  O149  1  0.31780645  0.99184467  0.62192331  1
  O  O150  1  0.64702271  0.32058438  0.12533387  1
  O  O151  1  0.65093612  0.33521147  0.62321171  1
  O  O152  1  0.63501432  0.66342179  0.11958147  1
  O  O153  1  0.63780189  0.66034566  0.61586212  1
  O  O154  1  0.65385907  0.98254467  0.12358745  1
  O  O155  1  0.64684115  0.98704733  0.61964007  1
  O  O156  1  0.96643702  0.31873383  0.12260013  1
  O  O157  1  0.96477372  0.33245679  0.61778848  1
  O  O158  1  0.98169164  0.66789372  0.13358217  1
  O  O159  1  0.98047549  0.66605359  0.63099051  1
  O  O160  1  0.97635006  1.00322847  0.13486598  1
  O  O161  1  0.96465982  0.98636345  0.61977642  1
  O  O162  1  0.20051726  0.15204350  0.13206951  1
  O  O163  1  0.17712165  0.16592593  0.62826569  1
  O  O164  1  0.18127217  0.49015158  0.12957648  1
  O  O165  1  0.17879815  0.50502250  0.63291138  1
  O  O166  1  0.19819403  0.82285738  0.12948265  1
  O  O167  1  0.17748379  0.81328542  0.62391304  1
  O  O168  1  0.53440866  0.16242772  0.11735263  1
  O  O169  1  0.52107452  0.16236555  0.62689687  1
  O  O170  1  0.53869307  0.49744936  0.13177723  1
  O  O171  1  0.53822324  0.49773929  0.61482475  1
  O  O172  1  0.53753064  0.82663131  0.12363427  1
  O  O173  1  0.53688309  0.82585459  0.63344828  1
  O  O174  1  0.86326071  0.16114058  0.12658450  1
  O  O175  1  0.85403434  0.14703094  0.62180626  1
  O  O176  1  0.84749644  0.49136817  0.12321295  1
  O  O177  1  0.85565974  0.48877779  0.62400505  1
  O  O178  1  0.84615464  0.83020020  0.11813634  1
  O  O179  1  0.86743647  0.83306253  0.62202795  1
  O  O180  1  0.13236704  0.16793704  0.36644546  1
  O  O181  1  0.15404021  0.16184487  0.87167295  1
  O  O182  1  0.14679149  0.50031138  0.36724481  1
  O  O183  1  0.14793522  0.49397837  0.87160542  1
  O  O184  1  0.12755604  0.84258039  0.37461615  1
  O  O185  1  0.14628830  0.84263939  0.87421632  1
  O  O186  1  0.47140574  0.16133889  0.37877112  1
  O  O187  1  0.46283772  0.16897256  0.87560488  1
  O  O188  1  0.48072062  0.51323634  0.37402885  1
  O  O189  1  0.48053641  0.51734197  0.87797010  1
  O  O190  1  0.46998073  0.84400768  0.36840444  1
  O  O191  1  0.46697372  0.84482833  0.87832188  1
  O  O192  1  0.79814963  0.16773008  0.36712286  1
  O  O193  1  0.81438682  0.18088797  0.88380816  1
  O  O194  1  0.80039383  0.51182923  0.38067601  1
  O  O195  1  0.81300237  0.51280553  0.86699007  1
  O  O196  1  0.79834578  0.84303934  0.38231257  1
  O  O197  1  0.81404434  0.84601084  0.86883096  1
  O  O198  1  0.01661643  0.01254046  0.37457097  1
  O  O199  1  0.01251055  -0.00258278  0.86857399  1
  O  O200  1  0.01540514  0.33135253  0.37813940  1
  O  O201  1  0.00911802  0.33175051  0.88394826  1
  O  O202  1  0.01529630  0.67443362  0.37233481  1
  O  O203  1  0.01184811  0.66493886  0.86927185  1
  O  O204  1  0.36704470  0.01796604  0.37323047  1
  O  O205  1  0.36412055  0.01505935  0.87052272  1
  O  O206  1  0.35026436  0.32616101  0.37258711  1
  O  O207  1  0.35003031  0.32188361  0.87735512  1
  O  O208  1  0.37428565  0.68180852  0.37328268  1
  O  O209  1  0.37342408  0.67839349  0.87570975  1
  O  O210  1  0.69805349  0.00943397  0.37972380  1
  O  O211  1  0.70446083  0.00206407  0.87481282  1
  O  O212  1  0.68957109  0.34226285  0.36793031  1
  O  O213  1  0.70242453  0.33506010  0.88443540  1
  O  O214  1  0.70494347  0.68095360  0.37785458  1
  O  O215  1  0.70233414  0.67305936  0.87968033  1
  O  O216  1  0.06892260  0.09835538  0.02876275  1
  O  O217  1  0.06452397  0.08934747  0.50763048  1
  O  O218  1  0.06690379  0.41623210  0.02258167  1
  O  O219  1  0.06485155  0.42402415  0.51210642  1
  O  O220  1  0.07973119  0.75607895  0.02320918  1
  O  O221  1  0.05482342  0.77282083  0.51096498  1
  O  O222  1  0.40684902  0.10116232  0.02281915  1
  O  O223  1  0.40653330  0.09549583  0.51563459  1
  O  O224  1  0.40315967  0.41772455  0.01569023  1
  O  O225  1  0.42101619  0.43054913  0.51196500  1
  O  O226  1  0.41344382  0.76549088  0.03225473  1
  O  O227  1  0.42219745  0.75280994  0.53167138  1
  O  O228  1  0.73649611  0.10697508  0.02484733  1
  O  O229  1  0.73403148  0.08958779  0.51496437  1
  O  O230  1  0.73438533  0.42389616  0.02940201  1
  O  O231  1  0.73834027  0.43435640  0.52218448  1
  O  O232  1  0.73425758  0.76168175  0.02227082  1
  O  O233  1  0.73053249  0.77018952  0.52362240  1
  O  O234  1  0.09114709  0.26337263  0.03086049  1
  O  O235  1  0.08517499  0.26424093  0.51389498  1
  O  O236  1  0.09490398  0.59453509  0.02353372  1
  O  O237  1  0.09905557  0.60261120  0.52215696  1
  O  O238  1  0.09819637  0.93682091  0.02830168  1
  O  O239  1  0.08340723  0.92861901  0.52321872  1
  O  O240  1  0.42594790  0.25578820  0.02420881  1
  O  O241  1  0.43242982  0.25222458  0.51639871  1
  O  O242  1  0.43554117  0.60036625  0.03275657  1
  O  O243  1  0.44766023  0.59752413  0.51815533  1
  O  O244  1  0.43053643  0.92315447  0.02182170  1
  O  O245  1  0.43221446  0.93211689  0.50281093  1
  O  O246  1  0.76756774  0.26520521  0.02921188  1
  O  O247  1  0.76858282  0.26731681  0.52109661  1
  O  O248  1  0.74766074  0.59152402  0.01943465  1
  O  O249  1  0.75786960  0.59320590  0.52566095  1
  O  O250  1  0.75602739  0.91760378  0.01253442  1
  O  O251  1  0.76472682  0.93218990  0.52707717  1
  O  O252  1  0.24210619  0.07343323  0.27825446  1
  O  O253  1  0.24690337  0.07362903  0.76865871  1
  O  O254  1  0.23603483  0.40724022  0.25579263  1
  O  O255  1  0.23693969  0.40172824  0.76813679  1
  O  O256  1  0.25344372  0.75386844  0.28200914  1
  O  O257  1  0.24917043  0.74711637  0.77459130  1
  O  O258  1  0.57098612  0.06826365  0.27884001  1
  O  O259  1  0.56138775  0.07174070  0.77557339  1
  O  O260  1  0.57772763  0.40635382  0.27424537  1
  O  O261  1  0.57556584  0.40950178  0.77024641  1
  O  O262  1  0.56502359  0.74087737  0.27678203  1
  O  O263  1  0.56566386  0.74117876  0.77514553  1
  O  O264  1  0.89784709  0.06972611  0.27976189  1
  O  O265  1  0.90155232  0.06111794  0.76709216  1
  O  O266  1  0.90473599  0.40369550  0.25682767  1
  O  O267  1  0.89476655  0.40672346  0.76771868  1
  O  O268  1  0.90693888  0.73891500  0.27759266  1
  O  O269  1  0.90020476  0.73364946  0.77112143  1
  O  O270  1  0.26003702  0.22815034  0.27038732  1
  O  O271  1  0.26088095  0.23180927  0.77326737  1
  O  O272  1  0.25515429  0.57229456  0.26470346  1
  O  O273  1  0.25435055  0.57077515  0.76737792  1
  O  O274  1  0.26920739  0.91093292  0.28205216  1
  O  O275  1  0.27241872  0.91075848  0.76885157  1
  O  O276  1  0.60566046  0.23293431  0.26879263  1
  O  O277  1  0.58309332  0.23576422  0.76524498  1
  O  O278  1  0.59736648  0.57010537  0.27719626  1
  O  O279  1  0.59150038  0.58389347  0.76440636  1
  O  O280  1  0.59048863  0.90293136  0.28020923  1
  O  O281  1  0.58879856  0.90807978  0.77209108  1
  O  O282  1  0.93184701  0.22210048  0.26645180  1
  O  O283  1  0.92248799  0.24344692  0.76950238  1
  O  O284  1  0.92207645  0.58291271  0.27284592  1
  O  O285  1  0.92287775  0.57471874  0.77058130  1
  O  O286  1  0.93246853  0.90816737  0.28023173  1
  O  O287  1  0.92756160  0.90459389  0.76558191  1
  O  O288  1  0.26079611  0.23450924  0.47714868  1
  O  O289  1  0.26973814  0.23145487  0.98556091  1
  O  O290  1  0.26282516  0.57566092  0.48086865  1
  O  O291  1  0.26233244  0.57043213  0.98534786  1
  O  O292  1  0.26917529  0.91232343  0.47733478  1
  O  O293  1  0.27502850  0.90006934  0.98096118  1
  O  O294  1  0.59514050  0.22601647  0.47500922  1
  O  O295  1  0.59738410  0.23749842  0.98375669  1
  O  O296  1  0.60595135  0.57172523  0.46850959  1
  O  O297  1  0.59444529  0.58348810  0.97972234  1
  O  O298  1  0.60411390  0.90248991  0.47578687  1
  O  O299  1  0.58548258  0.91040352  0.97918344  1
  O  O300  1  0.93335908  0.23444057  0.47396593  1
  O  O301  1  0.93051102  0.23142288  0.98666362  1
  O  O302  1  0.91617519  0.57724101  0.47968368  1
  O  O303  1  0.91692353  0.58024562  0.98340289  1
  O  O304  1  0.92549776  0.90088888  0.47137240  1
  O  O305  1  0.91714135  0.90771851  0.98246988  1
  O  O306  1  0.25026253  0.07604530  0.48345305  1
  O  O307  1  0.24136100  0.07399475  0.98772326  1
  O  O308  1  0.24304822  0.40840223  0.49364358  1
  O  O309  1  0.23798269  0.39373975  0.99526597  1
  O  O310  1  0.25253262  0.75372599  0.47159210  1
  O  O311  1  0.25105436  0.74726621  0.97345346  1
  O  O312  1  0.57185334  0.06377142  0.46940110  1
  O  O313  1  0.56414191  0.07439148  0.97088086  1
  O  O314  1  0.57959878  0.41516250  0.46951385  1
  O  O315  1  0.58078561  0.40437648  0.98673157  1
  O  O316  1  0.58089189  0.73705923  0.46426281  1
  O  O317  1  0.56887448  0.73852168  0.97657846  1
  O  O318  1  0.90161634  0.06466637  0.47346555  1
  O  O319  1  0.89459556  0.07225615  0.97730013  1
  O  O320  1  0.89738495  0.40567334  0.48324294  1
  O  O321  1  0.89646074  0.39070854  0.98406440  1
  O  O322  1  0.89415842  0.74175049  0.47190742  1
  O  O323  1  0.89748272  0.74012151  0.97542778  1
  O  O324  1  0.09888965  0.25351188  0.21687812  1
  O  O325  1  0.09192346  0.25021356  0.73977787  1
  O  O326  1  0.09697862  0.59805099  0.22717025  1
  O  O327  1  0.09651747  0.59825190  0.73240583  1
  O  O328  1  0.09452809  0.93990426  0.22832701  1
  O  O329  1  0.08393739  0.92334417  0.72213493  1
  O  O330  1  0.42178133  0.24984154  0.22373833  1
  O  O331  1  0.42248955  0.25873049  0.73516059  1
  O  O332  1  0.44330413  0.59806950  0.23081734  1
  O  O333  1  0.43190435  0.59703230  0.71929024  1
  O  O334  1  0.42391908  0.92753958  0.22447710  1
  O  O335  1  0.43549587  0.93445556  0.74004346  1
  O  O336  1  0.76648199  0.26317890  0.21907980  1
  O  O337  1  0.76703170  0.26985267  0.73348575  1
  O  O338  1  0.75339377  0.59125508  0.22782007  1
  O  O339  1  0.76170076  0.59238510  0.72754910  1
  O  O340  1  0.76862457  0.93428959  0.24686251  1
  O  O341  1  0.76750613  0.92603662  0.72216887  1
  O  O342  1  0.06851299  0.09829582  0.22487804  1
  O  O343  1  0.07132613  0.08722691  0.72957547  1
  O  O344  1  0.07976213  0.42062233  0.23065205  1
  O  O345  1  0.07530856  0.42547805  0.73895722  1
  O  O346  1  0.07636076  0.75327842  0.23336330  1
  O  O347  1  0.06702908  0.75444897  0.72833528  1
  O  O348  1  0.39814240  0.09112836  0.22238364  1
  O  O349  1  0.40324587  0.09681053  0.73496670  1
  O  O350  1  0.41691120  0.42928520  0.23506398  1
  O  O351  1  0.40277205  0.41962313  0.73969081  1
  O  O352  1  0.41239513  0.76635629  0.21465414  1
  O  O353  1  0.41657764  0.76388158  0.73090426  1
  O  O354  1  0.73158841  0.10706332  0.22860018  1
  O  O355  1  0.74122829  0.09038995  0.72942801  1
  O  O356  1  0.73078595  0.42821456  0.22511888  1
  O  O357  1  0.74076099  0.43678824  0.72136368  1
  O  O358  1  0.72553586  0.77456559  0.23138383  1
  O  O359  1  0.73896660  0.77143813  0.72311225  1
