# generated using pymatgen
data_BaLaInIrO6
_symmetry_space_group_name_H-M   'P 1'
_cell_length_a   17.50912129
_cell_length_b   17.53655715
_cell_length_c   16.48460184
_cell_angle_alpha   89.99729958
_cell_angle_beta   90.01948150
_cell_angle_gamma   89.98146432
_symmetry_Int_Tables_number   1
_chemical_formula_structural   BaLaInIrO6
_chemical_formula_sum   'Ba36 La36 In36 Ir36 O216'
_cell_volume   5061.59158681
_cell_formula_units_Z   36
loop_
 _symmetry_equiv_pos_site_id
 _symmetry_equiv_pos_as_xyz
  1  'x, y, z'
loop_
 _atom_site_type_symbol
 _atom_site_label
 _atom_site_symmetry_multiplicity
 _atom_site_fract_x
 _atom_site_fract_y
 _atom_site_fract_z
 _atom_site_occupancy
  Ba  Ba0  1  0.66764797  0.51085794  0.62106730  1
  Ba  Ba1  1  0.83236971  0.66109620  0.37348274  1
  Ba  Ba2  1  0.49741112  0.67477014  0.62342871  1
  Ba  Ba3  1  0.16681683  0.34141530  0.12593189  1
  Ba  Ba4  1  0.50176927  0.32352982  0.87419492  1
  Ba  Ba5  1  0.16798923  0.65905123  0.37112955  1
  Ba  Ba6  1  0.83676482  0.00439143  0.62555252  1
  Ba  Ba7  1  0.50010043  0.32449254  0.37840172  1
  Ba  Ba8  1  0.50011823  0.34358317  0.12619549  1
  Ba  Ba9  1  0.00163317  0.82393849  0.37622857  1
  Ba  Ba10  1  0.83263416  0.01003877  0.12260216  1
  Ba  Ba11  1  0.16286023  0.34892594  0.62376606  1
  Ba  Ba12  1  0.83308425  0.98848865  0.37619704  1
  Ba  Ba13  1  0.83539438  0.65958195  0.87493945  1
  Ba  Ba14  1  0.66888969  0.82668669  0.87341224  1
  Ba  Ba15  1  0.49600451  0.34154663  0.62432615  1
  Ba  Ba16  1  0.82459858  0.67665673  0.62412012  1
  Ba  Ba17  1  0.83231484  0.32493362  0.38144189  1
  Ba  Ba18  1  0.66668709  0.16105340  0.37811040  1
  Ba  Ba19  1  0.83347689  0.98861044  0.87145971  1
  Ba  Ba20  1  0.99800794  0.51114097  0.62394049  1
  Ba  Ba21  1  0.50097254  0.98986520  0.87796675  1
  Ba  Ba22  1  0.33790671  0.50443816  0.62390269  1
  Ba  Ba23  1  0.33418899  0.17673136  0.62555232  1
  Ba  Ba24  1  0.33354427  0.49256392  0.37315174  1
  Ba  Ba25  1  1.00346447  0.84307374  0.12986939  1
  Ba  Ba26  1  0.33244022  0.84057403  0.12417392  1
  Ba  Ba27  1  0.49940509  0.00891591  0.12271005  1
  Ba  Ba28  1  0.33185276  0.82234345  0.36990919  1
  Ba  Ba29  1  0.49896264  0.67607673  0.12035521  1
  Ba  Ba30  1  0.16678433  0.66097220  0.88170732  1
  Ba  Ba31  1  0.66554327  0.84216158  0.62919288  1
  Ba  Ba32  1  0.16629546  0.32438517  0.37079319  1
  Ba  Ba33  1  0.33530760  0.49202350  0.87820193  1
  Ba  Ba34  1  0.50696558  0.65898211  0.87150076  1
  Ba  Ba35  1  0.50276127  0.99341027  0.37770720  1
  La  La36  1  0.66743496  0.17808416  0.12957110  1
  La  La37  1  0.98840497  0.82813601  0.62718069  1
  La  La38  1  0.17605893  0.98534998  0.87004392  1
  La  La39  1  0.34135146  0.84674437  0.62713985  1
  La  La40  1  0.50622100  0.65051652  0.37272362  1
  La  La41  1  1.00085582  0.51597503  0.12680324  1
  La  La42  1  -0.00435589  0.15405553  0.87354261  1
  La  La43  1  0.83416016  0.31862670  0.87338049  1
  La  La44  1  -0.00698480  0.14907147  0.37338991  1
  La  La45  1  0.16080740  0.01814031  0.12878642  1
  La  La46  1  0.00141910  0.48991697  0.38200157  1
  La  La47  1  0.82704508  0.34777131  0.62632729  1
  La  La48  1  -0.00791228  0.81645423  0.87287233  1
  La  La49  1  0.16808252  0.67984820  0.12944141  1
  La  La50  1  0.82425461  0.34742639  0.13089530  1
  La  La51  1  0.65851258  0.48190812  0.37416790  1
  La  La52  1  0.33341085  0.15791382  0.87401550  1
  La  La53  1  0.17375330  0.31887194  0.87776573  1
  La  La54  1  0.33093272  0.15694867  0.37262922  1
  La  La55  1  1.00688701  0.18338954  0.61914004  1
  La  La56  1  0.33552082  0.81533343  0.87938861  1
  La  La57  1  0.99965636  0.17570718  0.12716092  1
  La  La58  1  0.65620257  0.48896230  0.86856416  1
  La  La59  1  0.16262614  0.01496444  0.62098303  1
  La  La60  1  0.65957437  0.82399802  0.37893408  1
  La  La61  1  0.67032342  0.51768881  0.12113224  1
  La  La62  1  0.67057858  0.85211817  0.12114395  1
  La  La63  1  0.66889138  0.17815579  0.62554009  1
  La  La64  1  0.33894899  0.51482523  0.12775873  1
  La  La65  1  0.17471436  0.66654588  0.61751623  1
  La  La66  1  0.82662681  0.68830053  0.12452868  1
  La  La67  1  0.65977524  0.15190205  0.87967282  1
  La  La68  1  0.49839333  0.01430554  0.62794054  1
  La  La69  1  0.17171279  0.98385798  0.37402916  1
  La  La70  1  0.00000825  0.48339944  0.87532743  1
  La  La71  1  0.33812878  0.17755074  0.12340200  1
  In  In72  1  0.66746842  0.66881381  0.24921560  1
  In  In73  1  0.16472398  0.50318391  0.75332920  1
  In  In74  1  0.83260259  0.50036359  -0.00214406  1
  In  In75  1  -0.00120510  0.66531430  0.25118513  1
  In  In76  1  0.66863171  0.33286653  -0.00100094  1
  In  In77  1  0.33212898  0.33272159  0.75273471  1
  In  In78  1  0.49861088  0.16596564  0.49965829  1
  In  In79  1  0.16453573  0.83634964  -0.00088648  1
  In  In80  1  0.00111747  -0.00442309  0.50129822  1
  In  In81  1  -0.00067930  0.33315491  0.75211321  1
  In  In82  1  0.83507443  0.83673900  -0.00067399  1
  In  In83  1  0.00518307  -0.00301976  0.74923659  1
  In  In84  1  -0.00509310  0.33241621  0.24792529  1
  In  In85  1  0.83271113  0.50022334  0.25045294  1
  In  In86  1  0.00282686  0.66439075  0.74986816  1
  In  In87  1  0.16519575  0.49960987  0.00350523  1
  In  In88  1  -0.00271291  0.33250543  0.00138619  1
  In  In89  1  0.17016352  0.83170355  0.50489439  1
  In  In90  1  0.83057696  0.50370230  0.49803455  1
  In  In91  1  0.33211365  0.00008470  -0.00186800  1
  In  In92  1  0.66760982  -0.00005162  0.50450717  1
  In  In93  1  0.33596083  0.66686212  0.49731298  1
  In  In94  1  0.33088373  0.33324220  0.49733464  1
  In  In95  1  0.16523405  0.16553522  0.49410839  1
  In  In96  1  0.16748895  0.49951389  0.24631936  1
  In  In97  1  0.50046369  0.49883528  0.00050894  1
  In  In98  1  0.50109149  0.83212210  0.24908299  1
  In  In99  1  0.83281040  0.16417379  0.75011865  1
  In  In100  1  0.83378066  0.16747078  0.25002346  1
  In  In101  1  0.49984075  0.83441715  0.75132940  1
  In  In102  1  0.66615354  0.00213345  0.25192542  1
  In  In103  1  0.16821806  0.83283812  0.74881816  1
  In  In104  1  0.33327897  0.00202320  0.24770553  1
  In  In105  1  0.16442528  0.16510299  0.74931299  1
  In  In106  1  0.83093255  0.49942351  0.75498125  1
  In  In107  1  0.00502764  0.00066281  -0.00149349  1
  Ir  Ir108  1  0.00328463  -0.00077458  0.24992315  1
  Ir  Ir109  1  0.50155438  0.50149004  0.74720763  1
  Ir  Ir110  1  -0.00260613  0.33450309  0.49835676  1
  Ir  Ir111  1  0.49785499  0.17029598  0.24604698  1
  Ir  Ir112  1  0.50319637  0.16408008  0.75450515  1
  Ir  Ir113  1  0.83754382  0.16897374  0.50347069  1
  Ir  Ir114  1  0.33376143  -0.00213127  0.50255892  1
  Ir  Ir115  1  0.66797125  0.33162836  0.50350921  1
  Ir  Ir116  1  0.66422033  0.00403933  0.00004929  1
  Ir  Ir117  1  0.66692708  0.33194523  0.74721412  1
  Ir  Ir118  1  0.33516211  0.00058638  0.74976278  1
  Ir  Ir119  1  0.16257579  0.50211391  0.49850458  1
  Ir  Ir120  1  0.66735972  0.66761604  0.74990446  1
  Ir  Ir121  1  0.33688933  0.66477837  0.24625458  1
  Ir  Ir122  1  0.83194432  0.16709398  -0.00176439  1
  Ir  Ir123  1  0.16530734  0.16759267  0.00112557  1
  Ir  Ir124  1  0.83029445  0.83031214  0.49793035  1
  Ir  Ir125  1  0.66770331  0.66909264  -0.00078634  1
  Ir  Ir126  1  0.66432476  0.00292596  0.75262533  1
  Ir  Ir127  1  0.49958646  0.16768393  0.00088186  1
  Ir  Ir128  1  0.33212037  0.32783365  0.00259045  1
  Ir  Ir129  1  0.83305206  0.83643253  0.25030849  1
  Ir  Ir130  1  -0.00141087  0.66532163  0.00428024  1
  Ir  Ir131  1  0.16564308  0.16494605  0.24785498  1
  Ir  Ir132  1  0.50253005  0.49828307  0.25033030  1
  Ir  Ir133  1  0.16857215  0.83414470  0.24883696  1
  Ir  Ir134  1  0.66197586  0.33419077  0.24857023  1
  Ir  Ir135  1  0.33420239  0.66595704  0.75417452  1
  Ir  Ir136  1  0.50352787  0.83237053  0.00019887  1
  Ir  Ir137  1  0.50422335  0.50171287  0.49854851  1
  Ir  Ir138  1  0.66371233  0.67116037  0.49976982  1
  Ir  Ir139  1  0.33500078  0.66685964  0.00007804  1
  Ir  Ir140  1  0.83229985  0.83156186  0.74970196  1
  Ir  Ir141  1  0.49797136  0.83431300  0.50119267  1
  Ir  Ir142  1  -0.00122101  0.66853010  0.50061806  1
  Ir  Ir143  1  0.33426009  0.32992312  0.24600855  1
  O  O144  1  0.31279673  0.31541106  0.12356819  1
  O  O145  1  0.31484443  0.33506186  0.62559200  1
  O  O146  1  0.30546440  0.65813364  0.12280078  1
  O  O147  1  0.31095293  0.66182892  0.63250035  1
  O  O148  1  0.29851318  1.00355715  0.12220850  1
  O  O149  1  0.30236519  0.98607234  0.62651906  1
  O  O150  1  0.64797618  0.31587947  0.12896486  1
  O  O151  1  0.64299683  0.31632930  0.62613650  1
  O  O152  1  0.64712607  0.66027141  0.11838679  1
  O  O153  1  0.64549438  0.66720806  0.62593629  1
  O  O154  1  0.64897062  0.99125939  0.12108220  1
  O  O155  1  0.63622384  0.99963150  0.63316026  1
  O  O156  1  0.95987679  0.31178380  0.12187700  1
  O  O157  1  0.96638665  0.32374370  0.61911911  1
  O  O158  1  0.96348847  0.65475544  0.12287244  1
  O  O159  1  0.97680031  0.66975731  0.61964580  1
  O  O160  1  0.98361638  1.00192680  0.12981540  1
  O  O161  1  0.98621603  0.96786975  0.62499174  1
  O  O162  1  0.20049591  0.15654642  0.12380965  1
  O  O163  1  0.18866049  0.15236682  0.62126332  1
  O  O164  1  0.20595555  0.49552346  0.12315933  1
  O  O165  1  0.18292439  0.50612278  0.61880897  1
  O  O166  1  0.18293085  0.82145279  0.12721904  1
  O  O167  1  0.20541373  0.81317802  0.62859041  1
  O  O168  1  0.53084541  0.16901278  0.12342141  1
  O  O169  1  0.53108221  0.15768350  0.63486056  1
  O  O170  1  0.53215199  0.49991427  0.13036263  1
  O  O171  1  0.51968248  0.49929744  0.62263590  1
  O  O172  1  0.53444107  0.83147554  0.11925240  1
  O  O173  1  0.51286655  0.83533480  0.62061613  1
  O  O174  1  0.86298390  0.16393675  0.11798718  1
  O  O175  1  0.86749006  0.16954356  0.62116318  1
  O  O176  1  0.86594386  0.48605028  0.12223105  1
  O  O177  1  0.84625219  0.49053722  0.62555483  1
  O  O178  1  0.85182884  0.83336358  0.12885105  1
  O  O179  1  0.85591680  0.83218768  0.62301463  1
  O  O180  1  0.12994801  0.16629743  0.36594506  1
  O  O181  1  0.13224766  0.17825216  0.88184748  1
  O  O182  1  0.13685126  0.50282149  0.37621880  1
  O  O183  1  0.13250640  0.50927288  0.88126517  1
  O  O184  1  0.15346919  0.84436578  0.37154792  1
  O  O185  1  0.12916064  0.84453630  0.87526777  1
  O  O186  1  0.46889868  0.16610034  0.36682904  1
  O  O187  1  0.47001221  0.16655509  0.87834482  1
  O  O188  1  0.48359279  0.50980497  0.37468743  1
  O  O189  1  0.48883797  0.50270694  0.86822914  1
  O  O190  1  0.48261480  0.83570774  0.38239877  1
  O  O191  1  0.47334320  0.83243073  0.87924087  1
  O  O192  1  0.81664994  0.16715939  0.38375921  1
  O  O193  1  0.79634831  0.17595483  0.87993418  1
  O  O194  1  0.79500067  0.50185568  0.37426882  1
  O  O195  1  0.79010274  0.50281688  0.87714762  1
  O  O196  1  0.79996310  0.83089547  0.37448850  1
  O  O197  1  0.82045127  0.82693486  0.87109459  1
  O  O198  1  0.03192982  0.00618652  0.37068069  1
  O  O199  1  0.03945887  0.01747655  0.87506859  1
  O  O200  1  0.01684971  0.34904588  0.37757865  1
  O  O201  1  0.03899839  0.34298906  0.87946365  1
  O  O202  1  0.01818536  0.66848833  0.38114579  1
  O  O203  1  0.01642776  0.68046619  0.88291402  1
  O  O204  1  0.35275760  0.01314522  0.38103018  1
  O  O205  1  0.35499860  0.02015643  0.86927490  1
  O  O206  1  0.35106070  0.33284925  0.36482506  1
  O  O207  1  0.35197628  0.32865489  0.88465364  1
  O  O208  1  0.36736741  0.66623905  0.36722298  1
  O  O209  1  0.36019929  0.67632898  0.87762547  1
  O  O210  1  0.68129119  0.00424515  0.37811923  1
  O  O211  1  0.68717393  0.01607667  0.87646227  1
  O  O212  1  0.68441740  0.34447176  0.37630029  1
  O  O213  1  0.69620998  0.34353324  0.86825150  1
  O  O214  1  0.68168843  0.68216464  0.37991708  1
  O  O215  1  0.68735839  0.66879308  0.87420800  1
  O  O216  1  0.07306359  0.10311020  0.02901095  1
  O  O217  1  0.06783140  0.09637462  0.52396694  1
  O  O218  1  0.06228445  0.43439571  0.03083509  1
  O  O219  1  0.06629868  0.43175332  0.51341348  1
  O  O220  1  0.07022475  0.75510428  0.02047707  1
  O  O221  1  0.06712971  0.76165294  0.52601472  1
  O  O222  1  0.40372045  0.10074362  0.01934979  1
  O  O223  1  0.40363967  0.08521684  0.52271873  1
  O  O224  1  0.39761505  0.42394926  0.02556611  1
  O  O225  1  0.41621594  0.42754109  0.50751056  1
  O  O226  1  0.40744463  0.76222824  0.01477441  1
  O  O227  1  0.40181057  0.77060376  0.52303125  1
  O  O228  1  0.73042142  0.10354437  0.02171976  1
  O  O229  1  0.74315881  0.10273097  0.52892058  1
  O  O230  1  0.73800495  0.42788733  0.03685176  1
  O  O231  1  0.74417727  0.41517774  0.51887549  1
  O  O232  1  0.73681971  0.76188258  0.02640996  1
  O  O233  1  0.73129918  0.76596246  0.51284403  1
  O  O234  1  0.09458383  0.25391531  0.02419659  1
  O  O235  1  0.08542775  0.26236640  0.51738565  1
  O  O236  1  0.09106982  0.60096633  0.03294282  1
  O  O237  1  0.09504882  0.60158484  0.52013150  1
  O  O238  1  0.10860167  0.94114271  0.02601238  1
  O  O239  1  0.11084914  0.93690761  0.51035766  1
  O  O240  1  0.42500948  0.25513534  0.02516886  1
  O  O241  1  0.42381082  0.25589079  0.51410463  1
  O  O242  1  0.41894318  0.58772696  0.01955626  1
  O  O243  1  0.43271417  0.59223902  0.50753441  1
  O  O244  1  0.42924688  0.92006097  0.01581551  1
  O  O245  1  0.43158963  0.93163015  0.52909612  1
  O  O246  1  0.76813872  0.26013369  0.02335109  1
  O  O247  1  0.76209284  0.25999939  0.53141942  1
  O  O248  1  0.76113989  0.60275242  0.02727101  1
  O  O249  1  0.75268586  0.59968271  0.51213622  1
  O  O250  1  0.75267292  0.92855070  0.01469387  1
  O  O251  1  0.76268902  0.92126503  0.51668522  1
  O  O252  1  0.23445975  0.07583939  0.27768329  1
  O  O253  1  0.24084001  0.06747522  0.77218600  1
  O  O254  1  0.24494900  0.40091739  0.26228024  1
  O  O255  1  0.23269891  0.40225336  0.77727687  1
  O  O256  1  0.23928878  0.73554685  0.25867878  1
  O  O257  1  0.24977072  0.74042293  0.78009926  1
  O  O258  1  0.56711456  0.08106008  0.26059842  1
  O  O259  1  0.57476960  0.07543332  0.77540661  1
  O  O260  1  0.57213729  0.40751531  0.27450550  1
  O  O261  1  0.57830155  0.41020628  0.77053250  1
  O  O262  1  0.56806775  0.73250554  0.27402246  1
  O  O263  1  0.57913682  0.74089029  0.76027475  1
  O  O264  1  0.91423105  0.07001009  0.26984018  1
  O  O265  1  0.91039870  0.07385730  0.77151661  1
  O  O266  1  0.88970470  0.39295978  0.25714651  1
  O  O267  1  0.89497866  0.39577974  0.77317871  1
  O  O268  1  0.90092022  0.74290728  0.25735763  1
  O  O269  1  0.90495215  0.74368609  0.76149334  1
  O  O270  1  0.26777296  0.22925556  0.26653801  1
  O  O271  1  0.25950211  0.23560581  0.78062037  1
  O  O272  1  0.26561280  0.57629909  0.26087222  1
  O  O273  1  0.26712543  0.57597937  0.76912873  1
  O  O274  1  0.25289203  0.91026033  0.26694439  1
  O  O275  1  0.27395834  0.90560584  0.77833842  1
  O  O276  1  0.59392318  0.23734057  0.26647742  1
  O  O277  1  0.59955310  0.23318318  0.77587588  1
  O  O278  1  0.59723890  0.56554600  0.27205870  1
  O  O279  1  0.59994569  0.57072227  0.76765442  1
  O  O280  1  0.60489767  0.89598207  0.26402747  1
  O  O281  1  0.59240457  0.91470725  0.76907596  1
  O  O282  1  0.93676065  0.22623450  0.27207250  1
  O  O283  1  0.92451629  0.23828013  0.78572186  1
  O  O284  1  0.93768560  0.56068796  0.27359712  1
  O  O285  1  0.93416997  0.56572763  0.77780980  1
  O  O286  1  0.92996914  0.90631131  0.27127912  1
  O  O287  1  0.93034390  0.89585577  0.77013762  1
  O  O288  1  0.26184836  0.23298517  0.46903027  1
  O  O289  1  0.26336376  0.23180695  0.97577046  1
  O  O290  1  0.25263992  0.57197073  0.48577910  1
  O  O291  1  0.26359280  0.57948899  0.98607880  1
  O  O292  1  0.27061477  0.90625416  0.48588814  1
  O  O293  1  0.26306384  0.90590168  0.96303285  1
  O  O294  1  0.59725672  0.24172233  0.49136236  1
  O  O295  1  0.59647175  0.23290635  0.98020719  1
  O  O296  1  0.59582066  0.57643764  0.47124803  1
  O  O297  1  0.60479051  0.57106000  0.98221489  1
  O  O298  1  0.59469511  0.89695229  0.48106654  1
  O  O299  1  0.59830704  0.90365464  0.98553202  1
  O  O300  1  0.93542160  0.23494583  0.47687372  1
  O  O301  1  0.92402756  0.23198509  0.96790616  1
  O  O302  1  0.93231880  0.57400956  0.47640423  1
  O  O303  1  0.93854618  0.56855962  0.97928043  1
  O  O304  1  0.92249456  0.89883603  0.48372574  1
  O  O305  1  0.93595808  0.90243082  0.97643743  1
  O  O306  1  0.23832610  0.06211830  0.47689757  1
  O  O307  1  0.23185796  0.07775447  0.97063668  1
  O  O308  1  0.23301680  0.41197246  0.48196999  1
  O  O309  1  0.23735637  0.39342002  0.97917091  1
  O  O310  1  0.23821938  0.73444339  0.48413821  1
  O  O311  1  0.24952047  0.74434395  0.98629253  1
  O  O312  1  0.56922726  0.07065930  0.49731823  1
  O  O313  1  0.57312985  0.07890669  0.97918490  1
  O  O314  1  0.58244784  0.41289782  0.47834167  1
  O  O315  1  0.57846068  0.41035687  0.97975040  1
  O  O316  1  0.56422879  0.73813750  0.47485540  1
  O  O317  1  0.57576798  0.74133105  0.97982657  1
  O  O318  1  0.90871125  0.07912373  0.48162032  1
  O  O319  1  0.90584914  0.08006437  0.97594056  1
  O  O320  1  0.91217493  0.40962737  0.48351434  1
  O  O321  1  0.90138644  0.40167062  0.96184637  1
  O  O322  1  0.90393633  0.73764060  0.48300224  1
  O  O323  1  0.90731421  0.73541920  0.99258365  1
  O  O324  1  0.09225601  0.25076141  0.22383813  1
  O  O325  1  0.08794685  0.25710867  0.72373711  1
  O  O326  1  0.09644970  0.59669529  0.21736272  1
  O  O327  1  0.10762188  0.60959424  0.72743960  1
  O  O328  1  0.10408303  0.93410298  0.23217269  1
  O  O329  1  0.11842198  0.94382050  0.73399751  1
  O  O330  1  0.42546048  0.25715498  0.22545636  1
  O  O331  1  0.42991786  0.25023925  0.73943730  1
  O  O332  1  0.42786647  0.58990762  0.22585302  1
  O  O333  1  0.42840208  0.59245656  0.73104858  1
  O  O334  1  0.42541784  0.92578613  0.23558594  1
  O  O335  1  0.42580940  0.93225811  0.72321355  1
  O  O336  1  0.75710142  0.26562161  0.22829139  1
  O  O337  1  0.75884117  0.26323860  0.72322381  1
  O  O338  1  0.76412307  0.59910589  0.21869700  1
  O  O339  1  0.75432423  0.59582406  0.73629033  1
  O  O340  1  0.76437264  0.92481706  0.23297363  1
  O  O341  1  0.75701822  0.93074069  0.73564340  1
  O  O342  1  0.07124755  0.09521479  0.22294390  1
  O  O343  1  0.06693741  0.09829007  0.71657439  1
  O  O344  1  0.06451769  0.43175167  0.22763660  1
  O  O345  1  0.06229875  0.43667658  0.74103512  1
  O  O346  1  0.08189067  0.75770072  0.23517969  1
  O  O347  1  0.06140725  0.77362991  0.73558455  1
  O  O348  1  0.40270251  0.10447547  0.22596353  1
  O  O349  1  0.41262868  0.09038870  0.72477160  1
  O  O350  1  0.40160596  0.42911370  0.22516238  1
  O  O351  1  0.41409372  0.42684932  0.73975614  1
  O  O352  1  0.40619377  0.75366761  0.22901330  1
  O  O353  1  0.39881044  0.76272135  0.73470042  1
  O  O354  1  0.73640965  0.09985666  0.22654615  1
  O  O355  1  0.73033840  0.09739010  0.73073779  1
  O  O356  1  0.72518507  0.43001784  0.22346381  1
  O  O357  1  0.73567878  0.41869143  0.72484956  1
  O  O358  1  0.73992234  0.76880586  0.22456434  1
  O  O359  1  0.73826190  0.76084966  0.73286424  1
