# generated using pymatgen
data_BaLaInIrO6
_symmetry_space_group_name_H-M   'P 1'
_cell_length_a   17.51223844
_cell_length_b   17.54529296
_cell_length_c   16.47729282
_cell_angle_alpha   90.00443069
_cell_angle_beta   89.98136379
_cell_angle_gamma   89.99342630
_symmetry_Int_Tables_number   1
_chemical_formula_structural   BaLaInIrO6
_chemical_formula_sum   'Ba36 La36 In36 Ir36 O216'
_cell_volume   5062.76907376
_cell_formula_units_Z   36
loop_
 _symmetry_equiv_pos_site_id
 _symmetry_equiv_pos_as_xyz
  1  'x, y, z'
loop_
 _atom_site_type_symbol
 _atom_site_label
 _atom_site_symmetry_multiplicity
 _atom_site_fract_x
 _atom_site_fract_y
 _atom_site_fract_z
 _atom_site_occupancy
  Ba  Ba0  1  0.66339294  0.49415487  0.37461058  1
  Ba  Ba1  1  0.83663199  0.99183472  0.37737728  1
  Ba  Ba2  1  0.83336103  0.99505806  0.87539726  1
  Ba  Ba3  1  0.66905308  0.49174025  0.87894552  1
  Ba  Ba4  1  0.00121017  0.82848607  0.37280224  1
  Ba  Ba5  1  0.83419265  0.32490531  0.37159063  1
  Ba  Ba6  1  -0.00477963  0.15056668  0.37800629  1
  Ba  Ba7  1  0.66886977  0.16128052  0.37299670  1
  Ba  Ba8  1  0.49908738  0.34049238  0.12492022  1
  Ba  Ba9  1  0.33362100  0.49048416  0.38051018  1
  Ba  Ba10  1  0.99917277  0.17162433  0.62675467  1
  Ba  Ba11  1  0.16587258  0.99161503  0.37978505  1
  Ba  Ba12  1  -0.00619458  0.49365563  0.87731236  1
  Ba  Ba13  1  -0.00020212  0.15610425  0.87535247  1
  Ba  Ba14  1  0.16882626  0.01401602  0.12757990  1
  Ba  Ba15  1  0.16704170  0.67606327  0.62302954  1
  Ba  Ba16  1  0.66578493  0.15554108  0.87474453  1
  Ba  Ba17  1  0.66368489  0.84098671  0.12526657  1
  Ba  Ba18  1  0.83006698  0.34110967  0.62093868  1
  Ba  Ba19  1  0.66184039  0.83978783  0.62296602  1
  Ba  Ba20  1  0.83288653  0.67160305  0.12314769  1
  Ba  Ba21  1  0.50340772  0.98903833  0.87941429  1
  Ba  Ba22  1  0.83322743  0.65793487  0.37225355  1
  Ba  Ba23  1  -0.00239036  0.82710647  0.87210399  1
  Ba  Ba24  1  0.49665275  0.01272197  0.12272548  1
  Ba  Ba25  1  0.50335472  0.65607944  0.37120827  1
  Ba  Ba26  1  0.16675988  0.00635216  0.62837181  1
  Ba  Ba27  1  0.66938093  0.82593631  0.37295408  1
  Ba  Ba28  1  0.83414785  0.34084935  0.12678863  1
  Ba  Ba29  1  0.49632701  0.67366110  0.61833508  1
  Ba  Ba30  1  0.66575606  0.82524255  0.87644944  1
  Ba  Ba31  1  0.33223233  0.51060528  0.62434312  1
  Ba  Ba32  1  0.16641656  0.65453412  0.87494180  1
  Ba  Ba33  1  0.33867056  0.17555235  0.12626944  1
  Ba  Ba34  1  0.66418364  0.17939578  0.12171162  1
  Ba  Ba35  1  0.66829068  0.17451885  0.62549412  1
  La  La36  1  0.32485008  0.81789150  0.37451258  1
  La  La37  1  0.32876581  0.81790676  0.87328991  1
  La  La38  1  -0.00504939  0.48879270  0.37453682  1
  La  La39  1  0.33958450  0.85223920  0.12295009  1
  La  La40  1  0.32619324  0.48315977  0.87595990  1
  La  La41  1  0.16054200  0.34962386  0.62232747  1
  La  La42  1  0.15880957  0.68784938  0.12398477  1
  La  La43  1  0.33990916  0.51546664  0.12814272  1
  La  La44  1  0.82971555  0.67800078  0.62674439  1
  La  La45  1  0.50886532  0.98916008  0.37220189  1
  La  La46  1  0.66781529  0.51440979  0.62250265  1
  La  La47  1  0.66987453  0.50592835  0.13057813  1
  La  La48  1  0.83098201  0.01232206  0.62490734  1
  La  La49  1  0.49803874  0.34821402  0.62731282  1
  La  La50  1  0.99095338  0.16351899  0.12710938  1
  La  La51  1  0.17365080  0.98387601  0.87699613  1
  La  La52  1  0.17247810  0.65132562  0.37382780  1
  La  La53  1  0.16296856  0.32563399  0.87413424  1
  La  La54  1  0.49928155  0.68056242  0.12259563  1
  La  La55  1  0.33248508  0.14842500  0.87644213  1
  La  La56  1  0.99831645  0.51829048  0.12937937  1
  La  La57  1  1.00411902  0.51342302  0.62247975  1
  La  La58  1  0.16470698  0.34174572  0.12392913  1
  La  La59  1  0.83855184  0.65716679  0.87301412  1
  La  La60  1  0.33158385  0.15012903  0.37516814  1
  La  La61  1  0.50709744  0.32369779  0.36975392  1
  La  La62  1  0.83786362  0.31731907  0.87619226  1
  La  La63  1  0.33786287  0.18205546  0.62643465  1
  La  La64  1  0.50486964  0.65265444  0.87058761  1
  La  La65  1  0.34096595  0.84605248  0.62469182  1
  La  La66  1  1.00290433  0.84837934  0.62408425  1
  La  La67  1  1.00048816  0.85765882  0.12491084  1
  La  La68  1  0.82251765  0.00988894  0.12662261  1
  La  La69  1  0.50722127  0.31453186  0.87830542  1
  La  La70  1  0.49344671  0.01198372  0.62805571  1
  La  La71  1  0.17257484  0.31643035  0.37788459  1
  In  In72  1  0.16604769  0.82995741  0.74850499  1
  In  In73  1  0.83190195  0.16617642  0.00053024  1
  In  In74  1  0.83018448  0.83528718  0.74839753  1
  In  In75  1  0.66444157  0.33684977  0.74964494  1
  In  In76  1  0.00110290  0.67094401  -0.00046621  1
  In  In77  1  0.16935340  0.17034747  -0.00036667  1
  In  In78  1  0.33319794  0.66614327  0.00163735  1
  In  In79  1  0.16773454  0.49926861  0.00505901  1
  In  In80  1  0.83598440  0.83215214  0.24895186  1
  In  In81  1  0.00209094  0.66963131  0.49732871  1
  In  In82  1  0.83241860  0.16739489  0.49889081  1
  In  In83  1  0.16851629  0.16879502  0.25166825  1
  In  In84  1  0.00215826  0.33367845  0.49988313  1
  In  In85  1  0.66838111  0.66690044  0.49913351  1
  In  In86  1  0.83258971  0.83230404  -0.00006569  1
  In  In87  1  0.83268088  0.49788808  0.74710060  1
  In  In88  1  0.83351983  0.16775310  0.74960761  1
  In  In89  1  0.33518812  0.66516520  0.75067210  1
  In  In90  1  0.49925504  0.16799632  0.25073666  1
  In  In91  1  0.00036119  0.33600933  0.00299425  1
  In  In92  1  0.49876674  0.83261742  0.75184751  1
  In  In93  1  0.16764298  0.49747014  0.24981430  1
  In  In94  1  0.33596149  0.33029975  0.75252975  1
  In  In95  1  0.49799057  0.49871510  0.49911935  1
  In  In96  1  0.49694759  0.16814371  0.50061119  1
  In  In97  1  0.16712878  0.83631288  0.24974303  1
  In  In98  1  0.49763996  0.49805572  -0.00030124  1
  In  In99  1  0.16408557  0.49888390  0.75285426  1
  In  In100  1  0.16886175  0.16503584  0.50387153  1
  In  In101  1  0.49505380  0.83287486  0.25064903  1
  In  In102  1  0.66500979  -0.00091954  0.49973334  1
  In  In103  1  0.33390899  0.33453830  0.25300073  1
  In  In104  1  0.49650278  0.83332942  0.49650113  1
  In  In105  1  0.17024184  0.16656155  0.75021227  1
  In  In106  1  0.66610686  0.66594375  0.24586576  1
  In  In107  1  0.00482671  0.33249767  0.24928110  1
  Ir  Ir108  1  0.49875462  0.16482317  0.74861699  1
  Ir  Ir109  1  0.00559624  0.66759154  0.24841438  1
  Ir  Ir110  1  0.66748770  0.33613574  0.25025877  1
  Ir  Ir111  1  -0.00506975  0.66539789  0.74628659  1
  Ir  Ir112  1  0.33549106  0.33197030  -0.00299653  1
  Ir  Ir113  1  -0.00334621  0.00240257  0.24748576  1
  Ir  Ir114  1  0.66277268  0.66375412  -0.00436186  1
  Ir  Ir115  1  0.82872995  0.50016889  0.00239991  1
  Ir  Ir116  1  0.49939058  0.49941342  0.75339345  1
  Ir  Ir117  1  0.32754879  0.66869802  0.49545536  1
  Ir  Ir118  1  0.50014665  0.50021425  0.24529482  1
  Ir  Ir119  1  0.00028213  0.33629889  0.74904147  1
  Ir  Ir120  1  0.66336771  -0.00036164  0.00250993  1
  Ir  Ir121  1  0.66747868  0.33633191  0.00124439  1
  Ir  Ir122  1  0.00200044  -0.00176675  0.75085591  1
  Ir  Ir123  1  0.83898728  0.83227750  0.50400589  1
  Ir  Ir124  1  0.33631737  -0.00152278  0.25468057  1
  Ir  Ir125  1  0.33467950  -0.00210510  -0.00405521  1
  Ir  Ir126  1  0.66673125  0.66345485  0.75239909  1
  Ir  Ir127  1  0.00011138  -0.00600088  0.50335837  1
  Ir  Ir128  1  0.00391747  0.00133223  0.00039932  1
  Ir  Ir129  1  0.66200331  0.33591937  0.49651695  1
  Ir  Ir130  1  0.33394472  -0.00002858  0.75079737  1
  Ir  Ir131  1  0.16420608  0.50079314  0.49985271  1
  Ir  Ir132  1  0.16926109  0.83815730  0.00154426  1
  Ir  Ir133  1  0.17046215  0.83412920  0.50079352  1
  Ir  Ir134  1  0.83602778  0.50019787  0.49814898  1
  Ir  Ir135  1  0.66175635  -0.00022097  0.74990568  1
  Ir  Ir136  1  0.49555776  0.83294977  -0.00026511  1
  Ir  Ir137  1  0.33516331  -0.00121676  0.50297811  1
  Ir  Ir138  1  0.83591883  0.49907900  0.25039146  1
  Ir  Ir139  1  0.49788850  0.16858004  -0.00417493  1
  Ir  Ir140  1  0.66670698  0.00183129  0.24688661  1
  Ir  Ir141  1  0.33437994  0.33303203  0.50320080  1
  Ir  Ir142  1  0.83219911  0.16383630  0.24870769  1
  Ir  Ir143  1  0.32835819  0.66541454  0.24838978  1
  O  O144  1  0.30301716  0.32665445  0.11735770  1
  O  O145  1  0.29856567  0.32466530  0.62146929  1
  O  O146  1  0.29446786  0.65354633  0.12954838  1
  O  O147  1  0.31578077  0.66574143  0.61742442  1
  O  O148  1  0.31315173  0.98693905  0.12485377  1
  O  O149  1  0.31144804  0.98237623  0.62649641  1
  O  O150  1  0.64674290  0.34296324  0.12764689  1
  O  O151  1  0.63444585  0.33402508  0.61732772  1
  O  O152  1  0.63265414  0.65390635  0.11492016  1
  O  O153  1  0.64682024  0.65567192  0.63278700  1
  O  O154  1  0.64405459  1.00194387  0.12459238  1
  O  O155  1  0.63168388  0.99952141  0.63107393  1
  O  O156  1  0.98852636  0.30048120  0.12661951  1
  O  O157  1  0.98088316  0.33441140  0.63064620  1
  O  O158  1  0.98244458  0.65897130  0.12957325  1
  O  O159  1  0.96794629  0.65582907  0.62569039  1
  O  O160  1  0.96989903  1.00073886  0.12331788  1
  O  O161  1  0.97138413  0.98871964  0.62742455  1
  O  O162  1  0.18711336  0.17301326  0.12493221  1
  O  O163  1  0.20253125  0.16113272  0.62674283  1
  O  O164  1  0.20752762  0.47899596  0.12615410  1
  O  O165  1  0.18546797  0.48958459  0.62163137  1
  O  O166  1  0.20031702  0.82929233  0.12192883  1
  O  O167  1  0.20178237  0.83368492  0.62035685  1
  O  O168  1  0.51262129  0.16845698  0.11853754  1
  O  O169  1  0.51988781  0.15228641  0.62921656  1
  O  O170  1  0.53002284  0.49510494  0.12636942  1
  O  O171  1  0.53007079  0.48746878  0.63334900  1
  O  O172  1  0.51288689  0.82505699  0.11970019  1
  O  O173  1  0.50923115  0.83167180  0.62452168  1
  O  O174  1  0.85489769  0.15683150  0.12732330  1
  O  O175  1  0.84729128  0.15413481  0.62557621  1
  O  O176  1  0.86243861  0.49500199  0.12721731  1
  O  O177  1  0.86688732  0.49731278  0.61753240  1
  O  O178  1  0.86712281  0.83130244  0.12246432  1
  O  O179  1  0.86574485  0.81960996  0.62417008  1
  O  O180  1  0.14583079  0.17472371  0.37879253  1
  O  O181  1  0.14940294  0.18535394  0.87379996  1
  O  O182  1  0.13351584  0.51287702  0.37895077  1
  O  O183  1  0.14448234  0.49114263  0.87903936  1
  O  O184  1  0.15209996  0.83473726  0.37994256  1
  O  O185  1  0.14819607  0.84517567  0.88056211  1
  O  O186  1  0.46694718  0.18197831  0.37788340  1
  O  O187  1  0.46879075  0.17679771  0.87059740  1
  O  O188  1  0.48352116  0.49958560  0.36652114  1
  O  O189  1  0.46363579  0.51181481  0.87257061  1
  O  O190  1  0.46015373  0.84718742  0.37309544  1
  O  O191  1  0.46669190  0.83390774  0.88018293  1
  O  O192  1  0.81885879  0.16021365  0.36911087  1
  O  O193  1  0.81780006  0.17194697  0.87500329  1
  O  O194  1  0.81191431  0.50259471  0.37541279  1
  O  O195  1  0.81624596  0.51801474  0.88066235  1
  O  O196  1  0.82034230  0.83813511  0.38239840  1
  O  O197  1  0.81743418  0.83965813  0.87409708  1
  O  O198  1  0.01810480  -0.00441405  0.37589883  1
  O  O199  1  0.03551603  -0.00008592  0.87641537  1
  O  O200  1  0.03482761  0.35059075  0.37526844  1
  O  O201  1  0.02777111  0.34041772  0.86923171  1
  O  O202  1  0.03597048  0.67081605  0.36880615  1
  O  O203  1  0.01625312  0.66623388  0.86726169  1
  O  O204  1  0.36841432  0.00939960  0.37942469  1
  O  O205  1  0.35759415  0.01155100  0.87296966  1
  O  O206  1  0.37127811  0.33939985  0.38746522  1
  O  O207  1  0.37045149  0.34595431  0.87891688  1
  O  O208  1  0.35316670  0.68043527  0.37134936  1
  O  O209  1  0.36897424  0.68079457  0.87784428  1
  O  O210  1  0.68565852  0.00007957  0.36483803  1
  O  O211  1  0.68429063  -0.00319013  0.87884726  1
  O  O212  1  0.68645364  0.33779873  0.37321265  1
  O  O213  1  0.69707480  0.33654882  0.88203011  1
  O  O214  1  0.68189272  0.66215114  0.37272523  1
  O  O215  1  0.69906977  0.66729758  0.87418784  1
  O  O216  1  0.06656907  0.09867442  0.02093404  1
  O  O217  1  0.07198064  0.08382174  0.51728335  1
  O  O218  1  0.06553655  0.43467970  0.03620885  1
  O  O219  1  0.07287128  0.43407247  0.52580894  1
  O  O220  1  0.07443822  0.77251273  0.02901533  1
  O  O221  1  0.07565754  0.76786801  0.52566666  1
  O  O222  1  0.40161066  0.09709589  0.00933170  1
  O  O223  1  0.39803053  0.09307956  0.53033647  1
  O  O224  1  0.39249896  0.43199103  0.02156462  1
  O  O225  1  0.40788596  0.41913301  0.53029238  1
  O  O226  1  0.40295661  0.76660564  0.02564587  1
  O  O227  1  0.38962675  0.76549456  0.51221890  1
  O  O228  1  0.74007551  0.08455981  0.01988016  1
  O  O229  1  0.74450089  0.08520089  0.51870611  1
  O  O230  1  0.73369270  0.43129802  0.02539880  1
  O  O231  1  0.73483722  0.43390085  0.52285315  1
  O  O232  1  0.73438046  0.75049268  0.01636868  1
  O  O233  1  0.75210254  0.75834596  0.52341416  1
  O  O234  1  0.11227616  0.27978450  0.00743492  1
  O  O235  1  0.10569480  0.26956016  0.52181967  1
  O  O236  1  0.09928774  0.60208532  0.02749828  1
  O  O237  1  0.09217824  0.58904267  0.52187314  1
  O  O238  1  0.09962137  0.93321772  0.01986491  1
  O  O239  1  0.09480921  0.92126107  0.52528814  1
  O  O240  1  0.43267405  0.26559021  0.00811172  1
  O  O241  1  0.42351360  0.26433672  0.53689012  1
  O  O242  1  0.42855677  0.59557302  0.03486392  1
  O  O243  1  0.41642681  0.59349643  0.50677760  1
  O  O244  1  0.42405566  0.92331039  0.02302876  1
  O  O245  1  0.42620551  0.93431539  0.52680910  1
  O  O246  1  0.75574851  0.26457095  0.01588896  1
  O  O247  1  0.74955569  0.26369576  0.51038759  1
  O  O248  1  0.74688685  0.58667050  0.02641685  1
  O  O249  1  0.76766367  0.59006554  0.52867359  1
  O  O250  1  0.75589785  0.93025810  0.02351814  1
  O  O251  1  0.77000433  0.92391433  0.52728122  1
  O  O252  1  0.24729139  0.07003760  0.27288760  1
  O  O253  1  0.23999265  0.06349382  0.77895442  1
  O  O254  1  0.23509928  0.39954645  0.28217257  1
  O  O255  1  0.23812434  0.39916017  0.77327447  1
  O  O256  1  0.23398359  0.73132306  0.27137547  1
  O  O257  1  0.24073173  0.74121572  0.77541454  1
  O  O258  1  0.57328309  0.07126757  0.27147726  1
  O  O259  1  0.56722466  0.07109820  0.76828321  1
  O  O260  1  0.56858217  0.40395683  0.27049582  1
  O  O261  1  0.56094483  0.40237590  0.77607499  1
  O  O262  1  0.56589291  0.73711342  0.25147100  1
  O  O263  1  0.57196430  0.73063497  0.77363570  1
  O  O264  1  0.89820063  0.06702527  0.25513147  1
  O  O265  1  0.91217140  0.06910079  0.75991985  1
  O  O266  1  0.91046434  0.41340388  0.26909462  1
  O  O267  1  0.90198238  0.39834224  0.77483845  1
  O  O268  1  0.91629687  0.73526545  0.26650659  1
  O  O269  1  0.89928032  0.72941995  0.76453395  1
  O  O270  1  0.27025720  0.23415247  0.28460745  1
  O  O271  1  0.27905460  0.22527575  0.76808503  1
  O  O272  1  0.26206772  0.57512644  0.27324803  1
  O  O273  1  0.26598173  0.56666931  0.77360191  1
  O  O274  1  0.27052548  0.90245136  0.26866159  1
  O  O275  1  0.26771536  0.90636408  0.77700358  1
  O  O276  1  0.59445926  0.24776707  0.26830214  1
  O  O277  1  0.58519850  0.23951361  0.77017920  1
  O  O278  1  0.59151292  0.56658791  0.25607689  1
  O  O279  1  0.59292627  0.57131329  0.77364790  1
  O  O280  1  0.58996389  0.91517050  0.26730812  1
  O  O281  1  0.59363174  0.90958081  0.76611026  1
  O  O282  1  0.92538514  0.23184604  0.26368776  1
  O  O283  1  0.93090623  0.24702123  0.76975963  1
  O  O284  1  0.93883059  0.56770058  0.26967876  1
  O  O285  1  0.92520530  0.57632052  0.76483935  1
  O  O286  1  0.93184359  0.90828941  0.25662953  1
  O  O287  1  0.93136478  0.90824013  0.75795992  1
  O  O288  1  0.27157254  0.24032636  0.47536680  1
  O  O289  1  0.27687533  0.23717984  0.97046933  1
  O  O290  1  0.25173609  0.57862448  0.47434812  1
  O  O291  1  0.26953965  0.56489489  0.97473534  1
  O  O292  1  0.27026316  0.90013176  0.47714962  1
  O  O293  1  0.26709886  0.90312110  0.97276925  1
  O  O294  1  0.58900195  0.24878323  0.47611310  1
  O  O295  1  0.59131590  0.24412100  0.97505923  1
  O  O296  1  0.59485690  0.56846426  0.50051384  1
  O  O297  1  0.58611021  0.58181953  0.97098703  1
  O  O298  1  0.58674127  0.91240721  0.47183215  1
  O  O299  1  0.58988051  0.90368239  0.98567918  1
  O  O300  1  0.92562180  0.24258129  0.48658306  1
  O  O301  1  0.92217377  0.24625247  0.97938561  1
  O  O302  1  0.93076354  0.56644909  0.47573068  1
  O  O303  1  0.91998886  0.57093703  0.99386689  1
  O  O304  1  0.93495971  0.89785450  0.49524023  1
  O  O305  1  0.93855749  0.90794263  0.99122540  1
  O  O306  1  0.24963329  0.07191899  0.47965395  1
  O  O307  1  0.24105648  0.06675992  0.97288033  1
  O  O308  1  0.23543374  0.40094761  0.47867726  1
  O  O309  1  0.24208801  0.39460075  0.97215193  1
  O  O310  1  0.23434479  0.73848911  0.47071172  1
  O  O311  1  0.23693289  0.74556481  0.98182668  1
  O  O312  1  0.56421472  0.06998048  0.47638524  1
  O  O313  1  0.57089204  0.07686522  0.98309289  1
  O  O314  1  0.56765919  0.39886017  0.47934168  1
  O  O315  1  0.57173716  0.40137670  0.97608643  1
  O  O316  1  0.57516178  0.74289747  0.48329315  1
  O  O317  1  0.56301247  0.73425965  0.97647645  1
  O  O318  1  0.90984850  0.06372608  0.49560081  1
  O  O319  1  0.91285324  0.06927238  0.98995922  1
  O  O320  1  0.90907197  0.41512876  0.47548870  1
  O  O321  1  0.89407556  0.40756200  0.97708039  1
  O  O322  1  0.90512741  0.74033074  0.48557427  1
  O  O323  1  0.90151302  0.73255570  0.97395019  1
  O  O324  1  0.11500530  0.27884861  0.24187855  1
  O  O325  1  0.10091589  0.27438205  0.73009702  1
  O  O326  1  0.10041904  0.60333899  0.22408886  1
  O  O327  1  0.08447870  0.59324809  0.72681539  1
  O  O328  1  0.08710555  0.92955548  0.22867563  1
  O  O329  1  0.08982509  0.92372071  0.73490626  1
  O  O330  1  0.43130339  0.26728623  0.24013850  1
  O  O331  1  0.43506524  0.25938777  0.72197956  1
  O  O332  1  0.42922995  0.59784864  0.22009496  1
  O  O333  1  0.43657316  0.59330000  0.73491057  1
  O  O334  1  0.42266881  0.92833314  0.22956605  1
  O  O335  1  0.42726054  0.93612830  0.72747310  1
  O  O336  1  0.76178409  0.25980548  0.23384976  1
  O  O337  1  0.75883075  0.26394345  0.74006393  1
  O  O338  1  0.75819731  0.58194778  0.22626734  1
  O  O339  1  0.76133214  0.59886135  0.72794491  1
  O  O340  1  0.75954525  0.93228211  0.22581343  1
  O  O341  1  0.75556606  0.93247223  0.72291362  1
  O  O342  1  0.06218688  0.09965472  0.23034776  1
  O  O343  1  0.07363571  0.08753408  0.73658951  1
  O  O344  1  0.06623625  0.43803796  0.22054652  1
  O  O345  1  0.06536942  0.42902115  0.72234477  1
  O  O346  1  0.07051504  0.76222201  0.21885703  1
  O  O347  1  0.06278171  0.75941363  0.72389043  1
  O  O348  1  0.40269472  0.09036488  0.24322028  1
  O  O349  1  0.40075826  0.09671942  0.72352001  1
  O  O350  1  0.40299491  0.43829019  0.22652748  1
  O  O351  1  0.41095641  0.42834651  0.73068926  1
  O  O352  1  0.39195458  0.75936074  0.22322718  1
  O  O353  1  0.39408002  0.77217192  0.73404054  1
  O  O354  1  0.74132109  0.09006325  0.22178578  1
  O  O355  1  0.73752019  0.08360661  0.73388343  1
  O  O356  1  0.73909697  0.43182216  0.22855419  1
  O  O357  1  0.73037919  0.43696103  0.72478706  1
  O  O358  1  0.74395917  0.75716851  0.23192825  1
  O  O359  1  0.73706587  0.75214256  0.72891513  1
