# generated using pymatgen
data_BaLaInIrO6
_symmetry_space_group_name_H-M   'P 1'
_cell_length_a   17.52675384
_cell_length_b   17.56754217
_cell_length_c   16.50208516
_cell_angle_alpha   89.97945601
_cell_angle_beta   90.03122638
_cell_angle_gamma   90.07054640
_symmetry_Int_Tables_number   1
_chemical_formula_structural   BaLaInIrO6
_chemical_formula_sum   'Ba36 La36 In36 Ir36 O216'
_cell_volume   5081.01988054
_cell_formula_units_Z   36
loop_
 _symmetry_equiv_pos_site_id
 _symmetry_equiv_pos_as_xyz
  1  'x, y, z'
loop_
 _atom_site_type_symbol
 _atom_site_label
 _atom_site_symmetry_multiplicity
 _atom_site_fract_x
 _atom_site_fract_y
 _atom_site_fract_z
 _atom_site_occupancy
  Ba  Ba0  1  0.66904265  0.84237583  0.62069359  1
  Ba  Ba1  1  0.33234739  0.50716779  0.62526196  1
  Ba  Ba2  1  0.17066198  0.32677704  0.37238815  1
  Ba  Ba3  1  0.33624181  0.48738175  0.87733908  1
  Ba  Ba4  1  0.83184902  0.33972361  0.12253671  1
  Ba  Ba5  1  0.16530086  0.67372912  0.62952463  1
  Ba  Ba6  1  0.49557022  0.67313190  0.12609485  1
  Ba  Ba7  1  0.49713178  0.00932725  0.12057328  1
  Ba  Ba8  1  0.16076711  0.01079915  0.62583563  1
  Ba  Ba9  1  0.16675312  0.34320915  0.62514217  1
  Ba  Ba10  1  0.49692224  0.67484751  0.62303194  1
  Ba  Ba11  1  0.33333478  0.50470448  0.13058412  1
  Ba  Ba12  1  0.50391545  0.32553050  0.37777748  1
  Ba  Ba13  1  0.99885471  0.17903403  0.63221173  1
  Ba  Ba14  1  0.83353066  0.67918501  0.62329348  1
  Ba  Ba15  1  0.16489278  0.67693690  0.12125565  1
  Ba  Ba16  1  1.00280142  0.50708844  0.12323512  1
  Ba  Ba17  1  0.83505182  0.99146397  0.87364543  1
  Ba  Ba18  1  0.82979277  0.00695597  0.62454348  1
  Ba  Ba19  1  0.83305768  0.32250133  0.87652370  1
  Ba  Ba20  1  0.49924434  0.34153143  0.62688527  1
  Ba  Ba21  1  1.00260268  0.84427228  0.62162510  1
  Ba  Ba22  1  0.66644465  0.16126340  0.37037769  1
  Ba  Ba23  1  0.67089671  0.49310209  0.37692696  1
  Ba  Ba24  1  0.67240309  0.51107404  0.12786608  1
  Ba  Ba25  1  0.00036678  0.15991801  0.87524612  1
  Ba  Ba26  1  0.82955588  0.34256715  0.63080319  1
  Ba  Ba27  1  0.66696727  0.82151837  0.37311273  1
  Ba  Ba28  1  0.82978898  0.00460131  0.12516922  1
  Ba  Ba29  1  0.33534099  0.84778985  0.62678235  1
  Ba  Ba30  1  0.33228076  0.15802553  0.37703687  1
  Ba  Ba31  1  0.82580269  0.67424767  0.12815772  1
  Ba  Ba32  1  0.66590798  0.84014617  0.12529709  1
  Ba  Ba33  1  0.49988423  0.00565876  0.62551063  1
  Ba  Ba34  1  0.66500938  0.82381633  0.87353633  1
  Ba  Ba35  1  0.83518616  0.65386528  0.37966382  1
  La  La36  1  0.33518787  0.18229255  0.12387736  1
  La  La37  1  0.49959888  0.34418054  0.13012315  1
  La  La38  1  0.83580376  0.97748572  0.37444376  1
  La  La39  1  0.50348565  0.99243732  0.37371471  1
  La  La40  1  0.33038950  0.81670247  0.87494349  1
  La  La41  1  0.32989901  0.15357646  0.87415861  1
  La  La42  1  0.16632696  0.98496392  0.87082737  1
  La  La43  1  0.50591153  0.31731435  0.88005360  1
  La  La44  1  -0.00559166  0.81677533  0.37703072  1
  La  La45  1  0.99499679  0.83635398  0.12684382  1
  La  La46  1  1.00300908  0.51002698  0.62798007  1
  La  La47  1  0.17034250  0.98578083  0.37654919  1
  La  La48  1  -0.00654475  0.15193799  0.37930745  1
  La  La49  1  0.50342655  0.98584813  0.87499515  1
  La  La50  1  0.15958506  0.34981081  0.11888991  1
  La  La51  1  -0.00949831  0.48361946  0.38212176  1
  La  La52  1  0.17060622  0.64471039  0.87374767  1
  La  La53  1  1.00297999  0.18453949  0.12079705  1
  La  La54  1  0.33792439  0.82357688  0.37631778  1
  La  La55  1  0.33901935  0.85287009  0.12406736  1
  La  La56  1  0.66791296  0.18036838  0.12594044  1
  La  La57  1  0.67349185  0.51972987  0.62485849  1
  La  La58  1  0.83316856  0.65477078  0.87414990  1
  La  La59  1  0.66243207  0.48578888  0.87830146  1
  La  La60  1  0.83254747  0.32753469  0.37905651  1
  La  La61  1  0.16243213  0.01043711  0.12521895  1
  La  La62  1  0.50899960  0.64819535  0.37703910  1
  La  La63  1  0.33449639  0.48730696  0.37948826  1
  La  La64  1  0.67646228  0.17855362  0.61898682  1
  La  La65  1  0.16605280  0.65224929  0.37551627  1
  La  La66  1  0.33168427  0.18099580  0.62402287  1
  La  La67  1  0.16987148  0.32151218  0.86897970  1
  La  La68  1  0.66268995  0.15227777  0.87825257  1
  La  La69  1  0.50320958  0.64665424  0.87210459  1
  La  La70  1  -0.00441642  0.48486821  0.87057902  1
  La  La71  1  -0.00339465  0.82129182  0.87074999  1
  In  In72  1  0.66454433  0.33387576  0.75122791  1
  In  In73  1  0.66592600  0.00044654  0.74991168  1
  In  In74  1  0.16233461  0.16608653  0.49807532  1
  In  In75  1  0.33381541  0.33189505  0.24832215  1
  In  In76  1  0.00104787  0.66481836  0.24983862  1
  In  In77  1  0.16533771  0.16468678  0.24663156  1
  In  In78  1  0.49831306  0.83425442  0.24902488  1
  In  In79  1  -0.00164006  0.00200112  0.74956922  1
  In  In80  1  0.00019327  -0.00098432  0.24805149  1
  In  In81  1  0.49784526  0.16360762  0.24693654  1
  In  In82  1  0.16592193  0.83391972  0.00100897  1
  In  In83  1  0.16349832  0.49973171  0.49966051  1
  In  In84  1  0.50033402  0.49782541  0.00327813  1
  In  In85  1  0.33458953  0.33241526  0.50186947  1
  In  In86  1  0.33090117  0.66552837  0.00083844  1
  In  In87  1  0.16628076  0.83330699  0.74988188  1
  In  In88  1  0.83432456  0.16322302  -0.00002783  1
  In  In89  1  0.16611571  0.50233466  0.25262988  1
  In  In90  1  0.49957768  0.82941948  0.75136632  1
  In  In91  1  0.49995075  0.16520304  0.75156617  1
  In  In92  1  0.16716105  0.83171819  0.49606993  1
  In  In93  1  0.50033496  0.83453287  0.49866382  1
  In  In94  1  0.83584501  0.49701753  0.25123752  1
  In  In95  1  -0.00057297  0.66649759  -0.00315868  1
  In  In96  1  0.83171675  0.83253542  -0.00245481  1
  In  In97  1  0.33242401  0.66928134  0.25239205  1
  In  In98  1  -0.00052787  0.66633998  0.75176436  1
  In  In99  1  0.00311303  0.32931950  0.25140496  1
  In  In100  1  0.83303422  0.49852588  -0.00345295  1
  In  In101  1  0.49748893  0.83060644  -0.00198701  1
  In  In102  1  0.83530757  0.16296041  0.24961671  1
  In  In103  1  0.50385434  0.49921363  0.50532612  1
  In  In104  1  0.16904243  0.16403931  -0.00086743  1
  In  In105  1  0.83466500  0.16540662  0.49806231  1
  In  In106  1  0.33546556  0.66836345  0.49579747  1
  In  In107  1  0.50303493  0.16405511  0.50295481  1
  Ir  Ir108  1  0.49681026  0.16793574  0.00064507  1
  Ir  Ir109  1  0.83569891  0.49682787  0.50692111  1
  Ir  Ir110  1  0.82999337  0.16864303  0.75058513  1
  Ir  Ir111  1  0.00044422  0.00042783  0.49553745  1
  Ir  Ir112  1  0.16614134  0.49313732  -0.00645554  1
  Ir  Ir113  1  0.50184610  0.49893704  0.75346722  1
  Ir  Ir114  1  0.33253926  0.00231793  0.49797184  1
  Ir  Ir115  1  0.66950037  0.66597216  0.49995650  1
  Ir  Ir116  1  0.33450203  0.32974790  -0.00122939  1
  Ir  Ir117  1  0.83114205  0.50093570  0.74992831  1
  Ir  Ir118  1  0.66859429  0.66255555  0.75229746  1
  Ir  Ir119  1  -0.00172658  0.33501122  0.50539092  1
  Ir  Ir120  1  0.66592981  0.33321164  0.24849514  1
  Ir  Ir121  1  0.83365830  0.83073328  0.25398301  1
  Ir  Ir122  1  0.83027825  0.83010432  0.74942815  1
  Ir  Ir123  1  0.66282897  0.33025758  0.00101740  1
  Ir  Ir124  1  0.16720052  0.83770790  0.25124331  1
  Ir  Ir125  1  0.50440891  0.49860438  0.25016070  1
  Ir  Ir126  1  0.33741077  0.33425944  0.75713156  1
  Ir  Ir127  1  0.32771164  -0.00094417  0.24966728  1
  Ir  Ir128  1  0.66882398  0.00031316  0.49384922  1
  Ir  Ir129  1  0.00023027  0.66599517  0.50082472  1
  Ir  Ir130  1  0.66278043  0.00337347  0.00286267  1
  Ir  Ir131  1  0.00416178  0.33363654  -0.00491535  1
  Ir  Ir132  1  0.33167692  0.00295407  -0.00553571  1
  Ir  Ir133  1  0.66501927  0.66613376  0.25210271  1
  Ir  Ir134  1  0.00361872  -0.00221524  0.00127927  1
  Ir  Ir135  1  0.33436039  0.66348589  0.75367604  1
  Ir  Ir136  1  0.33209416  0.00613527  0.75179854  1
  Ir  Ir137  1  0.67046969  0.33465644  0.50044645  1
  Ir  Ir138  1  0.16638492  0.49637561  0.75311390  1
  Ir  Ir139  1  0.17014855  0.17058481  0.75307326  1
  Ir  Ir140  1  0.00049802  0.33577034  0.75071289  1
  Ir  Ir141  1  0.66765573  -0.00047723  0.24966478  1
  Ir  Ir142  1  0.83528888  0.83316822  0.49952249  1
  Ir  Ir143  1  0.66666717  0.66509436  -0.00375533  1
  O  O144  1  0.29851247  0.32466277  0.11615236  1
  O  O145  1  0.31587769  0.32563991  0.63803927  1
  O  O146  1  0.31369418  0.65688960  0.12708923  1
  O  O147  1  0.31623039  0.66172070  0.63323978  1
  O  O148  1  0.29900177  0.98889198  0.12114827  1
  O  O149  1  0.30689489  0.99983437  0.62649864  1
  O  O150  1  0.63511371  0.32200169  0.12491582  1
  O  O151  1  0.65160303  0.31908446  0.62161202  1
  O  O152  1  0.64355742  0.66544394  0.12191641  1
  O  O153  1  0.64554226  0.65634444  0.62647173  1
  O  O154  1  0.64408227  0.99437996  0.12765614  1
  O  O155  1  0.65242724  1.00044883  0.61548048  1
  O  O156  1  0.98188611  0.32923440  0.11497093  1
  O  O157  1  0.97639644  0.33616376  0.62855236  1
  O  O158  1  0.97904575  0.66700939  0.12343757  1
  O  O159  1  0.98329321  0.64955292  0.62225225  1
  O  O160  1  0.98144450  0.97530101  0.11968545  1
  O  O161  1  0.98009301  0.99882964  0.61657675  1
  O  O162  1  0.20426351  0.14475546  0.11984242  1
  O  O163  1  0.19500940  0.16544948  0.63292178  1
  O  O164  1  0.18395027  0.49074702  0.11506035  1
  O  O165  1  0.18036501  0.50332500  0.63202131  1
  O  O166  1  0.20167564  0.83440013  0.13100353  1
  O  O167  1  0.18559623  0.83225681  0.62270287  1
  O  O168  1  0.53187160  0.16231464  0.11819095  1
  O  O169  1  0.54137570  0.16086802  0.62826872  1
  O  O170  1  0.52496173  0.49045709  0.12935539  1
  O  O171  1  0.53337219  0.49955312  0.63530822  1
  O  O172  1  0.51367047  0.83322289  0.12299652  1
  O  O173  1  0.51555678  0.83469617  0.62573005  1
  O  O174  1  0.86537626  0.16464845  0.12410924  1
  O  O175  1  0.84479608  0.16948972  0.62809475  1
  O  O176  1  0.85021551  0.49958456  0.12285119  1
  O  O177  1  0.86544500  0.49894411  0.62925053  1
  O  O178  1  0.85803203  0.83027511  0.13038725  1
  O  O179  1  0.85306044  0.83487262  0.62391910  1
  O  O180  1  0.12866763  0.16980540  0.37161875  1
  O  O181  1  0.15007843  0.18236793  0.87309969  1
  O  O182  1  0.12385317  0.50597365  0.37761284  1
  O  O183  1  0.13606827  0.49244759  0.87315285  1
  O  O184  1  0.13132328  0.84876881  0.36818323  1
  O  O185  1  0.13409285  0.84824032  0.87634552  1
  O  O186  1  0.48446640  0.16229278  0.37413830  1
  O  O187  1  0.46517949  0.17862796  0.88290099  1
  O  O188  1  0.47815281  0.50286822  0.37040951  1
  O  O189  1  0.48604065  0.50548598  0.87296759  1
  O  O190  1  0.47397198  0.85381970  0.37299540  1
  O  O191  1  0.46673450  0.84366653  0.87449536  1
  O  O192  1  0.81881897  0.18915552  0.37333814  1
  O  O193  1  0.80372337  0.16437787  0.87330573  1
  O  O194  1  0.82117750  0.49076000  0.38631920  1
  O  O195  1  0.79781075  0.50648587  0.86797937  1
  O  O196  1  0.81416284  0.83883648  0.37733588  1
  O  O197  1  0.81256059  0.83415191  0.86733407  1
  O  O198  1  0.03162170  0.01125240  0.37602312  1
  O  O199  1  0.02825248  0.00625815  0.88199726  1
  O  O200  1  0.01941526  0.34386641  0.38570648  1
  O  O201  1  0.03330694  0.34191838  0.87179615  1
  O  O202  1  0.02518694  0.67917655  0.37986979  1
  O  O203  1  0.03719361  0.68354984  0.87512295  1
  O  O204  1  0.36282056  0.00494562  0.37292918  1
  O  O205  1  0.36616749  0.01814150  0.87422362  1
  O  O206  1  0.35489661  0.34382693  0.37406296  1
  O  O207  1  0.36934920  0.33404493  0.87865929  1
  O  O208  1  0.37717469  0.68681173  0.37013342  1
  O  O209  1  0.36397897  0.67197682  0.87156267  1
  O  O210  1  0.69883369  0.00559473  0.37093093  1
  O  O211  1  0.68558012  0.01448652  0.88394820  1
  O  O212  1  0.69762790  0.33804866  0.37375328  1
  O  O213  1  0.68285376  0.34446942  0.88138394  1
  O  O214  1  0.68894309  0.66449675  0.37558412  1
  O  O215  1  0.69777539  0.66531778  0.87434032  1
  O  O216  1  0.06688002  0.09422341  0.02703675  1
  O  O217  1  0.06253768  0.09539985  0.51441388  1
  O  O218  1  0.07640414  0.42159465  0.01687565  1
  O  O219  1  0.05827217  0.43328835  0.52469192  1
  O  O220  1  0.06346414  0.77273116  0.02490712  1
  O  O221  1  0.06505225  0.75954691  0.50918343  1
  O  O222  1  0.39574533  0.10433623  0.02022088  1
  O  O223  1  0.39576401  0.09495228  0.52780212  1
  O  O224  1  0.40638364  0.41669382  0.02307790  1
  O  O225  1  0.40948493  0.42738934  0.51469551  1
  O  O226  1  0.38853240  0.77434586  0.01378046  1
  O  O227  1  0.39748761  0.77232052  0.50873218  1
  O  O228  1  0.72789225  0.09769850  0.02289761  1
  O  O229  1  0.73310787  0.09580518  0.51511775  1
  O  O230  1  0.73303506  0.42236835  0.01213423  1
  O  O231  1  0.73725925  0.43223269  0.52811109  1
  O  O232  1  0.73428789  0.75630871  0.01274193  1
  O  O233  1  0.74197694  0.75991630  0.51575087  1
  O  O234  1  0.09634319  0.26310315  0.01960595  1
  O  O235  1  0.08757840  0.26666819  0.51861757  1
  O  O236  1  0.09702836  0.58543650  0.00500120  1
  O  O237  1  0.09077401  0.59984825  0.51491973  1
  O  O238  1  0.10413733  0.94221626  0.01600889  1
  O  O239  1  0.09168502  0.93276283  0.50749230  1
  O  O240  1  0.43198047  0.26490367  0.02815489  1
  O  O241  1  0.42227125  0.25067688  0.52788384  1
  O  O242  1  0.43083298  0.59476072  0.00482450  1
  O  O243  1  0.43361877  0.59687973  0.50368367  1
  O  O244  1  0.42066414  0.93555719  0.01192624  1
  O  O245  1  0.42529409  0.93978542  0.50786857  1
  O  O246  1  0.74890410  0.25590285  0.02041659  1
  O  O247  1  0.76048347  0.26546520  0.51226434  1
  O  O248  1  0.75941575  0.59903894  0.00735139  1
  O  O249  1  0.76106091  0.58785288  0.52660816  1
  O  O250  1  0.75297586  0.92938834  0.01337748  1
  O  O251  1  0.76801429  0.93279031  0.50548902  1
  O  O252  1  0.23084227  0.05809266  0.27086393  1
  O  O253  1  0.23672554  0.07485079  0.77906937  1
  O  O254  1  0.25195000  0.41851440  0.26745419  1
  O  O255  1  0.23770191  0.40064233  0.77560933  1
  O  O256  1  0.22614000  0.74385123  0.27978591  1
  O  O257  1  0.24255440  0.73252675  0.77960843  1
  O  O258  1  0.57357371  0.06561179  0.26765499  1
  O  O259  1  0.57031845  0.07297100  0.78533882  1
  O  O260  1  0.57553331  0.40592723  0.26574223  1
  O  O261  1  0.56677383  0.40598782  0.77905090  1
  O  O262  1  0.56969716  0.73306583  0.27215709  1
  O  O263  1  0.57286261  0.72704615  0.77510669  1
  O  O264  1  0.90160140  0.06354557  0.28101583  1
  O  O265  1  0.90432260  0.08081550  0.76338573  1
  O  O266  1  0.90370369  0.39609419  0.27495103  1
  O  O267  1  0.90880230  0.41126249  0.77676417  1
  O  O268  1  0.90684460  0.74408059  0.27221468  1
  O  O269  1  0.89838588  0.73708638  0.77324520  1
  O  O270  1  0.26371880  0.23361827  0.25879327  1
  O  O271  1  0.26821190  0.24002820  0.77868849  1
  O  O272  1  0.26222515  0.57585888  0.29057665  1
  O  O273  1  0.25713893  0.57161268  0.77750107  1
  O  O274  1  0.26444029  0.90098922  0.27756468  1
  O  O275  1  0.26666220  0.91142560  0.78157431  1
  O  O276  1  0.59308460  0.24504020  0.25823127  1
  O  O277  1  0.59126903  0.24104748  0.78759700  1
  O  O278  1  0.58998265  0.57678092  0.27606917  1
  O  O279  1  0.60067088  0.56581707  0.77724700  1
  O  O280  1  0.59406404  0.91403279  0.27091459  1
  O  O281  1  0.58537427  0.91326190  0.77303383  1
  O  O282  1  0.94452280  0.22433413  0.26385620  1
  O  O283  1  0.92566298  0.24273926  0.77025306  1
  O  O284  1  0.93480310  0.56473136  0.27717134  1
  O  O285  1  0.92431295  0.56883050  0.77608295  1
  O  O286  1  0.92856178  0.89838107  0.27500201  1
  O  O287  1  0.92565635  0.89703302  0.76973690  1
  O  O288  1  0.25836450  0.23698441  0.49323233  1
  O  O289  1  0.27109860  0.23618797  0.97620044  1
  O  O290  1  0.26077454  0.57363241  0.47025822  1
  O  O291  1  0.25058417  0.56930254  0.97364242  1
  O  O292  1  0.26472520  0.90939202  0.46721295  1
  O  O293  1  0.26818142  0.90768096  0.96976564  1
  O  O294  1  0.60274176  0.24281144  0.48624950  1
  O  O295  1  0.59408306  0.23358969  0.97552580  1
  O  O296  1  0.59924758  0.57658676  0.48720777  1
  O  O297  1  0.60110782  0.57043416  0.97397324  1
  O  O298  1  0.59667463  0.91306673  0.47655960  1
  O  O299  1  0.58817174  0.91712565  0.97804732  1
  O  O300  1  0.93405894  0.24080280  0.47911059  1
  O  O301  1  0.93070380  0.24491206  0.98477103  1
  O  O302  1  0.93541080  0.56314082  0.48585805  1
  O  O303  1  0.92495985  0.57327110  0.95950746  1
  O  O304  1  0.93055815  0.90409993  0.47030774  1
  O  O305  1  0.94056518  0.90047241  0.97862497  1
  O  O306  1  0.23602093  0.06460337  0.47675952  1
  O  O307  1  0.23937482  0.06709133  0.96609812  1
  O  O308  1  0.24348204  0.41256049  0.48256433  1
  O  O309  1  0.23410428  0.39209931  0.97596587  1
  O  O310  1  0.23668625  0.73825103  0.46348593  1
  O  O311  1  0.23243900  0.73512891  0.96645958  1
  O  O312  1  0.57405452  0.06393327  0.47490728  1
  O  O313  1  0.56673917  0.07511178  0.97232732  1
  O  O314  1  0.58314621  0.40563872  0.48781367  1
  O  O315  1  0.56968485  0.39762497  0.98157386  1
  O  O316  1  0.57508882  0.73317661  0.47715573  1
  O  O317  1  0.56903609  0.72819871  0.97412555  1
  O  O318  1  0.90647878  0.06654842  0.47062447  1
  O  O319  1  0.91138987  0.06488192  0.98714148  1
  O  O320  1  0.90183747  0.40049613  0.48200980  1
  O  O321  1  0.91863012  0.40987591  0.97214344  1
  O  O322  1  0.90848064  0.74148052  0.48056968  1
  O  O323  1  0.90276716  0.73866031  0.96547219  1
  O  O324  1  0.09811973  0.26042851  0.20812886  1
  O  O325  1  0.09992313  0.26780865  0.73744649  1
  O  O326  1  0.10478105  0.60543450  0.24077450  1
  O  O327  1  0.09371606  0.58517084  0.74226000  1
  O  O328  1  0.10719876  0.93341527  0.22928660  1
  O  O329  1  0.09691965  0.93559039  0.74365819  1
  O  O330  1  0.42643731  0.25750684  0.21322050  1
  O  O331  1  0.42653620  0.26443813  0.73905333  1
  O  O332  1  0.43261596  0.58525878  0.23913202  1
  O  O333  1  0.43325121  0.59636578  0.73971057  1
  O  O334  1  0.41902423  0.93516472  0.23116720  1
  O  O335  1  0.42183724  0.93901298  0.74147815  1
  O  O336  1  0.75083486  0.25731586  0.22794865  1
  O  O337  1  0.75636480  0.25454032  0.73724458  1
  O  O338  1  0.75455094  0.59243511  0.24261322  1
  O  O339  1  0.76114204  0.59170930  0.72640840  1
  O  O340  1  0.76484004  0.92978782  0.24184343  1
  O  O341  1  0.76000045  0.92140691  0.73567288  1
  O  O342  1  0.06830911  0.09415737  0.21100289  1
  O  O343  1  0.07967473  0.10154426  0.73885561  1
  O  O344  1  0.07961023  0.41977123  0.22863370  1
  O  O345  1  0.06696490  0.43221119  0.73066754  1
  O  O346  1  0.06897160  0.77789784  0.23179231  1
  O  O347  1  0.06874638  0.76257218  0.73465238  1
  O  O348  1  0.39095389  0.09458769  0.22248560  1
  O  O349  1  0.39305089  0.10376508  0.73033207  1
  O  O350  1  0.42234575  0.42053017  0.22801988  1
  O  O351  1  0.40669084  0.43019523  0.73411572  1
  O  O352  1  0.39091164  0.77616252  0.22935444  1
  O  O353  1  0.39842985  0.75758192  0.74060816  1
  O  O354  1  0.73198210  0.09391841  0.22429160  1
  O  O355  1  0.73396126  0.10316027  0.73240923  1
  O  O356  1  0.73977344  0.41873061  0.23603152  1
  O  O357  1  0.73433595  0.43598563  0.72995769  1
  O  O358  1  0.73818342  0.75950980  0.23396237  1
  O  O359  1  0.73568727  0.75875350  0.73126082  1
