# generated using pymatgen
data_BaLaInIrO6
_symmetry_space_group_name_H-M   'P 1'
_cell_length_a   17.51314224
_cell_length_b   17.54037160
_cell_length_c   16.48141380
_cell_angle_alpha   90.01666665
_cell_angle_beta   89.99240498
_cell_angle_gamma   90.01834276
_symmetry_Int_Tables_number   1
_chemical_formula_structural   BaLaInIrO6
_chemical_formula_sum   'Ba36 La36 In36 Ir36 O216'
_cell_volume   5062.87591567
_cell_formula_units_Z   36
loop_
 _symmetry_equiv_pos_site_id
 _symmetry_equiv_pos_as_xyz
  1  'x, y, z'
loop_
 _atom_site_type_symbol
 _atom_site_label
 _atom_site_symmetry_multiplicity
 _atom_site_fract_x
 _atom_site_fract_y
 _atom_site_fract_z
 _atom_site_occupancy
  Ba  Ba0  1  0.66266226  0.50416057  0.62586595  1
  Ba  Ba1  1  0.66788195  0.49318637  0.37563931  1
  Ba  Ba2  1  0.49564887  0.34002180  0.12535143  1
  Ba  Ba3  1  0.33039351  0.15207914  0.37138663  1
  Ba  Ba4  1  0.83298870  0.65937140  0.37625281  1
  Ba  Ba5  1  0.00386114  0.82878941  0.37343685  1
  Ba  Ba6  1  0.83215184  0.68380771  0.12431361  1
  Ba  Ba7  1  0.99999802  0.17319148  0.12378783  1
  Ba  Ba8  1  0.33577769  0.82316914  0.87583270  1
  Ba  Ba9  1  0.50292505  0.00944187  0.12083352  1
  Ba  Ba10  1  0.16725352  0.67380172  0.12375185  1
  Ba  Ba11  1  0.50211132  0.00923562  0.62710660  1
  Ba  Ba12  1  0.66797904  0.15828809  0.37364676  1
  Ba  Ba13  1  0.83111047  0.65990488  0.87177536  1
  Ba  Ba14  1  -0.00239300  0.15587991  0.36948306  1
  Ba  Ba15  1  0.50338340  0.99325535  0.87896686  1
  Ba  Ba16  1  0.50476969  0.65785857  0.87619003  1
  Ba  Ba17  1  0.66442652  0.16894127  0.62237647  1
  Ba  Ba18  1  0.83282366  0.67551242  0.62429008  1
  Ba  Ba19  1  0.50305922  0.99341663  0.36958368  1
  Ba  Ba20  1  0.50220731  0.65952166  0.37514442  1
  Ba  Ba21  1  0.16115577  0.33974416  0.12479689  1
  Ba  Ba22  1  0.83151793  0.33825245  0.62448127  1
  Ba  Ba23  1  0.66662764  0.49241781  0.87308049  1
  Ba  Ba24  1  -0.00026229  0.15867263  0.87646736  1
  Ba  Ba25  1  0.33521450  0.50758553  0.62274684  1
  Ba  Ba26  1  0.49901227  0.32697243  0.87661266  1
  Ba  Ba27  1  1.00429141  0.51017144  0.12690681  1
  Ba  Ba28  1  0.66542546  0.83737858  0.62537873  1
  Ba  Ba29  1  0.16496870  0.99271758  0.37103276  1
  Ba  Ba30  1  0.83590179  0.98943690  0.88015618  1
  Ba  Ba31  1  0.17177157  0.65611830  0.87831040  1
  Ba  Ba32  1  0.33127352  0.50538754  0.12633045  1
  Ba  Ba33  1  0.33238269  0.16946458  0.12782528  1
  Ba  Ba34  1  0.16804500  0.32383548  0.87767158  1
  Ba  Ba35  1  0.16676057  0.31738298  0.37054376  1
  La  La36  1  0.67065566  0.85178603  0.12481073  1
  La  La37  1  0.17482476  0.64948588  0.37334546  1
  La  La38  1  0.33302486  0.48631145  0.87864788  1
  La  La39  1  0.67169430  0.18235741  0.12321379  1
  La  La40  1  0.33299478  0.48032632  0.37131560  1
  La  La41  1  0.66274921  0.82043441  0.37398966  1
  La  La42  1  0.49041007  0.68332706  0.12826830  1
  La  La43  1  0.34169363  0.18384364  0.62664173  1
  La  La44  1  0.66663475  0.15543850  0.87555869  1
  La  La45  1  0.17639216  0.99652219  0.87885051  1
  La  La46  1  0.66690696  0.52031899  0.12373418  1
  La  La47  1  0.66196639  0.81714130  0.87584531  1
  La  La48  1  0.16176888  0.01193958  0.13088190  1
  La  La49  1  1.00026710  0.84481695  0.12528467  1
  La  La50  1  -0.00830077  0.48358964  0.88100643  1
  La  La51  1  -0.00871226  0.48301858  0.37166552  1
  La  La52  1  0.33793471  0.84844295  0.12272325  1
  La  La53  1  0.83417756  0.32167511  0.87377806  1
  La  La54  1  0.50673716  0.33803679  0.62367768  1
  La  La55  1  0.82633011  0.01177805  0.62377678  1
  La  La56  1  -0.00260186  0.81932712  0.87779668  1
  La  La57  1  0.32630883  0.82335418  0.37316003  1
  La  La58  1  1.00932494  0.51858901  0.62466327  1
  La  La59  1  0.16401630  0.68448212  0.62757266  1
  La  La60  1  0.16031636  0.35013137  0.62454640  1
  La  La61  1  0.83746837  0.32373078  0.37286103  1
  La  La62  1  0.99936068  0.84647185  0.62644216  1
  La  La63  1  0.16415784  0.01489640  0.62214830  1
  La  La64  1  0.49300659  0.68378160  0.62404331  1
  La  La65  1  0.82904269  0.34944881  0.12456060  1
  La  La66  1  0.34021343  0.84973778  0.62567030  1
  La  La67  1  0.99804204  0.17855120  0.62506312  1
  La  La68  1  0.50289522  0.31920464  0.37492009  1
  La  La69  1  0.82840706  0.01839835  0.12521267  1
  La  La70  1  0.33136146  0.15585876  0.88269719  1
  La  La71  1  0.84002103  0.98338487  0.37459227  1
  In  In72  1  0.83105303  0.50460134  0.00164220  1
  In  In73  1  0.49602048  0.83591117  0.49375817  1
  In  In74  1  0.00331505  0.33021813  0.49820677  1
  In  In75  1  0.33412945  0.33191865  0.00295134  1
  In  In76  1  0.66452867  0.66529243  0.50017270  1
  In  In77  1  0.83456797  0.83546467  0.75190935  1
  In  In78  1  0.32873526  0.33336765  0.50092212  1
  In  In79  1  0.16710188  0.50289210  0.75167898  1
  In  In80  1  0.49881168  0.16694551  0.75485183  1
  In  In81  1  0.16780827  0.83257769  0.24747147  1
  In  In82  1  0.50205524  0.16476893  0.24617988  1
  In  In83  1  0.66467481  0.66541470  0.74810464  1
  In  In84  1  0.50092673  0.50038405  0.24839011  1
  In  In85  1  0.33509379  0.66382169  -0.00050414  1
  In  In86  1  0.66709071  0.33167386  0.49553317  1
  In  In87  1  0.16715904  0.83492958  0.00127096  1
  In  In88  1  0.49435113  0.49972814  0.49615554  1
  In  In89  1  0.49534938  0.49858847  0.75007161  1
  In  In90  1  0.66583734  0.32962161  0.75330150  1
  In  In91  1  0.49980577  0.83748263  0.75340937  1
  In  In92  1  0.49768726  0.16496620  0.49897189  1
  In  In93  1  0.16547082  0.49718071  0.25097314  1
  In  In94  1  0.83705800  0.49835114  0.50136620  1
  In  In95  1  0.00341334  0.66927070  0.25116621  1
  In  In96  1  0.00052206  0.33401701  0.74930845  1
  In  In97  1  0.83594866  0.49843204  0.74870743  1
  In  In98  1  0.16520574  0.16650934  0.00119779  1
  In  In99  1  0.00221987  -0.00005732  0.74948610  1
  In  In100  1  0.66916945  -0.00279774  0.49501331  1
  In  In101  1  0.00521211  0.66942930  0.49796088  1
  In  In102  1  0.16872143  0.83503121  0.50298702  1
  In  In103  1  0.16952192  0.16815216  0.74648660  1
  In  In104  1  0.83129160  0.50410455  0.24813715  1
  In  In105  1  0.00043589  -0.00207729  0.00059425  1
  In  In106  1  -0.00128763  0.00276664  0.50196465  1
  In  In107  1  0.16786303  0.83671147  0.74971995  1
  Ir  Ir108  1  0.66302330  0.67448441  0.24461374  1
  Ir  Ir109  1  0.83088131  0.83779105  0.24805711  1
  Ir  Ir110  1  0.83056068  0.17091346  0.00241506  1
  Ir  Ir111  1  0.16554907  0.16268418  0.25225456  1
  Ir  Ir112  1  0.50423505  0.16534549  -0.00073590  1
  Ir  Ir113  1  0.83491603  0.83502889  0.49682147  1
  Ir  Ir114  1  0.67063178  0.00163504  0.00113004  1
  Ir  Ir115  1  0.50485993  0.83624940  0.00525498  1
  Ir  Ir116  1  0.49942611  0.83596363  0.24692622  1
  Ir  Ir117  1  -0.00075448  0.66830019  -0.00300209  1
  Ir  Ir118  1  0.66190713  0.67201773  0.00746124  1
  Ir  Ir119  1  0.33229328  0.33055725  0.24962640  1
  Ir  Ir120  1  0.50354421  0.50113419  0.00327901  1
  Ir  Ir121  1  0.33167446  0.66479653  0.74642227  1
  Ir  Ir122  1  0.32803736  0.66629572  0.50071154  1
  Ir  Ir123  1  0.32932923  0.00147911  0.74987389  1
  Ir  Ir124  1  0.32903736  0.33353894  0.75096065  1
  Ir  Ir125  1  0.33658588  0.66874048  0.25400565  1
  Ir  Ir126  1  0.33443194  -0.00479478  0.24823168  1
  Ir  Ir127  1  0.33001006  -0.00140398  0.50173715  1
  Ir  Ir128  1  -0.00559223  0.33231120  0.00077349  1
  Ir  Ir129  1  0.83077735  0.16806010  0.24769221  1
  Ir  Ir130  1  0.83363328  0.16319512  0.75266497  1
  Ir  Ir131  1  0.83585157  0.16340806  0.49704375  1
  Ir  Ir132  1  0.66581924  0.33427073  0.00548339  1
  Ir  Ir133  1  -0.00377393  0.32708742  0.24737471  1
  Ir  Ir134  1  0.00391108  0.66774164  0.75186490  1
  Ir  Ir135  1  0.17242266  0.16293698  0.50276341  1
  Ir  Ir136  1  0.16064494  0.49892164  -0.00278254  1
  Ir  Ir137  1  0.16656876  0.50177955  0.50015665  1
  Ir  Ir138  1  0.66799502  0.33347720  0.24544316  1
  Ir  Ir139  1  0.83194248  0.83360541  0.00352543  1
  Ir  Ir140  1  0.67272681  0.00218088  0.75462414  1
  Ir  Ir141  1  0.67255510  -0.00063172  0.24573588  1
  Ir  Ir142  1  -0.00698713  0.00013051  0.24824099  1
  Ir  Ir143  1  0.33686961  -0.00029212  -0.00194296  1
  O  O144  1  0.31189599  0.33333323  0.13014970  1
  O  O145  1  0.29828834  0.32391542  0.63085092  1
  O  O146  1  0.31935453  0.66468852  0.13352974  1
  O  O147  1  0.29821575  0.65938514  0.62256528  1
  O  O148  1  0.30481695  0.98825223  0.12358572  1
  O  O149  1  0.30096817  0.98654977  0.62603453  1
  O  O150  1  0.64182654  0.31988834  0.12522735  1
  O  O151  1  0.63900190  0.31968426  0.62416789  1
  O  O152  1  0.62936703  0.66722283  0.12625512  1
  O  O153  1  0.62954212  0.67464467  0.62414374  1
  O  O154  1  0.64942064  0.98966302  0.12274564  1
  O  O155  1  0.65798882  0.99778756  0.63330834  1
  O  O156  1  0.96561744  0.32919898  0.12383602  1
  O  O157  1  0.98388144  0.31725359  0.62297573  1
  O  O158  1  0.98003638  0.66405574  0.11647364  1
  O  O159  1  0.98309163  0.65514207  0.63194669  1
  O  O160  1  0.96281297  0.99144232  0.12896159  1
  O  O161  1  0.96005380  0.98699503  0.62478352  1
  O  O162  1  0.18337326  0.15851000  0.13170684  1
  O  O163  1  0.20527856  0.15540555  0.62022197  1
  O  O164  1  0.17876274  0.49879656  0.11841751  1
  O  O165  1  0.18624090  0.49093193  0.62019860  1
  O  O166  1  0.20460896  0.83242387  0.12560181  1
  O  O167  1  0.20753810  0.82100761  0.62614978  1
  O  O168  1  0.53507034  0.16571571  0.11903261  1
  O  O169  1  0.51111636  0.16922188  0.62898302  1
  O  O170  1  0.53177395  0.49475277  0.12301361  1
  O  O171  1  0.50341796  0.47466015  0.62270508  1
  O  O172  1  0.53389781  0.82805856  0.12626810  1
  O  O173  1  0.50870949  0.82845274  0.62403627  1
  O  O174  1  0.85202536  0.15639578  0.12543985  1
  O  O175  1  0.86179540  0.14832368  0.62480149  1
  O  O176  1  0.85441757  0.48949687  0.12469691  1
  O  O177  1  0.87767532  0.49298673  0.62576851  1
  O  O178  1  0.86294968  0.83679777  0.12569039  1
  O  O179  1  0.86133761  0.83348619  0.61791881  1
  O  O180  1  0.14724790  0.16068199  0.37959238  1
  O  O181  1  0.15311438  0.15483174  0.87321367  1
  O  O182  1  0.13328254  0.50866743  0.38230787  1
  O  O183  1  0.13172156  0.49845059  0.87856839  1
  O  O184  1  0.15696762  0.83728462  0.37502462  1
  O  O185  1  0.13506453  0.85298316  0.87508676  1
  O  O186  1  0.47973807  0.17591710  0.37104419  1
  O  O187  1  0.46823145  0.16440614  0.88069778  1
  O  O188  1  0.46487406  0.50866821  0.36857131  1
  O  O189  1  0.47019985  0.50475488  0.88395342  1
  O  O190  1  0.46281353  0.83809620  0.36521082  1
  O  O191  1  0.48416530  0.83806526  0.88502978  1
  O  O192  1  0.81602927  0.18462163  0.37275257  1
  O  O193  1  0.80456411  0.17979623  0.87818472  1
  O  O194  1  0.81957803  0.49492529  0.37132268  1
  O  O195  1  0.81872421  0.50275066  0.87837625  1
  O  O196  1  0.80073664  0.84506063  0.37169644  1
  O  O197  1  0.80055628  0.83455005  0.88570640  1
  O  O198  1  0.01331145  0.00002743  0.36973024  1
  O  O199  1  0.03754932  0.00298514  0.87549664  1
  O  O200  1  0.01713324  0.33130516  0.36813354  1
  O  O201  1  0.01826006  0.33704247  0.88124887  1
  O  O202  1  0.04127506  0.68027879  0.37608898  1
  O  O203  1  0.02483930  0.68397243  0.87434319  1
  O  O204  1  0.35472962  -0.00189753  0.37766351  1
  O  O205  1  0.35408471  0.01925888  0.87256862  1
  O  O206  1  0.35823701  0.33306679  0.36899350  1
  O  O207  1  0.34604311  0.34301731  0.87300627  1
  O  O208  1  0.35423330  0.68487579  0.37919878  1
  O  O209  1  0.35532363  0.66597951  0.86699400  1
  O  O210  1  0.70330553  0.00170484  0.36411659  1
  O  O211  1  0.69098181  0.01618975  0.87949130  1
  O  O212  1  0.70196325  0.33636632  0.36184936  1
  O  O213  1  0.69804014  0.33659783  0.88815851  1
  O  O214  1  0.68445748  0.68209494  0.36404633  1
  O  O215  1  0.68111531  0.67741767  0.88725274  1
  O  O216  1  0.08389620  0.08145804  0.02756138  1
  O  O217  1  0.07503663  0.09998605  0.52827108  1
  O  O218  1  0.06303284  0.42823333  0.01382941  1
  O  O219  1  0.07286055  0.43436086  0.52307497  1
  O  O220  1  0.06232116  0.76474691  0.01719645  1
  O  O221  1  0.07278586  0.76479394  0.53874923  1
  O  O222  1  0.41089842  0.09217555  0.01749348  1
  O  O223  1  0.39133270  0.09425974  0.52402247  1
  O  O224  1  0.41012442  0.43132485  0.01240593  1
  O  O225  1  0.38967415  0.43567247  0.49670812  1
  O  O226  1  0.41527704  0.76315957  0.02988117  1
  O  O227  1  0.39132839  0.76216911  0.52347994  1
  O  O228  1  0.73799074  0.09877488  0.02712144  1
  O  O229  1  0.74843516  0.09139623  0.51430139  1
  O  O230  1  0.73206743  0.42551981  0.03302032  1
  O  O231  1  0.74166790  0.42278650  0.51700535  1
  O  O232  1  0.72977482  0.76976365  0.02582348  1
  O  O233  1  0.74375334  0.76819779  0.50656260  1
  O  O234  1  0.08315986  0.25968241  0.01449148  1
  O  O235  1  0.10729194  0.25827173  0.52489806  1
  O  O236  1  0.09134459  0.59619721  0.01472454  1
  O  O237  1  0.10801920  0.59737178  0.52694920  1
  O  O238  1  0.09052869  0.92266426  0.04208287  1
  O  O239  1  0.09458611  0.93095078  0.52700789  1
  O  O240  1  0.42948414  0.25053343  0.01588768  1
  O  O241  1  0.42592753  0.26520368  0.52736053  1
  O  O242  1  0.43771514  0.59548733  0.02650817  1
  O  O243  1  0.42478058  0.60860070  0.52426681  1
  O  O244  1  0.42354929  0.91968144  0.02454125  1
  O  O245  1  0.42202557  0.93234610  0.52029402  1
  O  O246  1  0.76084095  0.26524303  0.02998068  1
  O  O247  1  0.76807692  0.25351755  0.50890004  1
  O  O248  1  0.74835233  0.59680033  0.02716814  1
  O  O249  1  0.76216015  0.59506102  0.51270281  1
  O  O250  1  0.76400049  0.92958854  0.03069673  1
  O  O251  1  0.77147589  0.93077369  0.51618169  1
  O  O252  1  0.23744606  0.06478316  0.25891864  1
  O  O253  1  0.23213010  0.06087480  0.76377612  1
  O  O254  1  0.24632872  0.40867623  0.27142435  1
  O  O255  1  0.23417311  0.39779723  0.76147421  1
  O  O256  1  0.24282995  0.73292285  0.27667369  1
  O  O257  1  0.23916579  0.73168767  0.76269822  1
  O  O258  1  0.58312710  0.06970863  0.26067035  1
  O  O259  1  0.58078888  0.07081320  0.76872525  1
  O  O260  1  0.57418053  0.39802667  0.27385714  1
  O  O261  1  0.56461832  0.39829845  0.75760379  1
  O  O262  1  0.57232314  0.74812106  0.26967809  1
  O  O263  1  0.57676073  0.74914646  0.77221523  1
  O  O264  1  0.89351177  0.06760243  0.26939588  1
  O  O265  1  0.90221246  0.07331618  0.76690722  1
  O  O266  1  0.90498228  0.39613189  0.26541614  1
  O  O267  1  0.90688204  0.40142601  0.78466551  1
  O  O268  1  0.90132285  0.74867061  0.26583806  1
  O  O269  1  0.91512430  0.73749220  0.76755818  1
  O  O270  1  0.25790277  0.23757849  0.26741062  1
  O  O271  1  0.27702035  0.23002712  0.76861437  1
  O  O272  1  0.27032542  0.57496302  0.27900585  1
  O  O273  1  0.26959215  0.56769041  0.77433976  1
  O  O274  1  0.27130295  0.90122737  0.26617256  1
  O  O275  1  0.26330038  0.91118894  0.77319470  1
  O  O276  1  0.59854765  0.24415779  0.26383499  1
  O  O277  1  0.59807337  0.23204363  0.78377308  1
  O  O278  1  0.59825341  0.57964268  0.25906215  1
  O  O279  1  0.58752042  0.57354106  0.76642240  1
  O  O280  1  0.60370510  0.90162080  0.26767151  1
  O  O281  1  0.60697962  0.90916343  0.77422784  1
  O  O282  1  0.92095286  0.24029265  0.26902806  1
  O  O283  1  0.92607781  0.23115877  0.76062709  1
  O  O284  1  0.93371422  0.57082556  0.27427239  1
  O  O285  1  0.94654398  0.56949257  0.77380170  1
  O  O286  1  0.92139051  0.90949454  0.27267256  1
  O  O287  1  0.93613156  0.89710708  0.77622497  1
  O  O288  1  0.26323132  0.22923085  0.48737019  1
  O  O289  1  0.26300314  0.23632076  0.98158035  1
  O  O290  1  0.26338113  0.56800998  0.46890486  1
  O  O291  1  0.25828403  0.56499019  0.97969744  1
  O  O292  1  0.27388016  0.89901102  0.48424692  1
  O  O293  1  0.25947864  0.91803426  0.97502001  1
  O  O294  1  0.58710809  0.24490297  0.47112231  1
  O  O295  1  0.60210792  0.23342568  0.98038555  1
  O  O296  1  0.58914616  0.57209666  0.48326151  1
  O  O297  1  0.59962434  0.57041297  0.99215083  1
  O  O298  1  0.59810971  0.90270947  0.47155923  1
  O  O299  1  0.60428126  0.90316888  0.98178186  1
  O  O300  1  0.93086194  0.22771453  0.49193631  1
  O  O301  1  0.91813078  0.24571343  0.97344024  1
  O  O302  1  0.94492883  0.56477541  0.47941417  1
  O  O303  1  0.93532342  0.57367373  0.97593245  1
  O  O304  1  0.92266131  0.90511538  0.47884391  1
  O  O305  1  0.92905808  0.89634111  0.98016640  1
  O  O306  1  0.23086860  0.06121892  0.48991692  1
  O  O307  1  0.24894842  0.07215423  0.98030205  1
  O  O308  1  0.22831859  0.40688456  0.48224568  1
  O  O309  1  0.23705403  0.41402504  0.98200874  1
  O  O310  1  0.23239553  0.72591811  0.48121627  1
  O  O311  1  0.24628254  0.74347703  0.98407305  1
  O  O312  1  0.57623947  0.07225857  0.48777081  1
  O  O313  1  0.58217846  0.07896059  0.97556082  1
  O  O314  1  0.56127182  0.39733984  0.47404364  1
  O  O315  1  0.57430164  0.40569314  0.98281347  1
  O  O316  1  0.57444181  0.74647065  0.47864372  1
  O  O317  1  0.57538795  0.74758911  0.98293749  1
  O  O318  1  0.89813111  0.06895179  0.47639688  1
  O  O319  1  0.90323723  0.07972798  0.98847670  1
  O  O320  1  0.90980005  0.40008802  0.46686673  1
  O  O321  1  0.90243863  0.40010684  0.98141203  1
  O  O322  1  0.90585768  0.74526117  0.48182460  1
  O  O323  1  0.90650195  0.74230745  0.97620212  1
  O  O324  1  0.09116963  0.25460487  0.23299016  1
  O  O325  1  0.10148367  0.26591449  0.72578801  1
  O  O326  1  0.10287041  0.59724684  0.24129179  1
  O  O327  1  0.09934694  0.60452334  0.72775812  1
  O  O328  1  0.08687383  0.93190219  0.22437132  1
  O  O329  1  0.09443821  0.92658587  0.70849319  1
  O  O330  1  0.42051370  0.25826795  0.23308997  1
  O  O331  1  0.42500249  0.27170876  0.72678338  1
  O  O332  1  0.43043678  0.60494599  0.22808118  1
  O  O333  1  0.42666277  0.60467649  0.72282458  1
  O  O334  1  0.42500036  0.92249382  0.21986280  1
  O  O335  1  0.42051082  0.93049052  0.73601431  1
  O  O336  1  0.76430048  0.26477384  0.21908689  1
  O  O337  1  0.76747311  0.25435338  0.74217208  1
  O  O338  1  0.74979830  0.59924879  0.22445270  1
  O  O339  1  0.76018148  0.59205010  0.73267801  1
  O  O340  1  0.76630390  0.93233045  0.22195392  1
  O  O341  1  0.76856848  0.93978793  0.73409104  1
  O  O342  1  0.07451817  0.08574984  0.22632741  1
  O  O343  1  0.07182732  0.09644711  0.71225352  1
  O  O344  1  0.06707787  0.41818546  0.24004754  1
  O  O345  1  0.06909318  0.43383445  0.72437175  1
  O  O346  1  0.06766302  0.76893001  0.21938469  1
  O  O347  1  0.06681453  0.76424998  0.72659898  1
  O  O348  1  0.40776214  0.08290186  0.23337113  1
  O  O349  1  0.39230691  0.09741960  0.73115719  1
  O  O350  1  0.40238161  0.42163295  0.23727337  1
  O  O351  1  0.38800147  0.43186611  0.74976889  1
  O  O352  1  0.40343179  0.76729750  0.22330266  1
  O  O353  1  0.39840429  0.75871411  0.72277092  1
  O  O354  1  0.73805762  0.09696964  0.21854974  1
  O  O355  1  0.73867850  0.09764827  0.73910176  1
  O  O356  1  0.73282634  0.42543416  0.21776361  1
  O  O357  1  0.74318953  0.41960583  0.73476392  1
  O  O358  1  0.73168934  0.77371361  0.22659819  1
  O  O359  1  0.74059192  0.76377971  0.74481974  1
