# generated using pymatgen
data_BaLaInIrO6
_symmetry_space_group_name_H-M   'P 1'
_cell_length_a   17.51593300
_cell_length_b   17.54467184
_cell_length_c   16.47573693
_cell_angle_alpha   90.04207590
_cell_angle_beta   89.99223892
_cell_angle_gamma   89.95682494
_symmetry_Int_Tables_number   1
_chemical_formula_structural   BaLaInIrO6
_chemical_formula_sum   'Ba36 La36 In36 Ir36 O216'
_cell_volume   5063.17722783
_cell_formula_units_Z   36
loop_
 _symmetry_equiv_pos_site_id
 _symmetry_equiv_pos_as_xyz
  1  'x, y, z'
loop_
 _atom_site_type_symbol
 _atom_site_label
 _atom_site_symmetry_multiplicity
 _atom_site_fract_x
 _atom_site_fract_y
 _atom_site_fract_z
 _atom_site_occupancy
  Ba  Ba0  1  0.16379302  0.67452659  0.61989237  1
  Ba  Ba1  1  0.16621760  0.65684175  0.37545806  1
  Ba  Ba2  1  -0.00443851  0.15958844  0.37766304  1
  Ba  Ba3  1  0.50067463  0.32892771  0.37590193  1
  Ba  Ba4  1  0.49981615  0.99506228  0.37286249  1
  Ba  Ba5  1  0.33077735  0.15512542  0.87444043  1
  Ba  Ba6  1  0.66831976  0.84279100  0.12269404  1
  Ba  Ba7  1  0.83465388  0.65723252  0.87649678  1
  Ba  Ba8  1  0.66593827  0.82350921  0.87097507  1
  Ba  Ba9  1  0.33218809  0.17472438  0.12176743  1
  Ba  Ba10  1  0.67118969  0.51248531  0.62031888  1
  Ba  Ba11  1  0.49704293  0.99437490  0.87574238  1
  Ba  Ba12  1  1.00359825  0.50889582  0.12612409  1
  Ba  Ba13  1  0.32857638  0.84049706  0.62263595  1
  Ba  Ba14  1  0.50323611  0.67281867  0.12321751  1
  Ba  Ba15  1  0.50445534  0.66242513  0.87353335  1
  Ba  Ba16  1  0.33024159  0.16995034  0.62753650  1
  Ba  Ba17  1  0.16256981  0.00981739  0.62749094  1
  Ba  Ba18  1  0.66571131  0.15841160  0.37341427  1
  Ba  Ba19  1  0.66816097  0.17395965  0.12518897  1
  Ba  Ba20  1  0.83077313  0.01190597  0.12485804  1
  Ba  Ba21  1  0.17101098  0.99111922  0.87690566  1
  Ba  Ba22  1  1.00229352  0.50965114  0.62097419  1
  Ba  Ba23  1  0.33521527  0.50606861  0.12609850  1
  Ba  Ba24  1  0.66784036  0.50791778  0.12454355  1
  Ba  Ba25  1  0.66675501  0.83863840  0.62477037  1
  Ba  Ba26  1  0.33498382  0.50870670  0.62557731  1
  Ba  Ba27  1  0.83029172  0.67654738  0.62861992  1
  Ba  Ba28  1  1.00042076  0.18090194  0.12505333  1
  Ba  Ba29  1  0.16047763  0.34247952  0.12338914  1
  Ba  Ba30  1  0.33345378  0.48779301  0.37394071  1
  Ba  Ba31  1  0.50160473  0.34124107  0.12773836  1
  Ba  Ba32  1  0.83408552  0.32076146  0.37632027  1
  Ba  Ba33  1  0.67051718  0.82790726  0.37545543  1
  Ba  Ba34  1  0.82979928  0.00351190  0.62546427  1
  Ba  Ba35  1  0.50009223  0.32776600  0.87593397  1
  La  La36  1  0.17024539  0.98818406  0.37695257  1
  La  La37  1  0.82580486  0.68250823  0.12593454  1
  La  La38  1  0.49624304  0.00885716  0.62504286  1
  La  La39  1  0.16905011  0.31914070  0.37212114  1
  La  La40  1  -0.00420635  0.47606799  0.37266028  1
  La  La41  1  0.83204654  0.34750837  0.61770352  1
  La  La42  1  0.32704815  0.15643638  0.37332548  1
  La  La43  1  1.00095677  0.84990876  0.12739473  1
  La  La44  1  0.49481030  0.34767253  0.62561514  1
  La  La45  1  0.16252692  0.67532481  0.12716417  1
  La  La46  1  0.66541506  0.17623085  0.62556632  1
  La  La47  1  0.83775300  0.32098038  0.87286114  1
  La  La48  1  0.83709718  0.97936074  0.87906870  1
  La  La49  1  -0.00049048  0.14794690  0.87260366  1
  La  La50  1  0.83884100  0.64654008  0.37565288  1
  La  La51  1  0.82860139  0.34641287  0.12721809  1
  La  La52  1  -0.00868369  0.81835073  0.37595452  1
  La  La53  1  0.17261334  0.31713809  0.87490508  1
  La  La54  1  0.16081070  0.01920097  0.12994646  1
  La  La55  1  0.33153644  0.82055521  0.87373594  1
  La  La56  1  0.33206129  0.81864697  0.37481211  1
  La  La57  1  0.16870681  0.65229888  0.87313537  1
  La  La58  1  -0.00568871  0.48422026  0.87622591  1
  La  La59  1  0.83099473  0.99030156  0.37195465  1
  La  La60  1  1.00757932  0.18564401  0.62506855  1
  La  La61  1  0.66053866  0.14769953  0.87574810  1
  La  La62  1  0.16034494  0.34861368  0.62536888  1
  La  La63  1  0.33977024  0.84513483  0.12650560  1
  La  La64  1  1.00684622  0.84590557  0.62812313  1
  La  La65  1  0.49774056  0.68766022  0.62558618  1
  La  La66  1  0.50054144  0.01086260  0.12508565  1
  La  La67  1  0.66657249  0.49597684  0.87570083  1
  La  La68  1  -0.00483152  0.81559611  0.87494781  1
  La  La69  1  0.33228490  0.48253331  0.87683290  1
  La  La70  1  0.50390297  0.65505447  0.37699387  1
  La  La71  1  0.66390022  0.48617726  0.37385033  1
  In  In72  1  0.67142809  0.33435351  0.74864761  1
  In  In73  1  0.67127580  0.66718781  0.25381838  1
  In  In74  1  0.50010917  0.50265718  -0.00348446  1
  In  In75  1  0.16664154  0.83209936  0.00275904  1
  In  In76  1  0.83361941  0.16815368  -0.00343036  1
  In  In77  1  0.16459044  0.50090131  -0.00152604  1
  In  In78  1  0.33020149  0.32943366  0.50183765  1
  In  In79  1  0.16518940  0.83374919  0.24988630  1
  In  In80  1  0.67280687  0.33456195  -0.00509337  1
  In  In81  1  0.50010086  0.16801486  0.00003781  1
  In  In82  1  0.50312568  0.16788867  0.75064072  1
  In  In83  1  0.83480561  0.16599114  0.74659994  1
  In  In84  1  0.49818245  0.16729717  0.50083379  1
  In  In85  1  0.83427228  0.49980621  0.75001030  1
  In  In86  1  0.50164266  0.50188123  0.24968036  1
  In  In87  1  0.83527287  0.16127755  0.50491841  1
  In  In88  1  -0.00017557  0.00080374  0.25459223  1
  In  In89  1  0.00088098  0.66355338  0.74898347  1
  In  In90  1  0.33301718  0.66794779  0.24867480  1
  In  In91  1  0.33598645  0.66649150  0.50058925  1
  In  In92  1  0.33151855  -0.00381597  0.00282999  1
  In  In93  1  0.50208874  0.50403769  0.50322793  1
  In  In94  1  0.66739026  -0.00183321  0.74767305  1
  In  In95  1  0.83537672  0.83314441  0.50265610  1
  In  In96  1  0.33076669  0.33130614  0.74793069  1
  In  In97  1  -0.00009642  -0.00141887  0.00016704  1
  In  In98  1  0.16333577  0.16812638  -0.00025377  1
  In  In99  1  0.16313879  0.83250024  0.75372233  1
  In  In100  1  0.16491600  0.49919779  0.25084379  1
  In  In101  1  0.49840833  0.16746059  0.25149469  1
  In  In102  1  0.50166145  0.83330201  -0.00008009  1
  In  In103  1  0.66633509  0.33138277  0.50125660  1
  In  In104  1  0.50093759  0.83357882  0.25258835  1
  In  In105  1  0.16222956  0.83348361  0.49678146  1
  In  In106  1  0.33273085  0.66247863  0.75210112  1
  In  In107  1  0.16514673  0.49812920  0.49658405  1
  Ir  Ir108  1  0.00386504  0.33223128  0.75366539  1
  Ir  Ir109  1  0.16361119  0.16734684  0.25578485  1
  Ir  Ir110  1  -0.00361133  0.33011218  0.24912014  1
  Ir  Ir111  1  0.49998729  0.83862746  0.50096816  1
  Ir  Ir112  1  0.67073134  -0.00008063  0.24993039  1
  Ir  Ir113  1  0.67197074  -0.00222369  0.00021289  1
  Ir  Ir114  1  0.33007719  0.33485042  -0.00007778  1
  Ir  Ir115  1  0.33283595  -0.00292753  0.74600996  1
  Ir  Ir116  1  -0.00432304  -0.00045055  0.74955299  1
  Ir  Ir117  1  0.32838257  -0.00012103  0.25429048  1
  Ir  Ir118  1  0.00003949  -0.00044133  0.50167992  1
  Ir  Ir119  1  0.32793003  0.66647800  -0.00343639  1
  Ir  Ir120  1  0.83841756  0.49954693  0.24900277  1
  Ir  Ir121  1  0.16263387  0.16387869  0.50060676  1
  Ir  Ir122  1  -0.00426815  0.66610407  0.49383459  1
  Ir  Ir123  1  0.16145157  0.16592458  0.74512047  1
  Ir  Ir124  1  0.83265669  0.16601287  0.25123938  1
  Ir  Ir125  1  0.67389235  0.66657893  -0.00243903  1
  Ir  Ir126  1  0.67217342  0.33465238  0.24920796  1
  Ir  Ir127  1  0.83639740  0.50118655  0.49421099  1
  Ir  Ir128  1  -0.00161995  0.33529188  -0.00687474  1
  Ir  Ir129  1  0.66350185  -0.00115251  0.49867568  1
  Ir  Ir130  1  0.66418458  0.66738909  0.74875487  1
  Ir  Ir131  1  0.16295259  0.49748985  0.75500512  1
  Ir  Ir132  1  0.83748690  0.50158782  0.00138872  1
  Ir  Ir133  1  0.33030174  0.32904556  0.24876688  1
  Ir  Ir134  1  0.49683825  0.83545499  0.74735289  1
  Ir  Ir135  1  0.50167335  0.50294604  0.75131948  1
  Ir  Ir136  1  0.83692873  0.83248946  0.75403602  1
  Ir  Ir137  1  0.83704678  0.83250524  0.25003979  1
  Ir  Ir138  1  -0.00077674  0.66850406  0.00673645  1
  Ir  Ir139  1  0.67060180  0.66853838  0.49858037  1
  Ir  Ir140  1  0.00080011  0.33210708  0.50307848  1
  Ir  Ir141  1  0.83813994  0.82902249  0.00034884  1
  Ir  Ir142  1  -0.00679422  0.66792711  0.24768465  1
  Ir  Ir143  1  0.33270320  0.00036168  0.49839614  1
  O  O144  1  0.30893446  0.33864835  0.12401670  1
  O  O145  1  0.29351259  0.33511134  0.62721243  1
  O  O146  1  0.29812509  0.65976517  0.11569122  1
  O  O147  1  0.31395049  0.66900033  0.62768028  1
  O  O148  1  0.29288368  0.98297686  0.13727389  1
  O  O149  1  0.31042748  0.99427204  0.62080268  1
  O  O150  1  0.65829879  0.33551326  0.12860786  1
  O  O151  1  0.62818551  0.32045692  0.62694158  1
  O  O152  1  0.65874864  0.66691899  0.11896037  1
  O  O153  1  0.63592169  0.66747894  0.62311145  1
  O  O154  1  0.64069728  0.99732614  0.12476650  1
  O  O155  1  0.63572445  0.99361980  0.61815835  1
  O  O156  1  0.96586499  0.33148217  0.11934410  1
  O  O157  1  0.97032252  0.32637849  0.62887556  1
  O  O158  1  0.96164164  0.66055765  0.12723811  1
  O  O159  1  0.97992873  0.66353284  0.61522451  1
  O  O160  1  0.97851239  0.99105643  0.12721761  1
  O  O161  1  0.97550175  0.98346542  0.62495396  1
  O  O162  1  0.17881973  0.16059003  0.13353046  1
  O  O163  1  0.18132328  0.16332453  0.62220510  1
  O  O164  1  0.17934686  0.50123188  0.12371740  1
  O  O165  1  0.18330532  0.48762881  0.63298667  1
  O  O166  1  0.20132526  0.81220615  0.12628713  1
  O  O167  1  0.17379550  0.83141190  0.62447996  1
  O  O168  1  0.51676945  0.15389104  0.12673899  1
  O  O169  1  0.53201950  0.14701564  0.62617978  1
  O  O170  1  0.51353180  0.49908496  0.12252971  1
  O  O171  1  0.52264708  0.48699447  0.63307419  1
  O  O172  1  0.51881303  0.82730542  0.12620105  1
  O  O173  1  0.52122141  0.82893761  0.62456786  1
  O  O174  1  0.85051574  0.16681349  0.12981911  1
  O  O175  1  0.87773238  0.15225405  0.62596964  1
  O  O176  1  0.86052775  0.48590717  0.12583077  1
  O  O177  1  0.85631794  0.49518495  0.61544694  1
  O  O178  1  0.86637355  0.82112997  0.12489841  1
  O  O179  1  0.86668590  0.83417551  0.63206553  1
  O  O180  1  0.14316434  0.17900485  0.37989349  1
  O  O181  1  0.13626152  0.17454332  0.86574931  1
  O  O182  1  0.12863237  0.49850276  0.37296484  1
  O  O183  1  0.13061521  0.51185547  0.87323967  1
  O  O184  1  0.12538840  0.84834452  0.37381335  1
  O  O185  1  0.12806996  0.83663337  0.87946926  1
  O  O186  1  0.46512418  0.16686216  0.37446517  1
  O  O187  1  0.47853807  0.16782766  0.87535850  1
  O  O188  1  0.48316022  0.51405702  0.37627468  1
  O  O189  1  0.46896149  0.50947603  0.86957811  1
  O  O190  1  0.46993473  0.84181770  0.38170490  1
  O  O191  1  0.46962060  0.83645549  0.86990978  1
  O  O192  1  0.81710647  0.16403702  0.37319854  1
  O  O193  1  0.79707735  0.18472003  0.87081857  1
  O  O194  1  0.80514913  0.50712040  0.37058073  1
  O  O195  1  0.80689356  0.50390248  0.88227686  1
  O  O196  1  0.82421778  0.84711644  0.37121058  1
  O  O197  1  0.81435933  0.83955465  0.87772196  1
  O  O198  1  0.03119833  0.00441221  0.38273206  1
  O  O199  1  0.02098166  0.00724558  0.86820474  1
  O  O200  1  0.02973595  0.33583456  0.37765557  1
  O  O201  1  0.03663718  0.34472327  0.87326103  1
  O  O202  1  0.01723109  0.68176817  0.36946175  1
  O  O203  1  0.03027551  0.67844594  0.88540746  1
  O  O204  1  0.35222234  0.01853591  0.37638238  1
  O  O205  1  0.34640933  -0.00055522  0.86654350  1
  O  O206  1  0.34695855  0.32088766  0.36878559  1
  O  O207  1  0.34601772  0.33665711  0.87798050  1
  O  O208  1  0.36999975  0.68217929  0.37727519  1
  O  O209  1  0.35465243  0.68066924  0.87881580  1
  O  O210  1  0.69740248  0.00262487  0.37411318  1
  O  O211  1  0.70133667  0.00480433  0.87976331  1
  O  O212  1  0.68765723  0.34051497  0.36903182  1
  O  O213  1  0.70695791  0.35752128  0.87104283  1
  O  O214  1  0.70516475  0.67244961  0.38119527  1
  O  O215  1  0.68868938  0.66286150  0.87312248  1
  O  O216  1  0.06613176  0.09903594  0.00585161  1
  O  O217  1  0.06232448  0.09848816  0.52509555  1
  O  O218  1  0.06280773  0.42906282  0.00727613  1
  O  O219  1  0.07235253  0.41900947  0.51990094  1
  O  O220  1  0.06331404  0.76116904  0.03613394  1
  O  O221  1  0.05650505  0.76365985  0.51271709  1
  O  O222  1  0.41404178  0.08197179  0.02221912  1
  O  O223  1  0.40552682  0.08555960  0.52118783  1
  O  O224  1  0.39904221  0.42703561  0.00288424  1
  O  O225  1  0.41118504  0.42162995  0.51859460  1
  O  O226  1  0.39045732  0.76334155  0.01750976  1
  O  O227  1  0.41553917  0.76769172  0.51992375  1
  O  O228  1  0.73840143  0.08951493  0.01283015  1
  O  O229  1  0.73038596  0.09192086  0.52368508  1
  O  O230  1  0.75082009  0.43342934  0.02124281  1
  O  O231  1  0.75187148  0.42407858  0.51359753  1
  O  O232  1  0.74864491  0.75613756  0.02119655  1
  O  O233  1  0.74059131  0.75700392  0.51869910  1
  O  O234  1  0.09136048  0.26879126  0.00741067  1
  O  O235  1  0.09578848  0.26215193  0.52805831  1
  O  O236  1  0.09621399  0.60778676  0.02143013  1
  O  O237  1  0.08482761  0.59605784  0.51071569  1
  O  O238  1  0.09965190  0.93095159  0.03400327  1
  O  O239  1  0.08849048  0.93178884  0.51964674  1
  O  O240  1  0.41976746  0.26527453  0.01716106  1
  O  O241  1  0.42795870  0.26259405  0.53319626  1
  O  O242  1  0.41880838  0.59980153  0.01262509  1
  O  O243  1  0.44206224  0.60649387  0.52332476  1
  O  O244  1  0.42684277  0.92485228  0.03475574  1
  O  O245  1  0.43221994  0.93340743  0.52345925  1
  O  O246  1  0.77851375  0.27531123  0.01525852  1
  O  O247  1  0.76154414  0.25699131  0.53132878  1
  O  O248  1  0.77229505  0.59710426  0.02447120  1
  O  O249  1  0.76797752  0.59880845  0.51239744  1
  O  O250  1  0.76982193  0.92584844  0.01251067  1
  O  O251  1  0.75668919  0.92977509  0.50690995  1
  O  O252  1  0.23085011  0.06960810  0.27782173  1
  O  O253  1  0.23678977  0.07138955  0.76456264  1
  O  O254  1  0.23644493  0.39525998  0.27143860  1
  O  O255  1  0.23016258  0.40622606  0.77984032  1
  O  O256  1  0.24057707  0.74522985  0.27817785  1
  O  O257  1  0.23647146  0.73715690  0.78170677  1
  O  O258  1  0.57863499  0.06894752  0.25949908  1
  O  O259  1  0.57950462  0.07367683  0.77635636  1
  O  O260  1  0.58579645  0.40950190  0.26827082  1
  O  O261  1  0.57452895  0.41676927  0.77373743  1
  O  O262  1  0.57096448  0.73484553  0.27786335  1
  O  O263  1  0.56772892  0.73919808  0.75737393  1
  O  O264  1  0.89819063  0.06964185  0.27308511  1
  O  O265  1  0.90381847  0.06511215  0.78033965  1
  O  O266  1  0.90647326  0.40446795  0.27165803  1
  O  O267  1  0.91237569  0.40095890  0.77973278  1
  O  O268  1  0.89627212  0.73216608  0.27148300  1
  O  O269  1  0.90752583  0.74453495  0.77191022  1
  O  O270  1  0.25894081  0.23399580  0.27444107  1
  O  O271  1  0.24960381  0.23822107  0.76944711  1
  O  O272  1  0.25797198  0.57374098  0.26857781  1
  O  O273  1  0.25792502  0.56302019  0.78044715  1
  O  O274  1  0.26324694  0.91022833  0.28546094  1
  O  O275  1  0.26579516  0.90326698  0.76967451  1
  O  O276  1  0.59559650  0.24929857  0.26255201  1
  O  O277  1  0.60998101  0.23186764  0.77292786  1
  O  O278  1  0.60592329  0.56939123  0.27657984  1
  O  O279  1  0.59851453  0.57012760  0.77227211  1
  O  O280  1  0.59957353  0.91207776  0.26432520  1
  O  O281  1  0.58567498  0.90533799  0.76365297  1
  O  O282  1  0.92570310  0.23764154  0.26541593  1
  O  O283  1  0.93973010  0.23846033  0.77797224  1
  O  O284  1  0.93191521  0.56803598  0.27772848  1
  O  O285  1  0.93260599  0.56706561  0.77321170  1
  O  O286  1  0.93479324  0.89476179  0.26679969  1
  O  O287  1  0.93155884  0.90191982  0.77864711  1
  O  O288  1  0.25831031  0.22653495  0.47719279  1
  O  O289  1  0.25511267  0.24730827  0.98155853  1
  O  O290  1  0.25860293  0.57227101  0.48567825  1
  O  O291  1  0.26349262  0.57211138  0.96539668  1
  O  O292  1  0.26107469  0.91316369  0.46901328  1
  O  O293  1  0.27031860  0.89279350  0.97725711  1
  O  O294  1  0.59312737  0.23836364  0.48164490  1
  O  O295  1  0.60306588  0.23582516  0.97597443  1
  O  O296  1  0.60497642  0.57972342  0.47125967  1
  O  O297  1  0.60407868  0.57660103  0.97791648  1
  O  O298  1  0.59252982  0.90625681  0.48027396  1
  O  O299  1  0.59878310  0.91226372  0.98326662  1
  O  O300  1  0.92975832  0.24330992  0.49203668  1
  O  O301  1  0.93538785  0.24133201  0.96510451  1
  O  O302  1  0.92999502  0.57052447  0.46504369  1
  O  O303  1  0.93535806  0.56888524  0.97652012  1
  O  O304  1  0.93681217  0.90414080  0.47914982  1
  O  O305  1  0.93186765  0.89631105  0.97810580  1
  O  O306  1  0.23243156  0.06903197  0.47381023  1
  O  O307  1  0.23620418  0.07147682  0.99848308  1
  O  O308  1  0.22904441  0.39426414  0.47730464  1
  O  O309  1  0.23812472  0.40464529  0.97177958  1
  O  O310  1  0.24766525  0.75069046  0.47444566  1
  O  O311  1  0.23172502  0.72684606  0.97471530  1
  O  O312  1  0.57599216  0.06757504  0.48351302  1
  O  O313  1  0.58467471  0.06955907  0.98406197  1
  O  O314  1  0.58590203  0.41900131  0.47922788  1
  O  O315  1  0.58518869  0.41728849  0.97367085  1
  O  O316  1  0.56986596  0.73551715  0.48174972  1
  O  O317  1  0.58373100  0.73918093  0.98326178  1
  O  O318  1  0.90420865  0.05936506  0.47669352  1
  O  O319  1  0.90257296  0.07056739  0.96969732  1
  O  O320  1  0.91197529  0.40907457  0.47438930  1
  O  O321  1  0.90361817  0.40547911  0.96914448  1
  O  O322  1  0.90356840  0.73353156  0.47138503  1
  O  O323  1  0.90832477  0.73727285  0.98282839  1
  O  O324  1  0.09582823  0.26352019  0.23853277  1
  O  O325  1  0.09722190  0.26421468  0.72312670  1
  O  O326  1  0.08932332  0.60651581  0.22731883  1
  O  O327  1  0.10242269  0.59357819  0.73779832  1
  O  O328  1  0.10011569  0.93230969  0.22325218  1
  O  O329  1  0.08285332  0.92845452  0.73180041  1
  O  O330  1  0.41786813  0.25958290  0.22998573  1
  O  O331  1  0.43231728  0.26685260  0.72468405  1
  O  O332  1  0.43298354  0.60147302  0.23972364  1
  O  O333  1  0.43713591  0.59557916  0.72594456  1
  O  O334  1  0.42219589  0.93605839  0.22559450  1
  O  O335  1  0.42938743  0.93051060  0.72402779  1
  O  O336  1  0.76724273  0.26413840  0.22847658  1
  O  O337  1  0.77614841  0.26888672  0.71664231  1
  O  O338  1  0.77754090  0.59727256  0.23173255  1
  O  O339  1  0.75349990  0.59545306  0.73700931  1
  O  O340  1  0.77195233  0.93174791  0.24079548  1
  O  O341  1  0.76682019  0.92328341  0.74418178  1
  O  O342  1  0.07584753  0.09584886  0.23544933  1
  O  O343  1  0.05729806  0.09976630  0.72945178  1
  O  O344  1  0.06466240  0.42098281  0.23880688  1
  O  O345  1  0.07221670  0.42566376  0.73051048  1
  O  O346  1  0.05678727  0.76343514  0.22532223  1
  O  O347  1  0.06124940  0.76578023  0.73354939  1
  O  O348  1  0.39753531  0.08708063  0.23151377  1
  O  O349  1  0.40787384  0.08263357  0.72782973  1
  O  O350  1  0.40391547  0.41732806  0.24004738  1
  O  O351  1  0.40932288  0.43148287  0.73967331  1
  O  O352  1  0.39394524  0.77546125  0.23324483  1
  O  O353  1  0.41026101  0.76229965  0.73361338  1
  O  O354  1  0.74071845  0.09410131  0.23414673  1
  O  O355  1  0.73418627  0.09943194  0.72134571  1
  O  O356  1  0.74677162  0.42681490  0.22956461  1
  O  O357  1  0.75030219  0.42299414  0.71565744  1
  O  O358  1  0.74713206  0.76312442  0.23117593  1
  O  O359  1  0.74134817  0.76206854  0.73346673  1
