# generated using pymatgen
data_BaLaInIrO6
_symmetry_space_group_name_H-M   'P 1'
_cell_length_a   17.51771348
_cell_length_b   17.55286303
_cell_length_c   16.50646395
_cell_angle_alpha   89.99645102
_cell_angle_beta   89.99381157
_cell_angle_gamma   90.02772416
_symmetry_Int_Tables_number   1
_chemical_formula_structural   BaLaInIrO6
_chemical_formula_sum   'Ba36 La36 In36 Ir36 O216'
_cell_volume   5075.50636090
_cell_formula_units_Z   36
loop_
 _symmetry_equiv_pos_site_id
 _symmetry_equiv_pos_as_xyz
  1  'x, y, z'
loop_
 _atom_site_type_symbol
 _atom_site_label
 _atom_site_symmetry_multiplicity
 _atom_site_fract_x
 _atom_site_fract_y
 _atom_site_fract_z
 _atom_site_occupancy
  Ba  Ba0  1  0.99970945  0.50787656  0.12599032  1
  Ba  Ba1  1  0.16772835  0.34204031  0.12495128  1
  Ba  Ba2  1  0.83562246  0.32291625  0.37205491  1
  Ba  Ba3  1  0.33501686  0.16139574  0.87706654  1
  Ba  Ba4  1  0.83149180  0.99543441  0.87616501  1
  Ba  Ba5  1  0.83686090  0.32528711  0.87585698  1
  Ba  Ba6  1  0.50144253  0.99030635  0.37805364  1
  Ba  Ba7  1  0.66881917  0.48943874  0.37552079  1
  Ba  Ba8  1  0.50088042  0.31970087  0.87544667  1
  Ba  Ba9  1  0.33322430  0.50785159  0.12128997  1
  Ba  Ba10  1  0.33386009  0.49011776  0.87264795  1
  Ba  Ba11  1  0.16482541  0.32114632  0.36939166  1
  Ba  Ba12  1  0.33477188  0.83777533  0.62927256  1
  Ba  Ba13  1  0.66662397  0.81885760  0.37530396  1
  Ba  Ba14  1  0.16572636  0.67148593  0.12125212  1
  Ba  Ba15  1  0.66527063  0.15392994  0.87244474  1
  Ba  Ba16  1  0.33450345  0.17654802  0.62950402  1
  Ba  Ba17  1  0.33551812  0.82828989  0.87457715  1
  Ba  Ba18  1  0.33264935  0.84332141  0.12195203  1
  Ba  Ba19  1  0.83400221  0.65469738  0.37705329  1
  Ba  Ba20  1  0.00212061  0.49821426  0.87865696  1
  Ba  Ba21  1  1.00320405  0.17530713  0.12157316  1
  Ba  Ba22  1  0.16974017  0.65911772  0.87562344  1
  Ba  Ba23  1  0.33524242  0.50729232  0.62758965  1
  Ba  Ba24  1  0.16673173  0.67758407  0.62520153  1
  Ba  Ba25  1  0.16513924  0.01024505  0.63043351  1
  Ba  Ba26  1  0.49442370  0.00727956  0.62526619  1
  Ba  Ba27  1  0.83709739  0.66024099  0.87442851  1
  Ba  Ba28  1  0.83249398  0.98951778  0.37286742  1
  Ba  Ba29  1  -0.00130690  0.15620486  0.37158843  1
  Ba  Ba30  1  0.67162949  0.17181821  0.12200470  1
  Ba  Ba31  1  0.49820615  0.34148641  0.62896481  1
  Ba  Ba32  1  0.16638526  0.00706592  0.12602520  1
  Ba  Ba33  1  0.49815338  0.67236115  0.62447711  1
  Ba  Ba34  1  0.83141391  0.34354461  0.62162856  1
  Ba  Ba35  1  -0.00236179  0.83016985  0.87460447  1
  La  La36  1  0.33365722  0.81862992  0.37891001  1
  La  La37  1  -0.00897998  0.48111903  0.37236222  1
  La  La38  1  0.32951710  0.48247411  0.37910311  1
  La  La39  1  0.49428331  0.01750025  0.12325568  1
  La  La40  1  0.50339324  0.65129849  0.86809326  1
  La  La41  1  0.83090899  0.01445276  0.62266338  1
  La  La42  1  0.17007586  0.98817475  0.37508096  1
  La  La43  1  0.83323715  0.35072338  0.12779482  1
  La  La44  1  0.50538324  0.31838356  0.37319685  1
  La  La45  1  0.67331787  0.52168231  0.62331167  1
  La  La46  1  0.67020410  0.84583995  0.12999151  1
  La  La47  1  0.49466039  0.34596296  0.12294635  1
  La  La48  1  0.66874934  0.17848203  0.62736798  1
  La  La49  1  0.49785699  0.99619088  0.87236166  1
  La  La50  1  0.32733994  0.15235839  0.37978633  1
  La  La51  1  0.17220867  0.98733226  0.88365365  1
  La  La52  1  0.66020922  0.82461619  0.86981796  1
  La  La53  1  0.33642551  0.17879844  0.12390948  1
  La  La54  1  0.50296935  0.65204859  0.37787524  1
  La  La55  1  -0.00894104  0.82064297  0.37657318  1
  La  La56  1  0.66876684  0.85300294  0.61989861  1
  La  La57  1  0.16759281  0.64897010  0.37513293  1
  La  La58  1  0.83171164  0.68300979  0.12589321  1
  La  La59  1  0.49191141  0.68137229  0.12607407  1
  La  La60  1  1.00195312  0.51381702  0.62836070  1
  La  La61  1  0.16239320  0.34610993  0.62413327  1
  La  La62  1  1.00502606  0.84513937  0.12572755  1
  La  La63  1  1.00433799  0.18383951  0.62274936  1
  La  La64  1  0.65680821  0.48378045  0.87363956  1
  La  La65  1  0.82801463  0.68779523  0.62557565  1
  La  La66  1  -0.00192018  0.15369388  0.87215742  1
  La  La67  1  1.00121810  0.84994536  0.62519595  1
  La  La68  1  0.17565258  0.32764223  0.87799766  1
  La  La69  1  0.83288060  0.00871884  0.12921899  1
  La  La70  1  0.67779566  0.51796577  0.13324062  1
  La  La71  1  0.66302332  0.15776574  0.38237322  1
  In  In72  1  0.33100753  0.00289048  0.75355958  1
  In  In73  1  0.50382504  0.83402132  0.74872239  1
  In  In74  1  0.66627211  0.33414378  0.49957449  1
  In  In75  1  0.33325121  0.66678938  0.75168133  1
  In  In76  1  0.83528841  0.16597883  0.49892369  1
  In  In77  1  0.66879036  0.33316056  0.74983805  1
  In  In78  1  0.33053987  -0.00254862  0.50048551  1
  In  In79  1  0.16517084  0.49875669  0.25202833  1
  In  In80  1  0.16439716  0.82888050  0.25534098  1
  In  In81  1  0.33486460  0.32937513  0.25129855  1
  In  In82  1  0.16840994  0.16721581  -0.00038774  1
  In  In83  1  0.33251579  0.66473456  0.49788515  1
  In  In84  1  0.16360316  0.16617545  0.50060996  1
  In  In85  1  0.49604934  0.16719266  0.50271918  1
  In  In86  1  0.16631244  0.49966068  0.74841881  1
  In  In87  1  0.83048079  0.50136632  0.75063778  1
  In  In88  1  0.50086658  0.49898827  0.24820412  1
  In  In89  1  -0.00141497  0.66836360  0.00070307  1
  In  In90  1  0.82974195  0.83575175  -0.00015938  1
  In  In91  1  0.00047921  0.00032860  -0.00124280  1
  In  In92  1  0.66652910  0.33073679  0.24792325  1
  In  In93  1  0.33420641  0.66445693  0.25091524  1
  In  In94  1  0.50481837  0.50183689  0.00262665  1
  In  In95  1  0.33641991  -0.00303460  0.24914057  1
  In  In96  1  0.83521411  0.16933687  -0.00184035  1
  In  In97  1  0.83253456  0.16641336  0.24703183  1
  In  In98  1  -0.00101334  0.66603407  0.49924140  1
  In  In99  1  -0.00377088  0.67030341  0.74757814  1
  In  In100  1  0.00024826  0.33519313  0.75309813  1
  In  In101  1  0.66417543  -0.00311293  0.00160397  1
  In  In102  1  0.66404450  0.67002070  0.00128815  1
  In  In103  1  0.66232097  -0.00144121  0.25125380  1
  In  In104  1  0.50146094  0.83161439  0.49843488  1
  In  In105  1  0.82888944  0.50216105  -0.00026097  1
  In  In106  1  0.49962681  0.49686048  0.49999230  1
  In  In107  1  0.16311212  0.83541552  0.74964740  1
  Ir  Ir108  1  0.50220697  0.83081308  0.24642918  1
  Ir  Ir109  1  0.83547711  0.50302014  0.25174981  1
  Ir  Ir110  1  0.16142663  0.17124675  0.75049859  1
  Ir  Ir111  1  0.83396289  0.83617831  0.49990141  1
  Ir  Ir112  1  0.50461353  0.49902264  0.75139014  1
  Ir  Ir113  1  0.33074717  0.33380032  0.50034860  1
  Ir  Ir114  1  0.66847854  0.00141229  0.50343208  1
  Ir  Ir115  1  0.66462393  0.33268907  0.00411041  1
  Ir  Ir116  1  0.66927291  -0.00023979  0.74683224  1
  Ir  Ir117  1  0.49859621  0.16737205  0.24696336  1
  Ir  Ir118  1  -0.00048685  0.33595149  0.49985214  1
  Ir  Ir119  1  0.33137072  0.32900527  0.75023628  1
  Ir  Ir120  1  -0.00384473  0.00404654  0.74478848  1
  Ir  Ir121  1  0.50114323  0.16588786  0.00185294  1
  Ir  Ir122  1  -0.00196954  0.66869686  0.25293280  1
  Ir  Ir123  1  0.00511068  0.33555016  -0.00030250  1
  Ir  Ir124  1  0.82828662  0.84027263  0.74383112  1
  Ir  Ir125  1  0.33586277  0.33123826  -0.00130622  1
  Ir  Ir126  1  0.83822277  0.83053852  0.25249473  1
  Ir  Ir127  1  0.16951409  0.49861853  0.00035703  1
  Ir  Ir128  1  -0.00012712  0.33191868  0.24766548  1
  Ir  Ir129  1  0.66997110  0.66643785  0.49990199  1
  Ir  Ir130  1  0.50299157  0.16414732  0.75355168  1
  Ir  Ir131  1  0.50361986  0.83227500  0.00133756  1
  Ir  Ir132  1  0.16839898  0.83405508  0.00390686  1
  Ir  Ir133  1  0.66894643  0.67232747  0.74791465  1
  Ir  Ir134  1  0.16644668  0.16211635  0.25087332  1
  Ir  Ir135  1  0.33702803  0.67037099  0.00161208  1
  Ir  Ir136  1  -0.00164937  -0.00201293  0.49984847  1
  Ir  Ir137  1  0.83814054  0.50116744  0.49951337  1
  Ir  Ir138  1  0.00153089  -0.00314363  0.25412275  1
  Ir  Ir139  1  0.83796237  0.16276881  0.74737641  1
  Ir  Ir140  1  0.66372663  0.66738870  0.25272069  1
  Ir  Ir141  1  0.33768013  0.00105812  0.00237747  1
  Ir  Ir142  1  0.15833746  0.83579882  0.49613481  1
  Ir  Ir143  1  0.16277723  0.49587413  0.49729668  1
  O  O144  1  0.31792161  0.31902115  0.11895635  1
  O  O145  1  0.29966154  0.33043480  0.62424620  1
  O  O146  1  0.31598675  0.67134588  0.12099400  1
  O  O147  1  0.31640541  0.66439717  0.62268580  1
  O  O148  1  0.31741809  1.00276576  0.12160561  1
  O  O149  1  0.31521255  0.99884789  0.62774249  1
  O  O150  1  0.63080570  0.32600074  0.12063642  1
  O  O151  1  0.64658151  0.31584097  0.62515048  1
  O  O152  1  0.63067850  0.65866243  0.13369455  1
  O  O153  1  0.64689448  0.65926633  0.62297156  1
  O  O154  1  0.62805661  0.98722688  0.12666059  1
  O  O155  1  0.64542555  0.99250011  0.62524796  1
  O  O156  1  0.97088270  0.33061699  0.12468467  1
  O  O157  1  0.98087917  0.32332987  0.61857430  1
  O  O158  1  0.96860464  0.66464493  0.13504088  1
  O  O159  1  0.96281436  0.65556147  0.62028895  1
  O  O160  1  0.97229176  0.98668798  0.13315170  1
  O  O161  1  0.96535497  0.98970018  0.62145437  1
  O  O162  1  0.19697949  0.16366387  0.13041314  1
  O  O163  1  0.18325934  0.16600836  0.63115707  1
  O  O164  1  0.18342939  0.50494848  0.12162180  1
  O  O165  1  0.18813942  0.48478279  0.61429839  1
  O  O166  1  0.18257954  0.83213074  0.12422550  1
  O  O167  1  0.18426292  0.83780548  0.61342600  1
  O  O168  1  0.52433889  0.15671257  0.12377947  1
  O  O169  1  0.52841376  0.16506203  0.63237912  1
  O  O170  1  0.54134381  0.49003068  0.12457937  1
  O  O171  1  0.53402051  0.49784350  0.63096916  1
  O  O172  1  0.53298991  0.81647657  0.12391948  1
  O  O173  1  0.53489947  0.82802780  0.62331139  1
  O  O174  1  0.85622491  0.14584907  0.12249215  1
  O  O175  1  0.86810684  0.15353558  0.62800543  1
  O  O176  1  0.84813881  0.49272376  0.13234836  1
  O  O177  1  0.86475255  0.50004285  0.61645373  1
  O  O178  1  0.86786148  0.82434404  0.13558587  1
  O  O179  1  0.86227694  0.83308410  0.62156201  1
  O  O180  1  0.14647129  0.16591928  0.36995800  1
  O  O181  1  0.13389492  0.18435268  0.86902453  1
  O  O182  1  0.12905225  0.50597123  0.38028617  1
  O  O183  1  0.15415457  0.48682492  0.88055457  1
  O  O184  1  0.12549908  0.84565687  0.38004940  1
  O  O185  1  0.14739837  0.84259903  0.88471143  1
  O  O186  1  0.46458036  0.17727417  0.36427022  1
  O  O187  1  0.48285100  0.15799004  0.87867720  1
  O  O188  1  0.46589270  0.51293168  0.37196977  1
  O  O189  1  0.48566064  0.50730449  0.87257736  1
  O  O190  1  0.47226666  0.83629748  0.36453351  1
  O  O191  1  0.49215678  0.85478598  0.88339665  1
  O  O192  1  0.80206851  0.16431685  0.37336612  1
  O  O193  1  0.81551380  0.16889564  0.86610300  1
  O  O194  1  0.81855834  0.49815348  0.37507498  1
  O  O195  1  0.79105088  0.50374450  0.87696019  1
  O  O196  1  0.81357480  0.83476236  0.37720699  1
  O  O197  1  0.79725197  0.84087448  0.86553641  1
  O  O198  1  0.03282014  0.00123546  0.37789627  1
  O  O199  1  0.03142820  0.00969948  0.86358207  1
  O  O200  1  0.01867596  0.34432779  0.37431637  1
  O  O201  1  0.03657657  0.34067407  0.88054937  1
  O  O202  1  0.03019061  0.68066968  0.37345185  1
  O  O203  1  0.01646337  0.67762075  0.87436404  1
  O  O204  1  0.35253536  0.01647364  0.37175578  1
  O  O205  1  0.36346863  0.00260705  0.88362710  1
  O  O206  1  0.36375429  0.33995570  0.38004863  1
  O  O207  1  0.35324112  0.33314558  0.87350946  1
  O  O208  1  0.36721216  0.68023292  0.37315002  1
  O  O209  1  0.36587324  0.66644973  0.88378955  1
  O  O210  1  0.68332576  0.01489016  0.38138760  1
  O  O211  1  0.67943405  -0.00734620  0.86852657  1
  O  O212  1  0.68813824  0.32627096  0.37408165  1
  O  O213  1  0.68795853  0.34195386  0.88177279  1
  O  O214  1  0.68960917  0.66743438  0.37668265  1
  O  O215  1  0.69072948  0.68764135  0.86849939  1
  O  O216  1  0.08122558  0.08809403  0.00900067  1
  O  O217  1  0.06035794  0.09474470  0.52452925  1
  O  O218  1  0.07732289  0.42797926  0.02196222  1
  O  O219  1  0.06695740  0.43006368  0.52523573  1
  O  O220  1  0.07437127  0.76654048  0.02620388  1
  O  O221  1  0.06438145  0.77088743  0.52172664  1
  O  O222  1  0.40491202  0.09767127  0.02804080  1
  O  O223  1  0.39953285  0.10071817  0.50668640  1
  O  O224  1  0.41326257  0.41735416  0.01988896  1
  O  O225  1  0.39470020  0.42713065  0.51217097  1
  O  O226  1  0.40878827  0.76307657  0.02100190  1
  O  O227  1  0.39821436  0.76787402  0.50506790  1
  O  O228  1  0.74535578  0.08555980  0.01132993  1
  O  O229  1  0.73687521  0.09086636  0.52958618  1
  O  O230  1  0.73123362  0.42518949  0.03294245  1
  O  O231  1  0.73974150  0.43911101  0.52291825  1
  O  O232  1  0.73327798  0.76425591  0.03271777  1
  O  O233  1  0.73978362  0.76571622  0.52712064  1
  O  O234  1  0.09432826  0.26646701  0.01409653  1
  O  O235  1  0.09287165  0.26675655  0.52181219  1
  O  O236  1  0.09604378  0.58736586  0.00978856  1
  O  O237  1  0.09505448  0.58687103  0.52039254  1
  O  O238  1  0.09431167  0.92086711  0.01857468  1
  O  O239  1  0.09088676  0.93025533  0.52106302  1
  O  O240  1  0.43009614  0.25895659  0.02677483  1
  O  O241  1  0.42123887  0.26762223  0.51665283  1
  O  O242  1  0.43120361  0.60202412  0.02190359  1
  O  O243  1  0.43142404  0.59414437  0.50910918  1
  O  O244  1  0.43964994  0.93386350  0.02284460  1
  O  O245  1  0.42636214  0.92540484  0.51078513  1
  O  O246  1  0.76252432  0.27017447  0.02501207  1
  O  O247  1  0.75248699  0.24869555  0.52451082  1
  O  O248  1  0.75687409  0.59753787  0.03847475  1
  O  O249  1  0.76945537  0.59812503  0.52680864  1
  O  O250  1  0.75904114  0.92597963  0.04047506  1
  O  O251  1  0.76415182  0.93094682  0.52686753  1
  O  O252  1  0.23230021  0.07073238  0.27433313  1
  O  O253  1  0.22673000  0.07989530  0.78002573  1
  O  O254  1  0.24666431  0.40970260  0.27132275  1
  O  O255  1  0.23571228  0.39312666  0.76227317  1
  O  O256  1  0.23558225  0.73503345  0.28366314  1
  O  O257  1  0.24226174  0.74742018  0.76417557  1
  O  O258  1  0.56642175  0.07752200  0.26714716  1
  O  O259  1  0.56979410  0.06579409  0.77123644  1
  O  O260  1  0.56701190  0.39678212  0.27394777  1
  O  O261  1  0.57473175  0.41166872  0.77282763  1
  O  O262  1  0.56448235  0.73212799  0.27291756  1
  O  O263  1  0.57715672  0.73707898  0.78011049  1
  O  O264  1  0.91312452  0.06645176  0.26583062  1
  O  O265  1  0.90707992  0.07280790  0.76824717  1
  O  O266  1  0.90625421  0.40602205  0.26536335  1
  O  O267  1  0.90439920  0.40473703  0.76425694  1
  O  O268  1  0.90816446  0.73835348  0.27544416  1
  O  O269  1  0.89212328  0.74720305  0.75551867  1
  O  O270  1  0.26627427  0.22565543  0.26790617  1
  O  O271  1  0.25360996  0.24139705  0.77635497  1
  O  O272  1  0.26030710  0.57059124  0.28424381  1
  O  O273  1  0.25829054  0.57288932  0.76554108  1
  O  O274  1  0.26117945  0.90285162  0.27811244  1
  O  O275  1  0.24401643  0.92175923  0.77790837  1
  O  O276  1  0.59267074  0.22938773  0.27750728  1
  O  O277  1  0.59382413  0.23367700  0.76407347  1
  O  O278  1  0.59575642  0.57819664  0.27520595  1
  O  O279  1  0.60114827  0.57218141  0.77352238  1
  O  O280  1  0.59646041  0.89438659  0.26222288  1
  O  O281  1  0.60933454  0.90101453  0.76114433  1
  O  O282  1  0.92931448  0.24384520  0.26191268  1
  O  O283  1  0.93492761  0.22737623  0.76576923  1
  O  O284  1  0.93410616  0.56988593  0.27640363  1
  O  O285  1  0.92335164  0.57390793  0.76491522  1
  O  O286  1  0.93455785  0.89971430  0.27596389  1
  O  O287  1  0.92535258  0.90846203  0.76291861  1
  O  O288  1  0.26556960  0.23883163  0.47849612  1
  O  O289  1  0.25933417  0.24570818  0.98142113  1
  O  O290  1  0.25340041  0.56674693  0.46684887  1
  O  O291  1  0.26401856  0.57477749  0.98212648  1
  O  O292  1  0.25219865  0.90038333  0.46534596  1
  O  O293  1  0.25959960  0.91200610  0.97831395  1
  O  O294  1  0.58774960  0.23662957  0.46919679  1
  O  O295  1  0.59647108  0.23649748  0.98137489  1
  O  O296  1  0.60242821  0.57372202  0.48696996  1
  O  O297  1  0.59770408  0.57482920  0.96600642  1
  O  O298  1  0.60240093  0.90835421  0.48656264  1
  O  O299  1  0.60419172  0.88693033  0.98862897  1
  O  O300  1  0.93279529  0.24211234  0.48598070  1
  O  O301  1  0.93926057  0.24403984  0.97372718  1
  O  O302  1  0.93407169  0.56250956  0.47529396  1
  O  O303  1  0.92286902  0.57390766  0.98912179  1
  O  O304  1  0.93346032  0.90050261  0.47836042  1
  O  O305  1  0.92377614  0.91004441  0.98792930  1
  O  O306  1  0.23046305  0.06831490  0.47513143  1
  O  O307  1  0.24425220  0.06798535  0.97767030  1
  O  O308  1  0.23753127  0.40533226  0.47456965  1
  O  O309  1  0.24143106  0.40145640  0.97995742  1
  O  O310  1  0.22396494  0.74140230  0.46948571  1
  O  O311  1  0.24368337  0.74355747  0.98230782  1
  O  O312  1  0.58181026  0.07572184  0.48496484  1
  O  O313  1  0.56161162  0.06604544  0.98483551  1
  O  O314  1  0.56405060  0.39907037  0.47429152  1
  O  O315  1  0.57853213  0.40341573  0.97993629  1
  O  O316  1  0.57296922  0.72941568  0.47524598  1
  O  O317  1  0.56015130  0.73542817  0.97456734  1
  O  O318  1  0.90503157  0.06351575  0.48703815  1
  O  O319  1  0.91909294  0.08459135  0.97089384  1
  O  O320  1  0.90702330  0.40757488  0.47637716  1
  O  O321  1  0.91065513  0.40220232  0.99220803  1
  O  O322  1  0.90329060  0.74559727  0.48276082  1
  O  O323  1  0.89765086  0.73796558  0.99736228  1
  O  O324  1  0.09352052  0.25916935  0.23049019  1
  O  O325  1  0.09650980  0.26276469  0.72071882  1
  O  O326  1  0.09102759  0.60273350  0.24263834  1
  O  O327  1  0.08546832  0.58769865  0.72419375  1
  O  O328  1  0.08814247  0.92544139  0.23422436  1
  O  O329  1  0.07893021  0.92845473  0.72668326  1
  O  O330  1  0.43653441  0.26001038  0.22189262  1
  O  O331  1  0.42967672  0.25712882  0.73711074  1
  O  O332  1  0.43404417  0.59950883  0.22220903  1
  O  O333  1  0.43524388  0.58782396  0.74116264  1
  O  O334  1  0.44076434  0.92800021  0.22298194  1
  O  O335  1  0.43030795  0.92977314  0.74782354  1
  O  O336  1  0.76636442  0.26670629  0.21822310  1
  O  O337  1  0.76393734  0.24903589  0.72782709  1
  O  O338  1  0.76300291  0.59847146  0.22692644  1
  O  O339  1  0.75943733  0.60503105  0.71825880  1
  O  O340  1  0.76602079  0.91876226  0.22622834  1
  O  O341  1  0.76416229  0.93522724  0.71874157  1
  O  O342  1  0.07108858  0.09093457  0.23111208  1
  O  O343  1  0.06151907  0.10479305  0.72731369  1
  O  O344  1  0.06981490  0.42259485  0.23888125  1
  O  O345  1  0.07372129  0.42558611  0.71610199  1
  O  O346  1  0.05936533  0.76450088  0.23025390  1
  O  O347  1  0.06438491  0.76895339  0.72197590  1
  O  O348  1  0.40443203  0.10217140  0.22153908  1
  O  O349  1  0.41239920  0.09645851  0.74167843  1
  O  O350  1  0.41124140  0.41957406  0.22225490  1
  O  O351  1  0.41083367  0.42550923  0.73223181  1
  O  O352  1  0.41108370  0.76561050  0.22928755  1
  O  O353  1  0.41630674  0.75394242  0.74272657  1
  O  O354  1  0.74689841  0.07931359  0.22498296  1
  O  O355  1  0.73967622  0.09517127  0.72141572  1
  O  O356  1  0.74056348  0.43437377  0.22771975  1
  O  O357  1  0.73034052  0.43671025  0.72398015  1
  O  O358  1  0.74227316  0.75981075  0.22282556  1
  O  O359  1  0.73229623  0.77124114  0.71895193  1
