# generated using pymatgen
data_BaLaInIrO6
_symmetry_space_group_name_H-M   'P 1'
_cell_length_a   17.52928599
_cell_length_b   17.55958749
_cell_length_c   16.51454662
_cell_angle_alpha   90.04408789
_cell_angle_beta   90.05038241
_cell_angle_gamma   90.00663619
_symmetry_Int_Tables_number   1
_chemical_formula_structural   BaLaInIrO6
_chemical_formula_sum   'Ba36 La36 In36 Ir36 O216'
_cell_volume   5083.29006035
_cell_formula_units_Z   36
loop_
 _symmetry_equiv_pos_site_id
 _symmetry_equiv_pos_as_xyz
  1  'x, y, z'
loop_
 _atom_site_type_symbol
 _atom_site_label
 _atom_site_symmetry_multiplicity
 _atom_site_fract_x
 _atom_site_fract_y
 _atom_site_fract_z
 _atom_site_occupancy
  Ba  Ba0  1  0.16884706  0.34517359  0.62760641  1
  Ba  Ba1  1  0.83146360  0.32078582  0.37708956  1
  Ba  Ba2  1  1.00542571  0.84343927  0.62880890  1
  Ba  Ba3  1  0.16664508  0.67364944  0.62714355  1
  Ba  Ba4  1  0.33638427  0.84174228  0.12033725  1
  Ba  Ba5  1  0.83810570  0.65987454  0.87753652  1
  Ba  Ba6  1  0.33025702  0.51066784  0.62577049  1
  Ba  Ba7  1  0.16435570  0.65264139  0.87490310  1
  Ba  Ba8  1  0.83368601  0.32670409  0.87170099  1
  Ba  Ba9  1  0.33744509  0.17584955  0.62469615  1
  Ba  Ba10  1  -0.00185505  0.82115208  0.37087431  1
  Ba  Ba11  1  0.16667769  0.00757992  0.12758226  1
  Ba  Ba12  1  0.66828109  0.82316716  0.87301536  1
  Ba  Ba13  1  0.83579171  0.99135732  0.87359913  1
  Ba  Ba14  1  0.66423470  0.82240205  0.37420165  1
  Ba  Ba15  1  0.50072971  0.32566590  0.87513530  1
  Ba  Ba16  1  0.33215329  0.50509675  0.12462948  1
  Ba  Ba17  1  0.66256978  0.50888449  0.62178596  1
  Ba  Ba18  1  1.00346424  0.17642843  0.12526512  1
  Ba  Ba19  1  -0.00243821  0.49379657  0.87557603  1
  Ba  Ba20  1  0.33124273  0.82377271  0.37504831  1
  Ba  Ba21  1  0.16331654  0.34666813  0.12595531  1
  Ba  Ba22  1  0.49920784  0.67444358  0.12368520  1
  Ba  Ba23  1  0.50446320  0.32618237  0.37439826  1
  Ba  Ba24  1  0.66762220  0.15965729  0.37481478  1
  Ba  Ba25  1  1.00051091  0.51051663  0.12673094  1
  Ba  Ba26  1  0.50204137  0.99014960  0.37741993  1
  Ba  Ba27  1  0.66640679  0.49008490  0.37595103  1
  Ba  Ba28  1  0.33356817  0.17547014  0.12693520  1
  Ba  Ba29  1  0.49702742  0.67512106  0.62659889  1
  Ba  Ba30  1  0.66476037  0.49100663  0.87392283  1
  Ba  Ba31  1  1.00106662  0.83955301  0.12037729  1
  Ba  Ba32  1  0.50147330  0.00639943  0.62550334  1
  Ba  Ba33  1  0.66927301  0.84462079  0.12290137  1
  Ba  Ba34  1  0.33412942  0.83923327  0.62579561  1
  Ba  Ba35  1  0.16643645  0.98873631  0.37270186  1
  La  La36  1  -0.00378870  0.15247023  0.36935536  1
  La  La37  1  0.83343720  0.34762110  0.62714919  1
  La  La38  1  0.16847760  0.98914663  0.87694184  1
  La  La39  1  -0.00165498  0.15435878  0.87352555  1
  La  La40  1  0.50310133  0.98948014  0.87488614  1
  La  La41  1  1.00620013  0.17912465  0.62291165  1
  La  La42  1  0.49169366  0.35042147  0.62534489  1
  La  La43  1  0.82863038  0.68018274  0.12476820  1
  La  La44  1  0.33281083  0.15561014  0.87374529  1
  La  La45  1  1.00624665  0.51310072  0.62914899  1
  La  La46  1  0.67110726  0.51504175  0.12994827  1
  La  La47  1  0.66964122  0.18131631  0.12848779  1
  La  La48  1  0.83791375  0.65045127  0.36917653  1
  La  La49  1  0.16391034  0.00953894  0.62145676  1
  La  La50  1  0.50159962  0.65809721  0.37541653  1
  La  La51  1  0.16829180  0.32392308  0.87892227  1
  La  La52  1  0.49635843  0.34620663  0.12480364  1
  La  La53  1  0.17300564  0.32069719  0.37618096  1
  La  La54  1  0.33406286  0.81512526  0.87381875  1
  La  La55  1  0.15866649  0.67573624  0.12765327  1
  La  La56  1  -0.00527691  0.48242149  0.37451170  1
  La  La57  1  -0.00680702  0.81681571  0.87466491  1
  La  La58  1  0.49900053  0.01132852  0.12848595  1
  La  La59  1  0.16878894  0.65522576  0.37575252  1
  La  La60  1  0.32526037  0.48376424  0.87611512  1
  La  La61  1  0.82751203  0.01471314  0.62335575  1
  La  La62  1  0.33264957  0.14687939  0.37772360  1
  La  La63  1  0.65963775  0.15859132  0.87892033  1
  La  La64  1  0.50432423  0.65148921  0.87528441  1
  La  La65  1  0.84429808  0.98574777  0.37077189  1
  La  La66  1  0.33271473  0.49314168  0.37653503  1
  La  La67  1  0.66940749  0.84902374  0.62098006  1
  La  La68  1  0.83244469  0.34869410  0.12813657  1
  La  La69  1  0.82472541  0.68184050  0.62366431  1
  La  La70  1  0.66726843  0.18057589  0.62179428  1
  La  La71  1  0.83019614  0.02179610  0.12615257  1
  In  In72  1  0.16350433  0.49795205  0.49936061  1
  In  In73  1  0.50213506  0.50055448  0.24994369  1
  In  In74  1  0.16672438  0.83067922  0.50096213  1
  In  In75  1  0.33068335  0.66552528  0.24790556  1
  In  In76  1  0.66625713  0.66811431  0.74797177  1
  In  In77  1  0.50031954  0.16738269  0.49935627  1
  In  In78  1  0.16644768  0.83464843  0.75414963  1
  In  In79  1  0.50017065  0.83323179  0.75015878  1
  In  In80  1  0.49982227  0.49765865  -0.00025721  1
  In  In81  1  0.66838285  0.00362480  0.75227380  1
  In  In82  1  0.66754687  0.66670715  -0.00149634  1
  In  In83  1  -0.00138306  0.00065966  0.50330095  1
  In  In84  1  0.16780636  0.16866249  0.50266537  1
  In  In85  1  0.67073795  0.00200940  0.49792423  1
  In  In86  1  0.67057954  0.00102346  0.25059991  1
  In  In87  1  0.16650209  0.83513171  -0.00246730  1
  In  In88  1  0.83088863  0.49894717  0.00152410  1
  In  In89  1  0.33251137  0.00012129  0.75089216  1
  In  In90  1  0.83128823  0.16997740  -0.00516384  1
  In  In91  1  -0.00148083  0.66656192  0.74637479  1
  In  In92  1  -0.00043360  -0.00239246  0.24460259  1
  In  In93  1  0.83473834  0.83140892  0.49762389  1
  In  In94  1  0.49994463  0.83509296  -0.00257032  1
  In  In95  1  0.50167453  0.83273116  0.24865218  1
  In  In96  1  0.83401653  0.84077773  0.00115492  1
  In  In97  1  0.66530880  0.33440978  0.50163364  1
  In  In98  1  0.83537890  0.50184278  0.50047445  1
  In  In99  1  0.33438383  0.33177680  0.25160861  1
  In  In100  1  0.16644115  0.16818821  0.25274357  1
  In  In101  1  0.83357867  0.50077089  0.74657101  1
  In  In102  1  0.32954121  0.66423547  -0.00067967  1
  In  In103  1  0.00156142  0.33152634  0.74854894  1
  In  In104  1  0.66342360  0.33193118  0.75061804  1
  In  In105  1  0.33317795  -0.00257617  0.24739463  1
  In  In106  1  0.16784905  0.16690206  -0.00123407  1
  In  In107  1  -0.00000149  0.33233320  -0.00074933  1
  Ir  Ir108  1  0.50043611  0.82860440  0.49982492  1
  Ir  Ir109  1  0.49567741  0.50409480  0.50110542  1
  Ir  Ir110  1  0.49958788  0.16897925  0.75534284  1
  Ir  Ir111  1  0.83339962  0.83125008  0.24865554  1
  Ir  Ir112  1  0.67155764  0.66473041  0.25466555  1
  Ir  Ir113  1  -0.00071178  0.00478125  0.75038204  1
  Ir  Ir114  1  0.83811207  0.83669231  0.74664875  1
  Ir  Ir115  1  0.50325008  0.16829869  0.24569933  1
  Ir  Ir116  1  0.16314934  0.82648993  0.24992000  1
  Ir  Ir117  1  0.00026797  0.66565898  0.00540096  1
  Ir  Ir118  1  0.16415669  0.16571675  0.75111374  1
  Ir  Ir119  1  0.33650497  0.33630621  0.50040904  1
  Ir  Ir120  1  0.33631190  0.66364186  0.49895462  1
  Ir  Ir121  1  0.16018374  0.50105858  0.25421944  1
  Ir  Ir122  1  -0.00007479  0.00170953  -0.00477269  1
  Ir  Ir123  1  0.33517069  0.33035732  -0.00277141  1
  Ir  Ir124  1  0.66377139  0.32978771  0.00602358  1
  Ir  Ir125  1  0.33519720  0.66201697  0.75084428  1
  Ir  Ir126  1  0.50057947  0.16723606  0.00031561  1
  Ir  Ir127  1  0.33918485  0.00675840  -0.00421915  1
  Ir  Ir128  1  -0.00233405  0.66319386  0.49387684  1
  Ir  Ir129  1  0.33331477  0.33062184  0.75088666  1
  Ir  Ir130  1  0.66489538  0.66873731  0.49885681  1
  Ir  Ir131  1  -0.00079798  0.33534797  0.25675513  1
  Ir  Ir132  1  0.66423505  0.00818825  0.00110950  1
  Ir  Ir133  1  0.49130504  0.49904313  0.74928808  1
  Ir  Ir134  1  0.16634876  0.49784192  0.00032035  1
  Ir  Ir135  1  0.83539868  0.16525393  0.74372270  1
  Ir  Ir136  1  0.33312653  -0.00204548  0.49998399  1
  Ir  Ir137  1  -0.00014215  0.33071097  0.49839244  1
  Ir  Ir138  1  0.83899882  0.16778441  0.50235920  1
  Ir  Ir139  1  0.16814511  0.49730711  0.75180110  1
  Ir  Ir140  1  0.83422863  0.17008963  0.25134838  1
  Ir  Ir141  1  0.66702618  0.33196277  0.24577623  1
  Ir  Ir142  1  -0.00090683  0.66411480  0.25209455  1
  Ir  Ir143  1  0.83451997  0.49928875  0.25168852  1
  O  O144  1  0.31399983  0.32957798  0.11814211  1
  O  O145  1  0.31485903  0.32715260  0.62650572  1
  O  O146  1  0.29282055  0.66159646  0.12399371  1
  O  O147  1  0.31322186  0.66668478  0.62458463  1
  O  O148  1  0.31638417  1.00539341  0.11424044  1
  O  O149  1  0.30179516  1.00072981  0.62204015  1
  O  O150  1  0.63409377  0.32025807  0.12567330  1
  O  O151  1  0.62963042  0.31821606  0.62750438  1
  O  O152  1  0.65000325  0.65930774  0.13475323  1
  O  O153  1  0.64503446  0.66951404  0.61731007  1
  O  O154  1  0.63650799  1.00368023  0.11988661  1
  O  O155  1  0.65209634  0.98995186  0.62626363  1
  O  O156  1  0.97004950  0.32948103  0.13689873  1
  O  O157  1  0.96860554  0.31680162  0.61663327  1
  O  O158  1  0.96873616  0.66500396  0.12999535  1
  O  O159  1  0.96550722  0.65537836  0.61271350  1
  O  O160  1  0.96784920  0.99782055  0.11581506  1
  O  O161  1  0.96475744  0.99924545  0.63314671  1
  O  O162  1  0.18268903  0.16607210  0.12548739  1
  O  O163  1  0.18885143  0.15107427  0.63186627  1
  O  O164  1  0.18485369  0.50315535  0.12893496  1
  O  O165  1  0.18150510  0.50298557  0.62969243  1
  O  O166  1  0.18236524  0.81889864  0.12807193  1
  O  O167  1  0.18193709  0.83307493  0.62819448  1
  O  O168  1  0.53212992  0.15332347  0.12200974  1
  O  O169  1  0.52804062  0.16325815  0.63607269  1
  O  O170  1  0.53363950  0.48814636  0.12555655  1
  O  O171  1  0.51539907  0.49104618  0.62559684  1
  O  O172  1  0.52040188  0.83318422  0.12157945  1
  O  O173  1  0.53047540  0.82871819  0.61999844  1
  O  O174  1  0.85324269  0.16282186  0.13024512  1
  O  O175  1  0.87166214  0.15544973  0.62276981  1
  O  O176  1  0.85064339  0.48650573  0.13315728  1
  O  O177  1  0.87178846  0.48821996  0.61951241  1
  O  O178  1  0.85228242  0.81928781  0.13027385  1
  O  O179  1  0.85755435  0.82180208  0.62747449  1
  O  O180  1  0.13286945  0.17903047  0.37948205  1
  O  O181  1  0.13431655  0.17923179  0.86843100  1
  O  O182  1  0.13103155  0.51121385  0.37281371  1
  O  O183  1  0.14728028  0.48688302  0.87660651  1
  O  O184  1  0.14861609  0.82852928  0.37091169  1
  O  O185  1  0.12593858  0.85231471  0.87618546  1
  O  O186  1  0.47011071  0.17415851  0.36594166  1
  O  O187  1  0.46939335  0.17525694  0.87808333  1
  O  O188  1  0.47134100  0.51145604  0.38038173  1
  O  O189  1  0.46536598  0.50387046  0.86913369  1
  O  O190  1  0.48209878  0.82750845  0.38100211  1
  O  O191  1  0.46692353  0.85483982  0.87513631  1
  O  O192  1  0.81502975  0.16943230  0.37846619  1
  O  O193  1  0.79830144  0.17011218  0.86352785  1
  O  O194  1  0.81477947  0.51005935  0.37235350  1
  O  O195  1  0.81614917  0.50092760  0.87515889  1
  O  O196  1  0.81347590  0.84424958  0.36731450  1
  O  O197  1  0.82179662  0.83599180  0.86791768  1
  O  O198  1  0.01120269  0.01356402  0.37416721  1
  O  O199  1  0.03103952  0.01471144  0.87227600  1
  O  O200  1  0.03445273  0.34386809  0.37881123  1
  O  O201  1  0.03151282  0.33787481  0.87202491  1
  O  O202  1  0.03240192  0.66630333  0.37312546  1
  O  O203  1  0.01244751  0.67203680  0.88339386  1
  O  O204  1  0.35285511  0.00324440  0.37937965  1
  O  O205  1  0.36741858  0.01668797  0.87854041  1
  O  O206  1  0.35570855  0.35464857  0.38248734  1
  O  O207  1  0.35428480  0.34412941  0.87254739  1
  O  O208  1  0.36210095  0.66017807  0.38025837  1
  O  O209  1  0.36424255  0.66385926  0.86791720  1
  O  O210  1  0.70918492  0.00385866  0.37460943  1
  O  O211  1  0.68881983  0.02169658  0.88097243  1
  O  O212  1  0.68248576  0.33310228  0.36761554  1
  O  O213  1  0.68265156  0.32828569  0.88392237  1
  O  O214  1  0.69954478  0.66582176  0.37767045  1
  O  O215  1  0.69088173  0.66003022  0.87165479  1
  O  O216  1  0.06628325  0.09360934  0.00671823  1
  O  O217  1  0.07265248  0.09491928  0.53015292  1
  O  O218  1  0.07576575  0.43108652  0.01782794  1
  O  O219  1  0.06134910  0.42806396  0.52120364  1
  O  O220  1  0.07642490  0.74997800  0.01669908  1
  O  O221  1  0.06635321  0.75202425  0.51405201  1
  O  O222  1  0.40216236  0.10521459  0.01191678  1
  O  O223  1  0.40257122  0.09122996  0.50836496  1
  O  O224  1  0.40670089  0.41781199  0.01741939  1
  O  O225  1  0.40607529  0.42947350  0.52365488  1
  O  O226  1  0.39943046  0.76528444  0.00148191  1
  O  O227  1  0.40601319  0.75767041  0.51701401  1
  O  O228  1  0.73292659  0.10055113  0.02615695  1
  O  O229  1  0.74589411  0.10279449  0.53161428  1
  O  O230  1  0.72671302  0.42462081  0.03096725  1
  O  O231  1  0.74674017  0.42046878  0.52173142  1
  O  O232  1  0.74854831  0.75757191  0.01620655  1
  O  O233  1  0.73355892  0.76126720  0.52450994  1
  O  O234  1  0.09999707  0.26591925  0.00919105  1
  O  O235  1  0.09088450  0.26501838  0.52112964  1
  O  O236  1  0.09884398  0.59529272  0.02351795  1
  O  O237  1  0.08628918  0.59286326  0.51854434  1
  O  O238  1  0.09439718  0.93698258  0.01248888  1
  O  O239  1  0.09835902  0.93220545  0.52135510  1
  O  O240  1  0.43461508  0.26408195  0.02440132  1
  O  O241  1  0.43010524  0.26939427  0.52212323  1
  O  O242  1  0.42402204  0.59046109  0.01505553  1
  O  O243  1  0.42718813  0.59470795  0.51657259  1
  O  O244  1  0.43620453  0.94810645  0.01778236  1
  O  O245  1  0.42809443  0.92178553  0.51979174  1
  O  O246  1  0.75916547  0.26675460  0.03069204  1
  O  O247  1  0.77096729  0.25825868  0.52972554  1
  O  O248  1  0.75892799  0.59023891  0.03730904  1
  O  O249  1  0.76269344  0.60429704  0.51921837  1
  O  O250  1  0.76202613  0.94361658  0.02536322  1
  O  O251  1  0.76259578  0.92603943  0.53001670  1
  O  O252  1  0.25080827  0.08071574  0.27449658  1
  O  O253  1  0.23382042  0.07581155  0.78065919  1
  O  O254  1  0.22908953  0.40866644  0.27879498  1
  O  O255  1  0.23872641  0.40113697  0.77648303  1
  O  O256  1  0.22623713  0.73033444  0.27119773  1
  O  O257  1  0.24909336  0.73632653  0.77218224  1
  O  O258  1  0.57228344  0.07916041  0.26497400  1
  O  O259  1  0.56748951  0.07819680  0.78183035  1
  O  O260  1  0.57732722  0.40102799  0.26174903  1
  O  O261  1  0.56383838  0.41075130  0.75991951  1
  O  O262  1  0.57616517  0.72828579  0.27541214  1
  O  O263  1  0.56701113  0.73470251  0.77709921  1
  O  O264  1  0.89738100  0.07355585  0.26856026  1
  O  O265  1  0.90639310  0.07457910  0.77207029  1
  O  O266  1  0.90475401  0.40542616  0.27532154  1
  O  O267  1  0.90226583  0.39648153  0.75281346  1
  O  O268  1  0.89832823  0.72943887  0.27031499  1
  O  O269  1  0.90458486  0.74520960  0.76381039  1
  O  O270  1  0.26288830  0.24230680  0.28777436  1
  O  O271  1  0.25869247  0.23705592  0.77967749  1
  O  O272  1  0.25324242  0.56652027  0.28229525  1
  O  O273  1  0.26580919  0.56397930  0.77531223  1
  O  O274  1  0.25156022  0.90070275  0.25947001  1
  O  O275  1  0.25823091  0.90872241  0.78946978  1
  O  O276  1  0.60178182  0.23479821  0.25704854  1
  O  O277  1  0.59734956  0.22897047  0.77399639  1
  O  O278  1  0.60158999  0.57466575  0.26802498  1
  O  O279  1  0.57843737  0.57235701  0.76797780  1
  O  O280  1  0.59670735  0.90827410  0.26565225  1
  O  O281  1  0.59428450  0.91083702  0.76953582  1
  O  O282  1  0.93417156  0.23651640  0.27672745  1
  O  O283  1  0.93009779  0.22727600  0.76850946  1
  O  O284  1  0.92945393  0.56991040  0.27988607  1
  O  O285  1  0.93384712  0.56907276  0.75536440  1
  O  O286  1  0.92072993  0.90494903  0.26600053  1
  O  O287  1  0.93809292  0.90361463  0.77412706  1
  O  O288  1  0.26786092  0.24327735  0.47334578  1
  O  O289  1  0.26672236  0.24109856  0.96794022  1
  O  O290  1  0.26380871  0.57218450  0.47378879  1
  O  O291  1  0.25972659  0.56174462  0.97421482  1
  O  O292  1  0.26238497  0.91054309  0.48570304  1
  O  O293  1  0.27091197  0.91380736  0.97309478  1
  O  O294  1  0.59832312  0.23693903  0.48872051  1
  O  O295  1  0.60304145  0.22723708  0.98828191  1
  O  O296  1  0.58698967  0.57963067  0.47279605  1
  O  O297  1  0.59084868  0.57314550  0.98140457  1
  O  O298  1  0.59274933  0.89780476  0.48955587  1
  O  O299  1  0.59734626  0.91856777  0.97476239  1
  O  O300  1  0.93972044  0.22923365  0.47705681  1
  O  O301  1  0.93120801  0.23171847  0.97115712  1
  O  O302  1  0.93276017  0.57264275  0.46653561  1
  O  O303  1  0.92643875  0.58031841  0.99261095  1
  O  O304  1  0.92285476  0.90999181  0.47727072  1
  O  O305  1  0.93690121  0.90597584  0.97438088  1
  O  O306  1  0.24646626  0.07347272  0.47961251  1
  O  O307  1  0.24302487  0.07187628  0.96782338  1
  O  O308  1  0.24005025  0.40371953  0.47623620  1
  O  O309  1  0.23912083  0.40027905  0.97412057  1
  O  O310  1  0.24119707  0.72854601  0.47835177  1
  O  O311  1  0.24360994  0.74761076  0.96633775  1
  O  O312  1  0.57707007  0.07516478  0.48438854  1
  O  O313  1  0.56649474  0.07282584  0.97387673  1
  O  O314  1  0.56819539  0.41566319  0.49049453  1
  O  O315  1  0.57135171  0.39410737  0.99125728  1
  O  O316  1  0.56695075  0.73306860  0.47545607  1
  O  O317  1  0.56892435  0.73619012  0.97238671  1
  O  O318  1  0.89815801  0.07302543  0.47807802  1
  O  O319  1  0.90695440  0.06984152  0.98359029  1
  O  O320  1  0.91361244  0.40157144  0.47695109  1
  O  O321  1  0.89921728  0.39901036  0.99851606  1
  O  O322  1  0.90136833  0.72748129  0.47243423  1
  O  O323  1  0.91675850  0.74339493  0.98992111  1
  O  O324  1  0.09282269  0.27213753  0.24360447  1
  O  O325  1  0.09318560  0.25211845  0.72228762  1
  O  O326  1  0.09809178  0.60048643  0.23212151  1
  O  O327  1  0.09581316  0.58675065  0.73530303  1
  O  O328  1  0.09225733  0.91624495  0.23384150  1
  O  O329  1  0.09714691  0.94644411  0.72985425  1
  O  O330  1  0.43812205  0.26088460  0.22370924  1
  O  O331  1  0.43312939  0.26506741  0.72769451  1
  O  O332  1  0.42450501  0.59049234  0.23554031  1
  O  O333  1  0.42430923  0.59110938  0.73287213  1
  O  O334  1  0.43152789  0.93404774  0.22719318  1
  O  O335  1  0.42522579  0.92821331  0.73207004  1
  O  O336  1  0.76398846  0.26505088  0.22339836  1
  O  O337  1  0.76607707  0.25447448  0.71479456  1
  O  O338  1  0.76955146  0.59710943  0.22856733  1
  O  O339  1  0.76378255  0.59937693  0.71663793  1
  O  O340  1  0.77387667  0.93019095  0.22376415  1
  O  O341  1  0.77207727  0.93013024  0.72603974  1
  O  O342  1  0.07055692  0.09408775  0.24011400  1
  O  O343  1  0.06557782  0.10054677  0.72634574  1
  O  O344  1  0.06219460  0.43414073  0.24276587  1
  O  O345  1  0.07338187  0.43218370  0.72532851  1
  O  O346  1  0.07111191  0.75314536  0.22647162  1
  O  O347  1  0.07072373  0.76031540  0.74642289  1
  O  O348  1  0.41556724  0.09722253  0.23269478  1
  O  O349  1  0.40568984  0.10463489  0.74310917  1
  O  O350  1  0.41027659  0.42123001  0.23389307  1
  O  O351  1  0.40353183  0.42158061  0.72607972  1
  O  O352  1  0.40488649  0.75959503  0.23603610  1
  O  O353  1  0.40118876  0.75525668  0.74076591  1
  O  O354  1  0.74209090  0.10067070  0.22193509  1
  O  O355  1  0.74273937  0.09863608  0.71682749  1
  O  O356  1  0.73704073  0.42848593  0.22313717  1
  O  O357  1  0.74170637  0.41952966  0.72478436  1
  O  O358  1  0.74388195  0.75475885  0.22921316  1
  O  O359  1  0.74193903  0.77203520  0.72211806  1
