# generated using pymatgen
data_BaLaInIrO6
_symmetry_space_group_name_H-M   'P 1'
_cell_length_a   17.54780444
_cell_length_b   17.57878067
_cell_length_c   16.51460209
_cell_angle_alpha   89.97038361
_cell_angle_beta   89.95743797
_cell_angle_gamma   89.96547909
_symmetry_Int_Tables_number   1
_chemical_formula_structural   BaLaInIrO6
_chemical_formula_sum   'Ba36 La36 In36 Ir36 O216'
_cell_volume   5094.23987239
_cell_formula_units_Z   36
loop_
 _symmetry_equiv_pos_site_id
 _symmetry_equiv_pos_as_xyz
  1  'x, y, z'
loop_
 _atom_site_type_symbol
 _atom_site_label
 _atom_site_symmetry_multiplicity
 _atom_site_fract_x
 _atom_site_fract_y
 _atom_site_fract_z
 _atom_site_occupancy
  Ba  Ba0  1  0.66750936  0.82743165  0.37178705  1
  Ba  Ba1  1  0.00064164  0.83138959  0.37309352  1
  Ba  Ba2  1  0.83036069  0.00641054  0.12863995  1
  Ba  Ba3  1  -0.00066396  0.48799767  0.36915136  1
  Ba  Ba4  1  0.33710474  0.50767857  0.12637507  1
  Ba  Ba5  1  0.66066852  0.15373034  0.87648819  1
  Ba  Ba6  1  0.83601652  0.33713630  0.61963273  1
  Ba  Ba7  1  0.33113745  0.15910337  0.87659035  1
  Ba  Ba8  1  0.16824661  0.32357978  0.36958745  1
  Ba  Ba9  1  0.66994343  0.50711976  0.62210967  1
  Ba  Ba10  1  0.33206743  0.82812622  0.87767784  1
  Ba  Ba11  1  0.66976415  0.49145292  0.37396674  1
  Ba  Ba12  1  0.16018985  0.00797437  0.62844384  1
  Ba  Ba13  1  0.83224843  0.00501131  0.62484360  1
  Ba  Ba14  1  0.49835567  0.01166837  0.12380216  1
  Ba  Ba15  1  0.66513853  0.84654955  0.12201422  1
  Ba  Ba16  1  0.00009478  0.82391274  0.87601268  1
  Ba  Ba17  1  0.66760431  0.50860235  0.12481160  1
  Ba  Ba18  1  0.33325112  0.50945366  0.62480398  1
  Ba  Ba19  1  0.17185473  0.32402018  0.87739922  1
  Ba  Ba20  1  1.00175491  0.17597825  0.62840391  1
  Ba  Ba21  1  0.33135125  0.48650407  0.37125872  1
  Ba  Ba22  1  -0.00128729  0.16065600  0.37596973  1
  Ba  Ba23  1  0.83457663  0.67230164  0.62287253  1
  Ba  Ba24  1  0.16664358  0.99219889  0.37724824  1
  Ba  Ba25  1  0.32770531  0.49171875  0.87872552  1
  Ba  Ba26  1  0.16314626  0.01066652  0.12396070  1
  Ba  Ba27  1  0.50093134  0.65677581  0.87817151  1
  Ba  Ba28  1  0.83318763  0.32955239  0.37810982  1
  Ba  Ba29  1  0.83432695  0.65873123  0.36942079  1
  Ba  Ba30  1  1.00096286  0.83960778  0.62430318  1
  Ba  Ba31  1  0.50067429  0.98819266  0.87392276  1
  Ba  Ba32  1  1.00259087  0.84468550  0.12297358  1
  Ba  Ba33  1  0.67057474  0.17779015  0.63061318  1
  Ba  Ba34  1  0.32715495  0.15663157  0.37352048  1
  Ba  Ba35  1  0.17400324  0.66334166  0.87562237  1
  La  La36  1  0.66291262  0.48321834  0.87134578  1
  La  La37  1  0.50829327  0.64945424  0.37559492  1
  La  La38  1  0.16941060  0.98406921  0.87710957  1
  La  La39  1  0.66499318  0.15759133  0.38151564  1
  La  La40  1  0.66851031  0.17647424  0.12507630  1
  La  La41  1  -0.00326396  0.15032230  0.87930573  1
  La  La42  1  0.33298445  0.84339285  0.62877042  1
  La  La43  1  0.83322577  0.98366254  0.87934492  1
  La  La44  1  0.00006782  0.48971021  0.87508629  1
  La  La45  1  0.83667156  0.32055840  0.87106318  1
  La  La46  1  0.49498683  0.35031383  0.62737481  1
  La  La47  1  0.49759892  0.34500051  0.12368574  1
  La  La48  1  0.17168551  0.65205555  0.37150466  1
  La  La49  1  0.32459387  0.81495034  0.37486750  1
  La  La50  1  0.49875447  0.68065487  0.62234900  1
  La  La51  1  0.50708802  0.31721790  0.37304477  1
  La  La52  1  0.16441691  0.67894068  0.62847374  1
  La  La53  1  0.33285324  0.18401986  0.62185781  1
  La  La54  1  0.67414953  0.84935640  0.62680393  1
  La  La55  1  0.49508880  0.68354570  0.12890353  1
  La  La56  1  0.16645693  0.34795596  0.62330608  1
  La  La57  1  0.83473199  0.64863230  0.87628705  1
  La  La58  1  0.49988955  0.98935440  0.37376796  1
  La  La59  1  0.66096865  0.82228450  0.87389509  1
  La  La60  1  0.50089675  0.31937690  0.88054176  1
  La  La61  1  0.83072901  0.34596274  0.12748390  1
  La  La62  1  0.49414173  0.01501101  0.62415314  1
  La  La63  1  0.16724002  0.34636716  0.12470884  1
  La  La64  1  0.33739130  0.18392390  0.12515613  1
  La  La65  1  1.00718984  0.51206118  0.12827942  1
  La  La66  1  1.00425447  0.18099885  0.12737476  1
  La  La67  1  1.00846963  0.51279921  0.61486838  1
  La  La68  1  0.83292330  0.68644299  0.12394404  1
  La  La69  1  0.83937800  0.98668875  0.37610291  1
  La  La70  1  0.16752613  0.68013046  0.12194758  1
  La  La71  1  0.34052202  0.84949797  0.12236572  1
  In  In72  1  -0.00033374  0.66575873  0.00031511  1
  In  In73  1  0.49910788  0.16909959  0.74722823  1
  In  In74  1  0.17005868  0.83460024  0.24806841  1
  In  In75  1  0.49960748  0.49674881  0.24971925  1
  In  In76  1  -0.00021706  0.00519340  0.24728138  1
  In  In77  1  0.66454188  0.66838408  0.50087443  1
  In  In78  1  0.00179554  0.66731504  0.24808992  1
  In  In79  1  0.83593571  0.49684222  0.74992957  1
  In  In80  1  0.32942405  0.00437973  0.74884748  1
  In  In81  1  0.49698756  0.83429560  0.50040248  1
  In  In82  1  0.83119365  0.16617725  0.49953846  1
  In  In83  1  0.33516742  0.33351451  0.49554797  1
  In  In84  1  0.66252463  0.33432760  0.50292031  1
  In  In85  1  0.00062830  0.33326409  -0.00180357  1
  In  In86  1  0.16556139  0.50211685  0.75224265  1
  In  In87  1  0.83376250  0.16570051  0.00294094  1
  In  In88  1  0.83129099  0.16425102  0.75496382  1
  In  In89  1  0.16798029  0.16692215  0.50180087  1
  In  In90  1  0.83343389  0.82970731  0.49990669  1
  In  In91  1  0.33254350  0.33460586  0.75200820  1
  In  In92  1  0.00366906  0.33319302  0.49825009  1
  In  In93  1  0.49403829  0.83453316  0.25432334  1
  In  In94  1  0.83061189  0.82921548  0.75396047  1
  In  In95  1  0.66444996  0.00496567  0.25179823  1
  In  In96  1  0.33284326  -0.00219093  0.49966124  1
  In  In97  1  0.33652303  0.66541739  0.00332678  1
  In  In98  1  0.66572217  0.66532548  0.24670915  1
  In  In99  1  0.33885672  0.66620845  0.74845800  1
  In  In100  1  0.66797490  0.66373206  0.00054116  1
  In  In101  1  0.66660828  0.66570031  0.74986490  1
  In  In102  1  -0.00241152  -0.00115155  0.75535777  1
  In  In103  1  -0.00141881  0.00114018  0.50016204  1
  In  In104  1  0.33209065  0.00601286  0.00055906  1
  In  In105  1  0.66851284  0.33290872  0.00253428  1
  In  In106  1  0.00065392  0.66355387  0.75281621  1
  In  In107  1  0.83723859  0.50148236  0.49942968  1
  Ir  Ir108  1  0.83170116  0.83514979  0.24599009  1
  Ir  Ir109  1  0.17022681  0.50361171  0.49605882  1
  Ir  Ir110  1  0.00413497  0.33523922  0.75365601  1
  Ir  Ir111  1  -0.00158328  0.33058299  0.24261158  1
  Ir  Ir112  1  0.16890274  0.83271834  0.75034847  1
  Ir  Ir113  1  0.83085975  0.17058667  0.24740227  1
  Ir  Ir114  1  0.16914291  0.83441952  0.00105909  1
  Ir  Ir115  1  0.33417745  0.00308139  0.24829426  1
  Ir  Ir116  1  0.33336615  0.66676488  0.25101454  1
  Ir  Ir117  1  0.49688337  0.50035616  0.50277146  1
  Ir  Ir118  1  0.16582398  0.49932265  0.00783498  1
  Ir  Ir119  1  0.66154445  -0.00247273  0.75029821  1
  Ir  Ir120  1  0.33567179  0.33028204  0.24521836  1
  Ir  Ir121  1  0.66038256  0.00245290  0.49851635  1
  Ir  Ir122  1  0.66523069  0.32745425  0.24868876  1
  Ir  Ir123  1  0.50461540  0.83311261  0.74819826  1
  Ir  Ir124  1  0.33440903  0.33257186  0.00342875  1
  Ir  Ir125  1  0.17135488  0.82461456  0.50004920  1
  Ir  Ir126  1  0.16447133  0.16987147  0.75655572  1
  Ir  Ir127  1  0.16489661  0.16917493  0.00171471  1
  Ir  Ir128  1  0.49890008  0.16652541  0.49795278  1
  Ir  Ir129  1  0.66386463  0.33654473  0.75436295  1
  Ir  Ir130  1  0.83819923  0.49597104  0.24032537  1
  Ir  Ir131  1  0.17031362  0.49861036  0.24701889  1
  Ir  Ir132  1  0.50319768  0.49826683  0.75225992  1
  Ir  Ir133  1  0.49870449  0.16854931  0.25143236  1
  Ir  Ir134  1  0.50187425  0.49570611  -0.00437775  1
  Ir  Ir135  1  0.50068793  0.16844755  0.00570983  1
  Ir  Ir136  1  0.00879966  0.66679096  0.49805199  1
  Ir  Ir137  1  0.82840070  0.83633651  0.00114191  1
  Ir  Ir138  1  0.83472560  0.49783311  0.00065309  1
  Ir  Ir139  1  0.50155186  0.83427583  -0.00177948  1
  Ir  Ir140  1  0.00035293  0.00120886  -0.00136014  1
  Ir  Ir141  1  0.66424925  0.00215590  -0.00135322  1
  Ir  Ir142  1  0.33331251  0.66609446  0.49906582  1
  Ir  Ir143  1  0.17051855  0.16952620  0.24156354  1
  O  O144  1  0.30413043  0.32582670  0.12424567  1
  O  O145  1  0.30497384  0.32658341  0.62393893  1
  O  O146  1  0.30266547  0.66378674  0.13204185  1
  O  O147  1  0.30208198  0.66400377  0.61715496  1
  O  O148  1  0.31266902  0.99065554  0.12805729  1
  O  O149  1  0.30960189  0.97915094  0.62652639  1
  O  O150  1  0.63440175  0.32169270  0.12946087  1
  O  O151  1  0.63097159  0.33475935  0.63425404  1
  O  O152  1  0.63030506  0.66377616  0.12199053  1
  O  O153  1  0.63078718  0.65945399  0.62649560  1
  O  O154  1  0.64753448  1.00492909  0.12068398  1
  O  O155  1  0.62971508  0.98781736  0.62441438  1
  O  O156  1  0.96913625  0.32147725  0.12387748  1
  O  O157  1  0.98713424  0.33298715  0.63590612  1
  O  O158  1  0.96801449  0.65401578  0.12226161  1
  O  O159  1  0.98521185  0.65887191  0.61859401  1
  O  O160  1  0.98069621  1.00540132  0.11812123  1
  O  O161  1  0.98581873  0.99794002  0.62919970  1
  O  O162  1  0.19959488  0.16502570  0.12073330  1
  O  O163  1  0.19497836  0.16365834  0.63840431  1
  O  O164  1  0.19139936  0.48285690  0.12718499  1
  O  O165  1  0.18374763  0.48925250  0.61605969  1
  O  O166  1  0.20266063  0.82708088  0.12053667  1
  O  O167  1  0.19766175  0.82113495  0.62525362  1
  O  O168  1  0.53155478  0.16517427  0.12935249  1
  O  O169  1  0.52474343  0.15419551  0.61581622  1
  O  O170  1  0.51988523  0.48239658  0.11658121  1
  O  O171  1  0.52351785  0.48564212  0.62750598  1
  O  O172  1  0.51526537  0.82764450  0.12026333  1
  O  O173  1  0.53609334  0.82375574  0.62937298  1
  O  O174  1  0.86576710  0.16188018  0.12975333  1
  O  O175  1  0.84805255  0.16236307  0.63046690  1
  O  O176  1  0.86984955  0.48360815  0.11871924  1
  O  O177  1  0.87113901  0.49945052  0.62723471  1
  O  O178  1  0.85450076  0.83067075  0.12250267  1
  O  O179  1  0.84870513  0.83392432  0.62715083  1
  O  O180  1  0.15276513  0.17095389  0.36173352  1
  O  O181  1  0.13249002  0.17581718  0.88111775  1
  O  O182  1  0.14841901  0.51442768  0.37043770  1
  O  O183  1  0.13670221  0.50694022  0.88674090  1
  O  O184  1  0.15421920  0.82496580  0.38027476  1
  O  O185  1  0.14674134  0.84272875  0.87603073  1
  O  O186  1  0.47354116  0.18196869  0.37386934  1
  O  O187  1  0.48072789  0.17890639  0.88224574  1
  O  O188  1  0.47745231  0.51125995  0.38148274  1
  O  O189  1  0.47592674  0.50113902  0.87344178  1
  O  O190  1  0.45734373  0.84866263  0.37718344  1
  O  O191  1  0.47964001  0.83490615  0.87248940  1
  O  O192  1  0.79860038  0.17674193  0.36350020  1
  O  O193  1  0.80821265  0.18720984  0.87865021  1
  O  O194  1  0.82085871  0.50110474  0.35987333  1
  O  O195  1  0.80062880  0.50870335  0.88407560  1
  O  O196  1  0.81622838  0.83688672  0.36709753  1
  O  O197  1  0.79706011  0.84289682  0.88356710  1
  O  O198  1  0.01546145  0.00067162  0.37195987  1
  O  O199  1  0.03407002  0.00775411  0.88201623  1
  O  O200  1  0.01995563  0.33240666  0.36150777  1
  O  O201  1  0.02552117  0.35104566  0.87242504  1
  O  O202  1  0.03460113  0.67033302  0.37599721  1
  O  O203  1  0.02567856  0.66130394  0.87915292  1
  O  O204  1  0.36433563  0.00561987  0.36877472  1
  O  O205  1  0.34997548  0.00229986  0.87451097  1
  O  O206  1  0.36739942  0.32955668  0.36627889  1
  O  O207  1  0.36376204  0.33150385  0.88198233  1
  O  O208  1  0.36903671  0.67618714  0.37516265  1
  O  O209  1  0.35063932  0.66997073  0.87671323  1
  O  O210  1  0.69480636  0.01498127  0.37983623  1
  O  O211  1  0.69260355  -0.00132602  0.87337233  1
  O  O212  1  0.67859635  0.33075060  0.36763539  1
  O  O213  1  0.69647745  0.34254157  0.87518013  1
  O  O214  1  0.68006186  0.66959420  0.37227380  1
  O  O215  1  0.69813051  0.68104560  0.87834305  1
  O  O216  1  0.06425273  0.10558927  0.01862269  1
  O  O217  1  0.07376345  0.09470531  0.51453038  1
  O  O218  1  0.07168850  0.43062616  0.02699386  1
  O  O219  1  0.07888634  0.43549415  0.51852577  1
  O  O220  1  0.08510715  0.75634824  0.02274958  1
  O  O221  1  0.08316456  0.75250006  0.52693538  1
  O  O222  1  0.40509570  0.10392759  0.02630585  1
  O  O223  1  0.40739001  0.10029614  0.52658421  1
  O  O224  1  0.40916519  0.42065297  0.02230139  1
  O  O225  1  0.41105491  0.42681727  0.52135440  1
  O  O226  1  0.41242724  0.76102283  0.02825413  1
  O  O227  1  0.39453519  0.76104717  0.52702908  1
  O  O228  1  0.72942066  0.09767598  0.02087404  1
  O  O229  1  0.72458808  0.09298577  0.51390446  1
  O  O230  1  0.74462428  0.42885236  0.02114511  1
  O  O231  1  0.74252409  0.42320281  0.51104249  1
  O  O232  1  0.74523312  0.76170737  0.02502862  1
  O  O233  1  0.73008185  0.76945194  0.52169355  1
  O  O234  1  0.09964594  0.26111330  0.03000739  1
  O  O235  1  0.10479557  0.27059538  0.52152795  1
  O  O236  1  0.09660883  0.58811406  0.03827248  1
  O  O237  1  0.10450115  0.59849213  0.52152677  1
  O  O238  1  0.09522408  0.92840061  0.01412720  1
  O  O239  1  0.10042077  0.91277785  0.51498609  1
  O  O240  1  0.43118107  0.26403933  0.02917668  1
  O  O241  1  0.43734061  0.26169864  0.52551415  1
  O  O242  1  0.43888052  0.59276492  0.02534697  1
  O  O243  1  0.43201595  0.60190228  0.52383045  1
  O  O244  1  0.42227888  0.91757888  0.01699437  1
  O  O245  1  0.43232901  0.93265223  0.52864576  1
  O  O246  1  0.76073890  0.26065947  0.03491185  1
  O  O247  1  0.74949837  0.25364587  0.51230791  1
  O  O248  1  0.77593984  0.59696944  0.02367831  1
  O  O249  1  0.76078069  0.59355676  0.51063695  1
  O  O250  1  0.76215471  0.93634322  0.01223132  1
  O  O251  1  0.74756609  0.93089594  0.51471497  1
  O  O252  1  0.24027809  0.07286539  0.26299659  1
  O  O253  1  0.22512941  0.07331239  0.77895354  1
  O  O254  1  0.24077845  0.40038426  0.26148831  1
  O  O255  1  0.23719459  0.40668169  0.76084449  1
  O  O256  1  0.24310177  0.73389424  0.27720097  1
  O  O257  1  0.24488609  0.74875658  0.75718772  1
  O  O258  1  0.56602966  0.07934974  0.28363654  1
  O  O259  1  0.56960838  0.06781409  0.75847731  1
  O  O260  1  0.56794848  0.39141431  0.26719937  1
  O  O261  1  0.56746902  0.40214095  0.78147460  1
  O  O262  1  0.55852719  0.73324634  0.26579130  1
  O  O263  1  0.56920907  0.74285650  0.77179661  1
  O  O264  1  0.89342162  0.07716593  0.27445883  1
  O  O265  1  0.90590447  0.07426632  0.79209562  1
  O  O266  1  0.90135069  0.39583056  0.25535342  1
  O  O267  1  0.90760696  0.39787492  0.77945617  1
  O  O268  1  0.90718579  0.74695220  0.25479869  1
  O  O269  1  0.89940952  0.72981479  0.77705597  1
  O  O270  1  0.26819337  0.23581541  0.25477527  1
  O  O271  1  0.25872928  0.23342757  0.76577984  1
  O  O272  1  0.25895591  0.57577291  0.27458995  1
  O  O273  1  0.25909879  0.57732045  0.76244522  1
  O  O274  1  0.27226361  0.90515300  0.27059717  1
  O  O275  1  0.25320473  0.90800541  0.76884845  1
  O  O276  1  0.59697048  0.23308148  0.27543072  1
  O  O277  1  0.58991436  0.25041420  0.77510097  1
  O  O278  1  0.58999284  0.57060978  0.26702610  1
  O  O279  1  0.59719379  0.56203348  0.77676599  1
  O  O280  1  0.58151439  0.91778409  0.27297986  1
  O  O281  1  0.59829483  0.89932369  0.77239061  1
  O  O282  1  0.93025828  0.23461368  0.26025522  1
  O  O283  1  0.93811571  0.24257496  0.78133259  1
  O  O284  1  0.93171005  0.56335429  0.25332540  1
  O  O285  1  0.93014620  0.56620430  0.78531837  1
  O  O286  1  0.91303361  0.91446031  0.26250328  1
  O  O287  1  0.91456525  0.91251453  0.78209378  1
  O  O288  1  0.26921001  0.23377893  0.49427387  1
  O  O289  1  0.26455753  0.23532580  0.99012591  1
  O  O290  1  0.26222309  0.57636712  0.47229761  1
  O  O291  1  0.25410681  0.57186398  0.99244121  1
  O  O292  1  0.26805052  0.88752894  0.48198433  1
  O  O293  1  0.25215357  0.91145915  0.98462712  1
  O  O294  1  0.58789307  0.23520790  0.47094512  1
  O  O295  1  0.58832182  0.24047452  0.98568769  1
  O  O296  1  0.58388113  0.56983912  0.48248967  1
  O  O297  1  0.59774217  0.56009534  0.97358839  1
  O  O298  1  0.58994273  0.91521944  0.47413374  1
  O  O299  1  0.59768184  0.90434975  0.97512487  1
  O  O300  1  0.92513573  0.24291997  0.48789471  1
  O  O301  1  0.93345719  0.23544893  0.97606370  1
  O  O302  1  0.94088820  0.57802764  0.48275298  1
  O  O303  1  0.92848235  0.56077183  0.97694848  1
  O  O304  1  0.91735866  0.91178196  0.47834888  1
  O  O305  1  0.92499411  0.91172051  0.97564429  1
  O  O306  1  0.24065830  0.07010058  0.48741001  1
  O  O307  1  0.22746943  0.07489464  0.97732944  1
  O  O308  1  0.23708605  0.41066048  0.48103381  1
  O  O309  1  0.23831454  0.40328729  0.98825491  1
  O  O310  1  0.23819892  0.72912508  0.47281674  1
  O  O311  1  0.24066513  0.74584955  0.99122691  1
  O  O312  1  0.56268726  0.06986150  0.47239066  1
  O  O313  1  0.56778940  0.07206269  0.98307340  1
  O  O314  1  0.55936320  0.40280889  0.48124762  1
  O  O315  1  0.56892824  0.40201399  0.97233549  1
  O  O316  1  0.55623184  0.73163780  0.47960546  1
  O  O317  1  0.57664491  0.74928488  0.98073387  1
  O  O318  1  0.89396599  0.06773909  0.47315588  1
  O  O319  1  0.90751271  0.06757787  0.97333563  1
  O  O320  1  0.91667685  0.41312542  0.48463656  1
  O  O321  1  0.89669792  0.40244790  0.97433638  1
  O  O322  1  0.91881698  0.73696766  0.48145990  1
  O  O323  1  0.89492337  0.73883152  0.98347727  1
  O  O324  1  0.09893622  0.26302535  0.21662612  1
  O  O325  1  0.10331078  0.27153857  0.72960021  1
  O  O326  1  0.10106426  0.58885617  0.22252767  1
  O  O327  1  0.09255850  0.59136982  0.71502564  1
  O  O328  1  0.09106459  0.92380185  0.23553108  1
  O  O329  1  0.09458735  0.91976651  0.74473646  1
  O  O330  1  0.43120630  0.26218517  0.21921011  1
  O  O331  1  0.42708165  0.26285543  0.71970991  1
  O  O332  1  0.42844884  0.60221437  0.22772444  1
  O  O333  1  0.44158292  0.59496809  0.72465212  1
  O  O334  1  0.41959569  0.93127617  0.22795273  1
  O  O335  1  0.43565929  0.92355562  0.72282680  1
  O  O336  1  0.76115428  0.26198889  0.21706908  1
  O  O337  1  0.75690826  0.27026793  0.73946367  1
  O  O338  1  0.77288495  0.59150969  0.21942288  1
  O  O339  1  0.76715794  0.59776024  0.74518425  1
  O  O340  1  0.75521359  0.92162614  0.24062236  1
  O  O341  1  0.74947520  0.92889689  0.73482307  1
  O  O342  1  0.07319949  0.10733061  0.22385773  1
  O  O343  1  0.07152824  0.10520040  0.74847088  1
  O  O344  1  0.07323908  0.42531820  0.21864416  1
  O  O345  1  0.06287610  0.43295167  0.73083143  1
  O  O346  1  0.08638286  0.74926657  0.21881620  1
  O  O347  1  0.08392587  0.75586424  0.73185013  1
  O  O348  1  0.40139346  0.10190321  0.22435508  1
  O  O349  1  0.40190941  0.09815455  0.71879295  1
  O  O350  1  0.40842263  0.41762653  0.22861462  1
  O  O351  1  0.41486419  0.42726162  0.73201897  1
  O  O352  1  0.39506816  0.76195354  0.22306740  1
  O  O353  1  0.41356066  0.76358462  0.71785502  1
  O  O354  1  0.73348653  0.10783286  0.22843790  1
  O  O355  1  0.73231256  0.08598627  0.73869651  1
  O  O356  1  0.74156658  0.41797382  0.22113633  1
  O  O357  1  0.73213751  0.42731626  0.74130136  1
  O  O358  1  0.74812791  0.75653635  0.22481191  1
  O  O359  1  0.72527507  0.77185659  0.73276921  1
