# generated using pymatgen
data_BaLaInIrO6
_symmetry_space_group_name_H-M   'P 1'
_cell_length_a   17.54566105
_cell_length_b   17.57541655
_cell_length_c   16.51629965
_cell_angle_alpha   89.95370572
_cell_angle_beta   90.05972626
_cell_angle_gamma   90.06348556
_symmetry_Int_Tables_number   1
_chemical_formula_structural   BaLaInIrO6
_chemical_formula_sum   'Ba36 La36 In36 Ir36 O216'
_cell_volume   5093.16178558
_cell_formula_units_Z   36
loop_
 _symmetry_equiv_pos_site_id
 _symmetry_equiv_pos_as_xyz
  1  'x, y, z'
loop_
 _atom_site_type_symbol
 _atom_site_label
 _atom_site_symmetry_multiplicity
 _atom_site_fract_x
 _atom_site_fract_y
 _atom_site_fract_z
 _atom_site_occupancy
  Ba  Ba0  1  0.16866741  0.66876069  0.62727784  1
  Ba  Ba1  1  0.16603668  0.33800214  0.62715691  1
  Ba  Ba2  1  0.66736047  0.49115105  0.37440518  1
  Ba  Ba3  1  0.16792381  0.34045932  0.12575276  1
  Ba  Ba4  1  0.82975053  0.67381111  0.62312880  1
  Ba  Ba5  1  0.16431980  0.32541003  0.87765169  1
  Ba  Ba6  1  0.00351793  0.81869684  0.37468780  1
  Ba  Ba7  1  0.66575731  0.17587575  0.12613383  1
  Ba  Ba8  1  0.83692590  0.65337814  0.37663724  1
  Ba  Ba9  1  0.82950991  0.32819681  0.37310816  1
  Ba  Ba10  1  0.33271505  0.82458394  0.37847018  1
  Ba  Ba11  1  0.49848750  0.01031704  0.62345525  1
  Ba  Ba12  1  0.16857091  0.32932037  0.37328934  1
  Ba  Ba13  1  0.33569216  0.49454386  0.37274244  1
  Ba  Ba14  1  0.99926211  0.51177781  0.12769196  1
  Ba  Ba15  1  0.50713888  0.32369425  0.37340740  1
  Ba  Ba16  1  -0.00601960  0.82224540  0.87429319  1
  Ba  Ba17  1  0.66749148  0.51330939  0.62292026  1
  Ba  Ba18  1  0.83019517  0.34591652  0.13305769  1
  Ba  Ba19  1  0.00131082  0.15807531  0.37107916  1
  Ba  Ba20  1  0.66510833  0.49356087  0.88033887  1
  Ba  Ba21  1  -0.00189390  0.49181266  0.87811420  1
  Ba  Ba22  1  0.16962865  0.98728244  0.37365165  1
  Ba  Ba23  1  0.66582107  0.84036512  0.11862695  1
  Ba  Ba24  1  0.33201047  0.49261563  0.87870678  1
  Ba  Ba25  1  0.66925029  0.51174741  0.13056871  1
  Ba  Ba26  1  0.16900857  0.65980323  0.37609596  1
  Ba  Ba27  1  0.50471956  0.65871986  0.88199543  1
  Ba  Ba28  1  0.16560038  0.98759302  0.87283623  1
  Ba  Ba29  1  0.33480049  0.15926092  0.87175801  1
  Ba  Ba30  1  0.82955379  0.00562844  0.62444953  1
  Ba  Ba31  1  0.16509657  0.67489073  0.12769691  1
  Ba  Ba32  1  0.50142829  0.67904756  0.12486862  1
  Ba  Ba33  1  0.99806435  0.17377890  0.61854158  1
  Ba  Ba34  1  0.49989717  0.00968977  0.12265152  1
  Ba  Ba35  1  0.66573801  0.82312508  0.87230609  1
  La  La36  1  0.82652038  0.67412232  0.12416687  1
  La  La37  1  0.34018586  0.18373303  0.12336829  1
  La  La38  1  0.15901698  0.01045526  0.62547169  1
  La  La39  1  0.33048258  0.15356965  0.37215246  1
  La  La40  1  0.33857527  0.84820037  0.12718074  1
  La  La41  1  0.50760320  0.98264194  0.88153075  1
  La  La42  1  0.84130422  0.98447397  0.37001350  1
  La  La43  1  0.66148852  0.14978190  0.37418900  1
  La  La44  1  0.83475085  0.65148353  0.87510685  1
  La  La45  1  -0.00527442  0.16100473  0.87456608  1
  La  La46  1  0.50030128  0.98079131  0.37054896  1
  La  La47  1  0.83856348  0.32077571  0.88078435  1
  La  La48  1  0.33270683  0.18518863  0.62285062  1
  La  La49  1  1.00149689  0.51361203  0.62527659  1
  La  La50  1  0.32698417  0.50063004  0.61783597  1
  La  La51  1  0.50965120  0.32037704  0.87738242  1
  La  La52  1  0.67729847  0.18586725  0.62043786  1
  La  La53  1  -0.00448384  0.49027907  0.37480678  1
  La  La54  1  0.32772799  0.84593639  0.62752248  1
  La  La55  1  0.49565154  0.67611945  0.62805137  1
  La  La56  1  0.16965416  0.65256340  0.87726571  1
  La  La57  1  0.49548365  0.35440924  0.62429060  1
  La  La58  1  0.82481677  0.01381749  0.12194293  1
  La  La59  1  0.50729422  0.65164985  0.37255031  1
  La  La60  1  0.67171022  0.84372079  0.62097830  1
  La  La61  1  0.32858828  0.82020830  0.87624166  1
  La  La62  1  0.82637757  0.35315111  0.62314655  1
  La  La63  1  0.65727763  0.15119788  0.87841781  1
  La  La64  1  1.00466996  0.84413280  0.12924568  1
  La  La65  1  1.00303214  0.84550814  0.62343730  1
  La  La66  1  0.49687509  0.35504277  0.12584931  1
  La  La67  1  0.33676964  0.51857383  0.12910599  1
  La  La68  1  1.00111902  0.18282488  0.12835699  1
  La  La69  1  0.16692897  0.01177226  0.12525561  1
  La  La70  1  0.66168718  0.81372897  0.37321769  1
  La  La71  1  0.83976016  0.98629912  0.87786252  1
  In  In72  1  0.16615865  0.16590698  0.74953170  1
  In  In73  1  0.83189259  0.16553429  0.49626292  1
  In  In74  1  -0.00173826  0.00185086  0.75114377  1
  In  In75  1  0.50295605  0.16674798  0.50068770  1
  In  In76  1  0.83275388  0.83039047  0.49582995  1
  In  In77  1  0.16771780  0.16725668  0.49560115  1
  In  In78  1  0.66306870  0.00138404  0.74868695  1
  In  In79  1  0.83232510  0.83066303  0.74792012  1
  In  In80  1  0.49759164  0.83240879  0.74732414  1
  In  In81  1  0.16629136  0.82985770  0.50050279  1
  In  In82  1  0.33437646  0.66362132  0.75117346  1
  In  In83  1  0.16671738  0.83156429  0.00113632  1
  In  In84  1  0.33448626  -0.00001386  -0.00382616  1
  In  In85  1  0.33374867  0.00247983  0.50058778  1
  In  In86  1  0.66363255  0.33282830  0.24917578  1
  In  In87  1  0.83182619  0.49833893  0.00261268  1
  In  In88  1  0.16667324  0.16526779  0.00073131  1
  In  In89  1  0.33670565  0.66506579  0.49972034  1
  In  In90  1  0.33443745  0.00313824  0.74766947  1
  In  In91  1  0.33771550  0.33426989  0.25231832  1
  In  In92  1  0.82728930  0.16809817  0.75044583  1
  In  In93  1  0.16638044  0.49810459  0.00405139  1
  In  In94  1  0.50404525  0.16848225  0.74615106  1
  In  In95  1  -0.00551793  0.33367330  0.74704534  1
  In  In96  1  0.16920630  0.16581072  0.24786075  1
  In  In97  1  0.16439303  0.49767076  0.75244022  1
  In  In98  1  0.16646193  0.50170666  0.25079590  1
  In  In99  1  0.83150197  0.16598330  0.24947507  1
  In  In100  1  0.33786144  0.33612936  0.75439748  1
  In  In101  1  0.16487262  0.49782985  0.49842678  1
  In  In102  1  0.66733438  -0.00551328  0.24896875  1
  In  In103  1  0.66825007  0.33563116  0.75387344  1
  In  In104  1  0.83484841  0.83270224  0.00177920  1
  In  In105  1  -0.00022154  0.00380292  0.00635845  1
  In  In106  1  0.50174066  0.83182080  0.50170595  1
  In  In107  1  0.50072517  0.50266436  0.75331098  1
  Ir  Ir108  1  -0.00328723  0.66875737  0.00068588  1
  Ir  Ir109  1  0.66371376  0.66495233  0.49872983  1
  Ir  Ir110  1  0.16390226  0.82721538  0.75224657  1
  Ir  Ir111  1  0.49813099  0.83359663  0.00330700  1
  Ir  Ir112  1  0.33507877  -0.00156579  0.24674119  1
  Ir  Ir113  1  -0.00122254  -0.00394367  0.49399331  1
  Ir  Ir114  1  -0.00401022  0.32978489  0.00339630  1
  Ir  Ir115  1  0.82831344  0.16832517  -0.00100688  1
  Ir  Ir116  1  0.83464694  0.49945706  0.50068465  1
  Ir  Ir117  1  0.83266954  0.50293955  0.75015338  1
  Ir  Ir118  1  0.83614353  0.83004738  0.24737071  1
  Ir  Ir119  1  -0.00320953  -0.00571120  0.24958304  1
  Ir  Ir120  1  0.66860738  0.00331377  -0.00060157  1
  Ir  Ir121  1  -0.00184207  0.33514671  0.24965115  1
  Ir  Ir122  1  0.50049746  0.50565666  0.24841584  1
  Ir  Ir123  1  0.66940228  0.66964516  0.24978213  1
  Ir  Ir124  1  0.49897077  0.50053113  0.00529654  1
  Ir  Ir125  1  0.33753343  0.67144855  0.24748463  1
  Ir  Ir126  1  -0.00242406  0.66637750  0.75133369  1
  Ir  Ir127  1  -0.00384835  0.66960640  0.24919768  1
  Ir  Ir128  1  -0.00277490  0.66385097  0.50271648  1
  Ir  Ir129  1  0.83582429  0.50474652  0.25332235  1
  Ir  Ir130  1  0.66680679  0.66579595  0.74881359  1
  Ir  Ir131  1  0.34132721  0.33565820  0.49927513  1
  Ir  Ir132  1  0.34088730  0.33393247  0.00249546  1
  Ir  Ir133  1  0.66442759  0.33413373  0.50135906  1
  Ir  Ir134  1  0.17169421  0.83382270  0.24576691  1
  Ir  Ir135  1  0.66679442  0.33227518  0.00160095  1
  Ir  Ir136  1  0.50114901  0.17129786  0.00500438  1
  Ir  Ir137  1  0.49655742  0.16396270  0.24915799  1
  Ir  Ir138  1  0.33485925  0.66878884  0.00273187  1
  Ir  Ir139  1  0.49998121  0.83207912  0.24916147  1
  Ir  Ir140  1  0.50446458  0.50275438  0.49818804  1
  Ir  Ir141  1  -0.00629889  0.33597902  0.49789722  1
  Ir  Ir142  1  0.66679305  -0.00269334  0.49318430  1
  Ir  Ir143  1  0.66728336  0.66806369  0.00200643  1
  O  O144  1  0.32094959  0.32430565  0.12084974  1
  O  O145  1  0.32227645  0.33205911  0.61785341  1
  O  O146  1  0.31408234  0.65872895  0.12422749  1
  O  O147  1  0.32236417  0.63549724  0.62553375  1
  O  O148  1  0.30666372  0.98590665  0.12729691  1
  O  O149  1  0.29528936  0.98550324  0.62419826  1
  O  O150  1  0.63299561  0.33131803  0.12004935  1
  O  O151  1  0.63520201  0.32588542  0.62045194  1
  O  O152  1  0.64798916  0.66745534  0.12639940  1
  O  O153  1  0.63359647  0.66466771  0.62244517  1
  O  O154  1  0.64797457  0.99734180  0.11912009  1
  O  O155  1  0.64385230  0.98285666  0.61241838  1
  O  O156  1  0.97528292  0.32115949  0.12602444  1
  O  O157  1  0.96128060  0.32939239  0.61640041  1
  O  O158  1  0.96424453  0.67020301  0.12417247  1
  O  O159  1  0.97432157  0.65220286  0.62745624  1
  O  O160  1  0.96149957  0.98435170  0.13399108  1
  O  O161  1  0.97846095  0.98802951  0.61381432  1
  O  O162  1  0.20203904  0.16069589  0.12561120  1
  O  O163  1  0.19784395  0.15456207  0.61816184  1
  O  O164  1  0.19651800  0.50359558  0.12569496  1
  O  O165  1  0.19066152  0.49765693  0.62485247  1
  O  O166  1  0.20125075  0.83082109  0.12791272  1
  O  O167  1  0.19192682  0.82477571  0.63474724  1
  O  O168  1  0.51930734  0.16180659  0.12823239  1
  O  O169  1  0.54638805  0.16065285  0.62279646  1
  O  O170  1  0.52150258  0.49563368  0.12639296  1
  O  O171  1  0.51883945  0.49636223  0.61800153  1
  O  O172  1  0.51949016  0.83672338  0.12812809  1
  O  O173  1  0.54005624  0.81945331  0.62341638  1
  O  O174  1  0.86386192  0.15391918  0.11875787  1
  O  O175  1  0.84606954  0.15987467  0.62151309  1
  O  O176  1  0.84999538  0.51078274  0.13247131  1
  O  O177  1  0.86301004  0.49345388  0.62504415  1
  O  O178  1  0.86758127  0.81864985  0.12868711  1
  O  O179  1  0.86465143  0.83113109  0.62130181  1
  O  O180  1  0.14994660  0.17421199  0.37093770  1
  O  O181  1  0.13171743  0.16985795  0.87809122  1
  O  O182  1  0.13388971  0.50012212  0.37459361  1
  O  O183  1  0.14717457  0.51100334  0.88106180  1
  O  O184  1  0.15193439  0.83125200  0.36595245  1
  O  O185  1  0.14186661  0.82966096  0.87082764  1
  O  O186  1  0.46828492  0.16826488  0.36792148  1
  O  O187  1  0.48253789  0.18302587  0.88639847  1
  O  O188  1  0.48375932  0.51371084  0.37234538  1
  O  O189  1  0.48353381  0.49990819  0.88614334  1
  O  O190  1  0.48462429  0.83452426  0.36873807  1
  O  O191  1  0.46879438  0.83678769  0.88228425  1
  O  O192  1  0.79720361  0.16677709  0.37462806  1
  O  O193  1  0.79360153  0.18338278  0.88219155  1
  O  O194  1  0.81429972  0.49925390  0.37670244  1
  O  O195  1  0.81591561  0.51197694  0.87176101  1
  O  O196  1  0.80087267  0.84026996  0.36673563  1
  O  O197  1  0.81484969  0.84581297  0.87555733  1
  O  O198  1  0.02207242  -0.00167877  0.37053140  1
  O  O199  1  0.01926446  0.02231694  0.87973484  1
  O  O200  1  0.01981978  0.35052367  0.37399219  1
  O  O201  1  0.01143301  0.33118986  0.88485774  1
  O  O202  1  0.02109046  0.66364979  0.37837002  1
  O  O203  1  0.02915138  0.66918693  0.87574130  1
  O  O204  1  0.36640317  0.01196881  0.36458670  1
  O  O205  1  0.37256108  0.00251263  0.87353424  1
  O  O206  1  0.36025102  0.33674994  0.38064894  1
  O  O207  1  0.37299880  0.33688270  0.88486102  1
  O  O208  1  0.36867932  0.67239265  0.36646774  1
  O  O209  1  0.35561689  0.68086127  0.88419548  1
  O  O210  1  0.70087317  0.00948582  0.37575286  1
  O  O211  1  0.70105415  0.01014001  0.88078335  1
  O  O212  1  0.67831580  0.33734493  0.38115882  1
  O  O213  1  0.70047617  0.33772545  0.88360921  1
  O  O214  1  0.68988406  0.67745504  0.37334028  1
  O  O215  1  0.69748074  0.66811198  0.87467817  1
  O  O216  1  0.06952599  0.09528879  0.04261229  1
  O  O217  1  0.07645139  0.07910925  0.51530329  1
  O  O218  1  0.06861202  0.41834606  0.02031150  1
  O  O219  1  0.05977566  0.42797644  0.52251577  1
  O  O220  1  0.06242049  0.76334080  0.02522305  1
  O  O221  1  0.06272150  0.75847916  0.52620443  1
  O  O222  1  0.40596469  0.10492139  0.02398732  1
  O  O223  1  0.40226633  0.10452751  0.52540362  1
  O  O224  1  0.40673492  0.43025802  0.03295159  1
  O  O225  1  0.40789361  0.43461741  0.52203634  1
  O  O226  1  0.40137019  0.76641001  0.02558360  1
  O  O227  1  0.40684596  0.76196533  0.53663144  1
  O  O228  1  0.73984147  0.09469294  0.02382348  1
  O  O229  1  0.72324874  0.09607762  0.51642898  1
  O  O230  1  0.73506223  0.42305488  0.02124368  1
  O  O231  1  0.74187765  0.42407630  0.52538439  1
  O  O232  1  0.74313462  0.75262852  0.01960074  1
  O  O233  1  0.72768441  0.76237686  0.51576577  1
  O  O234  1  0.08257202  0.25632732  0.02464566  1
  O  O235  1  0.08373273  0.26504874  0.51239685  1
  O  O236  1  0.08663090  0.60043940  0.01481433  1
  O  O237  1  0.08258685  0.59109334  0.52239287  1
  O  O238  1  0.09557705  0.92727723  0.03324535  1
  O  O239  1  0.08699287  0.92226644  0.52413806  1
  O  O240  1  0.43802781  0.26803229  0.02857670  1
  O  O241  1  0.43625698  0.27110376  0.52485805  1
  O  O242  1  0.42302397  0.58961125  0.02961937  1
  O  O243  1  0.44620647  0.60135101  0.51025340  1
  O  O244  1  0.42774918  0.92131636  0.02129983  1
  O  O245  1  0.43509366  0.93251718  0.50067844  1
  O  O246  1  0.76210054  0.26456439  0.02233169  1
  O  O247  1  0.75728388  0.26891130  0.52486278  1
  O  O248  1  0.76005194  0.59945535  0.01639365  1
  O  O249  1  0.76047799  0.59056877  0.51632626  1
  O  O250  1  0.76271563  0.93608803  0.02103375  1
  O  O251  1  0.75612893  0.92719862  0.51269442  1
  O  O252  1  0.24260622  0.06252718  0.25976615  1
  O  O253  1  0.23548423  0.06709609  0.76649314  1
  O  O254  1  0.24502012  0.40945992  0.26297988  1
  O  O255  1  0.24014743  0.40488693  0.76899935  1
  O  O256  1  0.24471191  0.74035719  0.26717002  1
  O  O257  1  0.23088937  0.73681735  0.77780528  1
  O  O258  1  0.56536692  0.06978796  0.27550505  1
  O  O259  1  0.56653101  0.07032011  0.78754835  1
  O  O260  1  0.56894796  0.41202912  0.25819782  1
  O  O261  1  0.56595870  0.40012219  0.76870949  1
  O  O262  1  0.57313583  0.73999267  0.27503106  1
  O  O263  1  0.57438331  0.73151710  0.76330615  1
  O  O264  1  0.90462383  0.06211172  0.27157724  1
  O  O265  1  0.89914008  0.07448742  0.78099146  1
  O  O266  1  0.91177753  0.41578647  0.27514744  1
  O  O267  1  0.89076248  0.40381412  0.76829997  1
  O  O268  1  0.90422373  0.73813354  0.26655227  1
  O  O269  1  0.90251081  0.72910059  0.77431236  1
  O  O270  1  0.27437198  0.23054740  0.26523375  1
  O  O271  1  0.26759719  0.23722075  0.75272884  1
  O  O272  1  0.26716770  0.58151037  0.26180050  1
  O  O273  1  0.25133369  0.58152529  0.77840518  1
  O  O274  1  0.27074629  0.90014743  0.26198800  1
  O  O275  1  0.25975798  0.88933884  0.77230972  1
  O  O276  1  0.59217771  0.22662089  0.27354456  1
  O  O277  1  0.60147548  0.23734876  0.78436630  1
  O  O278  1  0.59123664  0.58322450  0.27420990  1
  O  O279  1  0.60338983  0.57372359  0.76497868  1
  O  O280  1  0.59500138  0.89969413  0.27641929  1
  O  O281  1  0.58183880  0.91340606  0.77671750  1
  O  O282  1  0.92754865  0.24411209  0.26124149  1
  O  O283  1  0.92030779  0.24158441  0.78463537  1
  O  O284  1  0.93194969  0.57221855  0.27358985  1
  O  O285  1  0.92716447  0.57175728  0.76880944  1
  O  O286  1  0.92487659  0.90235102  0.27548232  1
  O  O287  1  0.92302109  0.91110913  0.76605321  1
  O  O288  1  0.27856008  0.23972864  0.48365094  1
  O  O289  1  0.27139686  0.24260115  0.98667792  1
  O  O290  1  0.26266933  0.56925606  0.48333774  1
  O  O291  1  0.26324942  0.58141296  0.98555137  1
  O  O292  1  0.25973823  0.90551368  0.48807712  1
  O  O293  1  0.26914007  0.89519720  0.97708068  1
  O  O294  1  0.60616860  0.23484995  0.47667443  1
  O  O295  1  0.59828766  0.23927353  0.97633501  1
  O  O296  1  0.59541720  0.57332709  0.47590093  1
  O  O297  1  0.59287136  0.57522355  0.98747884  1
  O  O298  1  0.60458878  0.90107736  0.46855565  1
  O  O299  1  0.59029283  0.91220195  0.97554573  1
  O  O300  1  0.92631547  0.24630599  0.47517715  1
  O  O301  1  0.92456702  0.23388568  0.97658144  1
  O  O302  1  0.93232161  0.56449979  0.48139577  1
  O  O303  1  0.92442335  0.57989800  0.98165712  1
  O  O304  1  0.92325891  0.91175101  0.47207421  1
  O  O305  1  0.92349236  0.91344591  0.98356164  1
  O  O306  1  0.24943417  0.08121797  0.46428505  1
  O  O307  1  0.23325939  0.06370159  0.99167936  1
  O  O308  1  0.24858194  0.40272758  0.48721274  1
  O  O309  1  0.25018922  0.40257579  0.98605661  1
  O  O310  1  0.24179036  0.73839389  0.49053715  1
  O  O311  1  0.24113775  0.73360449  0.97641363  1
  O  O312  1  0.57337511  0.06317042  0.46361436  1
  O  O313  1  0.57119585  0.07499858  0.97543341  1
  O  O314  1  0.56747403  0.40251497  0.49037039  1
  O  O315  1  0.56688154  0.39878118  0.98328824  1
  O  O316  1  0.57303466  0.73195467  0.47195345  1
  O  O317  1  0.57688926  0.74660737  0.98627506  1
  O  O318  1  0.90684728  0.06599097  0.47129468  1
  O  O319  1  0.89367341  0.07681122  0.97508072  1
  O  O320  1  0.90463858  0.40927610  0.47861570  1
  O  O321  1  0.90245109  0.39900875  0.98290335  1
  O  O322  1  0.90986951  0.73535497  0.48414827  1
  O  O323  1  0.90338601  0.73119954  0.97770970  1
  O  O324  1  0.08228454  0.25631141  0.22803296  1
  O  O325  1  0.08624896  0.25731895  0.73304184  1
  O  O326  1  0.08497929  0.59930407  0.23532306  1
  O  O327  1  0.08466129  0.59608437  0.73564958  1
  O  O328  1  0.09632755  0.92559053  0.21970050  1
  O  O329  1  0.09633097  0.91949175  0.72360525  1
  O  O330  1  0.43664978  0.26066604  0.22281474  1
  O  O331  1  0.44129078  0.27259573  0.72896087  1
  O  O332  1  0.42662415  0.59661006  0.22774925  1
  O  O333  1  0.44186824  0.60519025  0.73803252  1
  O  O334  1  0.43080722  0.92874030  0.23341237  1
  O  O335  1  0.41653792  0.91919601  0.71509622  1
  O  O336  1  0.75435824  0.25764261  0.23294469  1
  O  O337  1  0.76393950  0.27080872  0.71862788  1
  O  O338  1  0.76593730  0.60102423  0.22951705  1
  O  O339  1  0.76737355  0.60151642  0.74081889  1
  O  O340  1  0.77235970  0.92337944  0.22439746  1
  O  O341  1  0.74847866  0.91869787  0.72681721  1
  O  O342  1  0.06741756  0.08452864  0.22205842  1
  O  O343  1  0.07730277  0.08439314  0.71671212  1
  O  O344  1  0.07006963  0.42170644  0.23383304  1
  O  O345  1  0.06080163  0.43327457  0.72790977  1
  O  O346  1  0.06843012  0.76744172  0.22530293  1
  O  O347  1  0.06189540  0.76359487  0.72671485  1
  O  O348  1  0.39581155  0.10031619  0.22656543  1
  O  O349  1  0.40177829  0.10559543  0.71889872  1
  O  O350  1  0.41079167  0.43429548  0.22300914  1
  O  O351  1  0.40224365  0.43693943  0.72182204  1
  O  O352  1  0.40350909  0.76720674  0.22402437  1
  O  O353  1  0.39827321  0.76360146  0.72416908  1
  O  O354  1  0.74530879  0.08313929  0.22574733  1
  O  O355  1  0.72244679  0.10574373  0.73200871  1
  O  O356  1  0.74611513  0.43099590  0.24041644  1
  O  O357  1  0.74314296  0.43481375  0.73093370  1
  O  O358  1  0.74596856  0.75767181  0.22206529  1
  O  O359  1  0.73029580  0.75880889  0.72349262  1
