# generated using pymatgen
data_BaLaInIrO6
_symmetry_space_group_name_H-M   'P 1'
_cell_length_a   17.54556641
_cell_length_b   17.56514648
_cell_length_c   16.50799221
_cell_angle_alpha   89.93388168
_cell_angle_beta   89.96115818
_cell_angle_gamma   90.11355793
_symmetry_Int_Tables_number   1
_chemical_formula_structural   BaLaInIrO6
_chemical_formula_sum   'Ba36 La36 In36 Ir36 O216'
_cell_volume   5087.59089234
_cell_formula_units_Z   36
loop_
 _symmetry_equiv_pos_site_id
 _symmetry_equiv_pos_as_xyz
  1  'x, y, z'
loop_
 _atom_site_type_symbol
 _atom_site_label
 _atom_site_symmetry_multiplicity
 _atom_site_fract_x
 _atom_site_fract_y
 _atom_site_fract_z
 _atom_site_occupancy
  Ba  Ba0  1  0.49998091  0.65350636  0.37338299  1
  Ba  Ba1  1  1.00289530  0.84829046  0.12275294  1
  Ba  Ba2  1  0.49803019  0.33862468  0.12751089  1
  Ba  Ba3  1  0.33416574  0.49222520  0.87129823  1
  Ba  Ba4  1  0.49741402  0.00782212  0.12528673  1
  Ba  Ba5  1  0.33698798  0.17948949  0.62238014  1
  Ba  Ba6  1  0.66798614  0.49067994  0.37878825  1
  Ba  Ba7  1  0.83310808  0.32264637  0.87384789  1
  Ba  Ba8  1  0.99699482  0.17225179  0.62378643  1
  Ba  Ba9  1  0.32951902  0.50594975  0.62381459  1
  Ba  Ba10  1  0.32933842  0.50537727  0.12296773  1
  Ba  Ba11  1  0.16665294  0.32142600  0.37441101  1
  Ba  Ba12  1  0.33301544  0.83186453  0.87660112  1
  Ba  Ba13  1  0.33327838  0.82460054  0.37680457  1
  Ba  Ba14  1  0.00394970  0.16046708  0.37791663  1
  Ba  Ba15  1  0.49579456  0.66897052  0.62462113  1
  Ba  Ba16  1  1.00430513  0.17415098  0.12559031  1
  Ba  Ba17  1  0.83452018  0.66270335  0.87802853  1
  Ba  Ba18  1  0.82976052  0.34106908  0.12371646  1
  Ba  Ba19  1  0.50113844  0.00408527  0.62699738  1
  Ba  Ba20  1  0.32907852  0.15893022  0.37618863  1
  Ba  Ba21  1  0.83496018  0.98833290  0.87337547  1
  Ba  Ba22  1  0.16661177  0.67575483  0.62742990  1
  Ba  Ba23  1  0.16970836  0.32301143  0.87311723  1
  Ba  Ba24  1  0.66653029  0.82224360  0.87652333  1
  Ba  Ba25  1  0.33273071  0.84071885  0.12846583  1
  Ba  Ba26  1  0.83491920  0.67584860  0.62170446  1
  Ba  Ba27  1  0.67305785  0.84469964  0.12939048  1
  Ba  Ba28  1  0.82899412  0.00819140  0.62318175  1
  Ba  Ba29  1  0.16673990  0.66125146  0.87566199  1
  Ba  Ba30  1  0.66651799  0.17617394  0.12322221  1
  Ba  Ba31  1  0.33564319  0.15977006  0.87277002  1
  Ba  Ba32  1  0.16543891  0.34092800  0.62032450  1
  Ba  Ba33  1  0.83655027  0.65598291  0.37754706  1
  Ba  Ba34  1  0.16739597  0.01284606  0.12511754  1
  Ba  Ba35  1  -0.00564052  0.48857028  0.37600763  1
  La  La36  1  0.83830080  0.31677090  0.37305531  1
  La  La37  1  0.33631810  0.84133781  0.62494825  1
  La  La38  1  0.50981733  0.97898321  0.87996058  1
  La  La39  1  0.67737828  0.84175723  0.62504852  1
  La  La40  1  0.66152699  0.81881286  0.37919533  1
  La  La41  1  0.50274928  0.98561609  0.37242360  1
  La  La42  1  0.66942416  0.51744931  0.62185441  1
  La  La43  1  0.83186982  0.01693466  0.12376894  1
  La  La44  1  0.16128980  0.69005966  0.12604885  1
  La  La45  1  0.49931221  0.32075172  0.87520749  1
  La  La46  1  0.17009895  0.98961006  0.37416812  1
  La  La47  1  -0.00191035  0.81970850  0.37284692  1
  La  La48  1  0.16323069  0.34328505  0.12230569  1
  La  La49  1  0.66355142  0.49816756  0.88362634  1
  La  La50  1  0.66291130  0.15622768  0.37145218  1
  La  La51  1  0.66691257  0.51151422  0.12853975  1
  La  La52  1  0.17458513  0.65274420  0.37671601  1
  La  La53  1  0.67701677  0.18576606  0.62630555  1
  La  La54  1  0.65869161  0.14788976  0.87745966  1
  La  La55  1  -0.00807556  0.82350304  0.87625617  1
  La  La56  1  -0.01000264  0.48344103  0.87012274  1
  La  La57  1  0.16356602  0.01467951  0.62538858  1
  La  La58  1  0.82806213  0.35237849  0.61930627  1
  La  La59  1  0.49893286  0.65420241  0.88179688  1
  La  La60  1  0.83422506  0.68304798  0.13205627  1
  La  La61  1  0.49998258  0.32026683  0.37858636  1
  La  La62  1  1.00536221  0.51615601  0.62375793  1
  La  La63  1  0.49343771  0.34811681  0.62383732  1
  La  La64  1  0.49629341  0.67730761  0.12435355  1
  La  La65  1  0.33635967  0.18346742  0.12436146  1
  La  La66  1  1.00469636  0.84824925  0.62508508  1
  La  La67  1  0.83727413  0.98407639  0.36964671  1
  La  La68  1  0.32791825  0.48307756  0.37543517  1
  La  La69  1  -0.00291761  0.15119455  0.87363872  1
  La  La70  1  0.16688209  0.99452907  0.87825653  1
  La  La71  1  1.01004540  0.51417846  0.12637487  1
  In  In72  1  0.33409660  0.00106599  0.75117754  1
  In  In73  1  0.16279930  0.49965731  0.75197366  1
  In  In74  1  0.49942070  0.16356302  0.25298385  1
  In  In75  1  -0.00290270  0.33299802  0.50041324  1
  In  In76  1  0.66624022  -0.00187877  0.75002472  1
  In  In77  1  0.66572198  0.33550454  0.25267726  1
  In  In78  1  0.16506261  0.49876749  0.25212301  1
  In  In79  1  0.50114704  0.83355764  0.25057637  1
  In  In80  1  0.66801286  0.00168543  0.49617746  1
  In  In81  1  0.66550694  0.33620941  0.74845369  1
  In  In82  1  0.16504007  0.83670952  0.75167744  1
  In  In83  1  0.33106516  0.66720063  0.00180169  1
  In  In84  1  0.50167005  0.83111778  0.50236405  1
  In  In85  1  0.33360629  0.66750481  0.75196496  1
  In  In86  1  0.00068766  0.66711585  -0.00060230  1
  In  In87  1  -0.00000866  0.00074490  0.49692674  1
  In  In88  1  0.33330875  0.00112259  0.50178981  1
  In  In89  1  0.49967387  0.16588586  0.00021257  1
  In  In90  1  0.83701241  0.49986901  0.24751799  1
  In  In91  1  0.83509861  0.50304728  0.00371331  1
  In  In92  1  0.66673625  0.66414030  0.25171054  1
  In  In93  1  0.16370514  0.50190114  -0.00037760  1
  In  In94  1  0.00195675  0.00343296  0.24926742  1
  In  In95  1  0.50145028  0.82683664  0.74724244  1
  In  In96  1  -0.00250663  0.33156127  0.74735306  1
  In  In97  1  0.82908542  0.50291110  0.74922254  1
  In  In98  1  0.83236876  0.16760506  0.74998655  1
  In  In99  1  -0.00138668  0.33162747  -0.00032277  1
  In  In100  1  0.50355670  0.16476827  0.74643348  1
  In  In101  1  0.50215946  0.49607668  0.75038511  1
  In  In102  1  0.66707922  0.66453178  0.75224717  1
  In  In103  1  0.83611056  0.83114317  0.49709474  1
  In  In104  1  0.33226247  0.66274734  0.24944275  1
  In  In105  1  0.66624080  0.33549227  -0.00051447  1
  In  In106  1  0.66917109  0.66760287  0.00656659  1
  In  In107  1  0.33417731  0.00276459  0.00103451  1
  Ir  Ir108  1  0.66519925  0.66414005  0.49960703  1
  Ir  Ir109  1  0.16017987  0.84069050  0.00093427  1
  Ir  Ir110  1  -0.00198516  0.67199075  0.74642024  1
  Ir  Ir111  1  0.83718926  0.83772874  0.00217433  1
  Ir  Ir112  1  0.83279167  0.49868989  0.49984009  1
  Ir  Ir113  1  0.00300853  0.67203011  0.25242207  1
  Ir  Ir114  1  0.00256127  -0.00106346  0.74840969  1
  Ir  Ir115  1  0.49637194  0.49481309  0.25088031  1
  Ir  Ir116  1  -0.00271295  0.32877830  0.24963526  1
  Ir  Ir117  1  0.66521105  0.33272073  0.49835304  1
  Ir  Ir118  1  0.49892012  0.49651886  0.49460801  1
  Ir  Ir119  1  0.49971608  0.49527894  0.00541560  1
  Ir  Ir120  1  0.16822435  0.16586991  0.50083290  1
  Ir  Ir121  1  0.16554623  0.83201270  0.49896191  1
  Ir  Ir122  1  0.83173835  0.16534752  0.25051701  1
  Ir  Ir123  1  0.33096739  0.66335100  0.49800935  1
  Ir  Ir124  1  0.33214504  0.33298673  -0.00066950  1
  Ir  Ir125  1  0.50546605  0.16810389  0.49784677  1
  Ir  Ir126  1  0.33376424  0.33224066  0.74677320  1
  Ir  Ir127  1  0.33126705  0.00126098  0.25255059  1
  Ir  Ir128  1  0.50179316  0.83113980  0.00366804  1
  Ir  Ir129  1  0.83306415  0.16134521  -0.00076166  1
  Ir  Ir130  1  0.16706283  0.16865102  -0.00192334  1
  Ir  Ir131  1  0.33661216  0.33477755  0.49930271  1
  Ir  Ir132  1  0.83936268  0.83358628  0.74986695  1
  Ir  Ir133  1  0.16350526  0.83539562  0.25430848  1
  Ir  Ir134  1  0.33276093  0.33286501  0.25026608  1
  Ir  Ir135  1  0.00524130  0.66761473  0.49853451  1
  Ir  Ir136  1  0.16482514  0.16647982  0.74989846  1
  Ir  Ir137  1  0.16531255  0.50196545  0.49841083  1
  Ir  Ir138  1  0.67471327  0.00181837  0.25083371  1
  Ir  Ir139  1  0.17165868  0.16888158  0.24825721  1
  Ir  Ir140  1  0.83582292  0.83631986  0.24913623  1
  Ir  Ir141  1  0.82565105  0.16821345  0.49501754  1
  Ir  Ir142  1  -0.00013036  0.00385529  -0.00408597  1
  Ir  Ir143  1  0.66993447  -0.00257289  0.00539898  1
  O  O144  1  0.30350685  0.32645323  0.12557147  1
  O  O145  1  0.31230062  0.33523341  0.62348402  1
  O  O146  1  0.29582469  0.66496904  0.12624652  1
  O  O147  1  0.31476977  0.65973204  0.61559269  1
  O  O148  1  0.31399151  0.99515397  0.13328096  1
  O  O149  1  0.29579289  0.98634554  0.62446095  1
  O  O150  1  0.64790631  0.32861976  0.12635797  1
  O  O151  1  0.62990079  0.32072717  0.61451741  1
  O  O152  1  0.63086447  0.65789524  0.12828001  1
  O  O153  1  0.64676639  0.66452178  0.61849601  1
  O  O154  1  0.64811210  0.99791974  0.12922601  1
  O  O155  1  0.65254701  0.97992973  0.62235078  1
  O  O156  1  0.97913358  0.32464722  0.13225496  1
  O  O157  1  0.96320782  0.32535077  0.62238053  1
  O  O158  1  0.97091590  0.66447476  0.13300163  1
  O  O159  1  0.98086697  0.65435975  0.62225788  1
  O  O160  1  0.97185673  1.00373054  0.11903976  1
  O  O161  1  0.97814307  0.98949190  0.62619524  1
  O  O162  1  0.19941596  0.16721938  0.12306070  1
  O  O163  1  0.18988456  0.15253256  0.62602221  1
  O  O164  1  0.18128719  0.48276865  0.12900702  1
  O  O165  1  0.17930904  0.50316876  0.61705970  1
  O  O166  1  0.18466020  0.82759718  0.12871578  1
  O  O167  1  0.19724514  0.83034795  0.61658748  1
  O  O168  1  0.51653078  0.16924882  0.12767641  1
  O  O169  1  0.54029312  0.16156540  0.61437701  1
  O  O170  1  0.52863762  0.48879878  0.12970307  1
  O  O171  1  0.52811513  0.48673115  0.61511917  1
  O  O172  1  0.52390865  0.82597860  0.12281716  1
  O  O173  1  0.54520603  0.82701420  0.62221009  1
  O  O174  1  0.85731918  0.15355925  0.12634668  1
  O  O175  1  0.84507274  0.16163496  0.61354768  1
  O  O176  1  0.87870042  0.49537343  0.12776256  1
  O  O177  1  0.86626939  0.49197263  0.61682228  1
  O  O178  1  0.85846696  0.82716816  0.12499479  1
  O  O179  1  0.86533842  0.83602217  0.62810476  1
  O  O180  1  0.15037724  0.16793566  0.37462543  1
  O  O181  1  0.13423603  0.16995228  0.87304068  1
  O  O182  1  0.14327281  0.50823761  0.37894256  1
  O  O183  1  0.12565187  0.50049814  0.87648495  1
  O  O184  1  0.13260397  0.84339176  0.37709923  1
  O  O185  1  0.12786980  0.84888458  0.88210634  1
  O  O186  1  0.47729924  0.17942680  0.38108594  1
  O  O187  1  0.48288718  0.18471128  0.87360230  1
  O  O188  1  0.46438688  0.50008003  0.37197081  1
  O  O189  1  0.48915468  0.51230114  0.88522547  1
  O  O190  1  0.48103641  0.84732482  0.37587061  1
  O  O191  1  0.48401895  0.83695645  0.88419000  1
  O  O192  1  0.79886884  0.17710287  0.37214048  1
  O  O193  1  0.79931608  0.16022508  0.88128628  1
  O  O194  1  0.81867736  0.50264128  0.37882285  1
  O  O195  1  0.79716625  0.51020440  0.87603607  1
  O  O196  1  0.80214655  0.84245042  0.36722031  1
  O  O197  1  0.81757421  0.83230187  0.87693270  1
  O  O198  1  0.03379710  0.00535970  0.37442677  1
  O  O199  1  0.02976589  0.00914885  0.87206003  1
  O  O200  1  0.01425990  0.32909482  0.36982604  1
  O  O201  1  0.02185447  0.34640712  0.87352107  1
  O  O202  1  0.03768221  0.68167517  0.37624812  1
  O  O203  1  0.01673604  0.68744567  0.86720552  1
  O  O204  1  0.36149208  0.00283581  0.37228423  1
  O  O205  1  0.37247998  0.00196082  0.87787710  1
  O  O206  1  0.36344003  0.34091958  0.37476717  1
  O  O207  1  0.36214443  0.33184019  0.87344844  1
  O  O208  1  0.34864174  0.66855084  0.37957089  1
  O  O209  1  0.36739780  0.67750223  0.88022169  1
  O  O210  1  0.70547180  0.01552596  0.36789859  1
  O  O211  1  0.68752395  0.00386830  0.88539067  1
  O  O212  1  0.70121260  0.33708026  0.38156028  1
  O  O213  1  0.68557108  0.36113585  0.87345545  1
  O  O214  1  0.68724960  0.66670521  0.38074978  1
  O  O215  1  0.68123384  0.65163742  0.88152363  1
  O  O216  1  0.06711883  0.10279964  0.00536963  1
  O  O217  1  0.08218834  0.09008119  0.52143888  1
  O  O218  1  0.06932211  0.42699410  0.03269244  1
  O  O219  1  0.07009396  0.43431590  0.51894984  1
  O  O220  1  0.07681057  0.76373234  0.01716762  1
  O  O221  1  0.06876212  0.76637928  0.52197561  1
  O  O222  1  0.39906467  0.10086663  0.02728996  1
  O  O223  1  0.41652525  0.09670290  0.51591114  1
  O  O224  1  0.40073421  0.42906145  0.01267299  1
  O  O225  1  0.40874702  0.42506644  0.51723323  1
  O  O226  1  0.41655634  0.75659671  0.02850784  1
  O  O227  1  0.39841721  0.75630250  0.52066470  1
  O  O228  1  0.74446597  0.08625225  0.02729756  1
  O  O229  1  0.72762818  0.10898185  0.51301350  1
  O  O230  1  0.72968070  0.43916262  0.02526712  1
  O  O231  1  0.73531488  0.42885854  0.52682012  1
  O  O232  1  0.74961553  0.76420568  0.02025420  1
  O  O233  1  0.73292509  0.76065615  0.51467073  1
  O  O234  1  0.10342711  0.26242535  0.02232113  1
  O  O235  1  0.09201778  0.25262709  0.51286621  1
  O  O236  1  0.09542986  0.60088268  0.03749400  1
  O  O237  1  0.09585726  0.59497544  0.51704595  1
  O  O238  1  0.09215488  0.93713610  0.01483493  1
  O  O239  1  0.09747902  0.92241983  0.52629110  1
  O  O240  1  0.42069213  0.26420364  0.01562209  1
  O  O241  1  0.43749953  0.26736564  0.52025810  1
  O  O242  1  0.43956957  0.59421672  0.02491350  1
  O  O243  1  0.42496153  0.59153187  0.51424724  1
  O  O244  1  0.43017474  0.92065143  0.01669728  1
  O  O245  1  0.41724818  0.91734756  0.52598521  1
  O  O246  1  0.76445158  0.24986860  0.01413169  1
  O  O247  1  0.76076062  0.26706969  0.52425668  1
  O  O248  1  0.76662105  0.60077413  0.04122802  1
  O  O249  1  0.75588181  0.58782756  0.52316495  1
  O  O250  1  0.76870522  0.93191702  0.02660794  1
  O  O251  1  0.76191961  0.92411793  0.50888752  1
  O  O252  1  0.23523135  0.06862427  0.27387706  1
  O  O253  1  0.22931946  0.07518965  0.77201163  1
  O  O254  1  0.24497331  0.40387222  0.26917803  1
  O  O255  1  0.24403724  0.40229964  0.76127170  1
  O  O256  1  0.22737741  0.73903969  0.27098444  1
  O  O257  1  0.23997498  0.74668991  0.76773838  1
  O  O258  1  0.57800103  0.06700395  0.27827184  1
  O  O259  1  0.57068685  0.06737739  0.78528252  1
  O  O260  1  0.55913847  0.40166870  0.27824784  1
  O  O261  1  0.55504803  0.38734204  0.76220196  1
  O  O262  1  0.58659822  0.74996096  0.27647013  1
  O  O263  1  0.56531125  0.72523799  0.77763210  1
  O  O264  1  0.89702866  0.06990965  0.26931536  1
  O  O265  1  0.91440575  0.07119847  0.76740283  1
  O  O266  1  0.90283733  0.39255598  0.27239434  1
  O  O267  1  0.90524250  0.41238945  0.76822975  1
  O  O268  1  0.91099332  0.74659186  0.27688652  1
  O  O269  1  0.90854590  0.74372854  0.76671669  1
  O  O270  1  0.26599463  0.23636705  0.25890496  1
  O  O271  1  0.25851098  0.23615628  0.76472406  1
  O  O272  1  0.26117915  0.56927918  0.28170428  1
  O  O273  1  0.25389943  0.57636114  0.76491492  1
  O  O274  1  0.25364799  0.91112139  0.27879777  1
  O  O275  1  0.24548482  0.92136921  0.78406588  1
  O  O276  1  0.59270131  0.24043927  0.28223091  1
  O  O277  1  0.61121109  0.22596720  0.76644932  1
  O  O278  1  0.58914695  0.56147033  0.26391960  1
  O  O279  1  0.60831072  0.55265998  0.75980961  1
  O  O280  1  0.60614544  0.91193844  0.27792332  1
  O  O281  1  0.58900722  0.90727950  0.77395916  1
  O  O282  1  0.92414923  0.23549578  0.27263137  1
  O  O283  1  0.93140064  0.23055385  0.77694888  1
  O  O284  1  0.93523636  0.58205884  0.26854973  1
  O  O285  1  0.93392071  0.57670100  0.76613696  1
  O  O286  1  0.92605972  0.90632791  0.27788658  1
  O  O287  1  0.93929437  0.90001717  0.77017844  1
  O  O288  1  0.26077283  0.24610660  0.48343256  1
  O  O289  1  0.26692014  0.23337473  0.99066769  1
  O  O290  1  0.25999538  0.57059457  0.47043005  1
  O  O291  1  0.25870116  0.57378369  0.97913124  1
  O  O292  1  0.24788871  0.90656330  0.47367449  1
  O  O293  1  0.24607752  0.91554013  0.98266870  1
  O  O294  1  0.59991232  0.23754675  0.46948733  1
  O  O295  1  0.59778414  0.23760803  0.97001513  1
  O  O296  1  0.59476199  0.56749481  0.48744610  1
  O  O297  1  0.59646985  0.55693248  0.99579421  1
  O  O298  1  0.59364075  0.91114373  0.46379482  1
  O  O299  1  0.59293610  0.90823751  0.98098086  1
  O  O300  1  0.91334145  0.23907148  0.47585863  1
  O  O301  1  0.92673856  0.22712486  0.97574174  1
  O  O302  1  0.93304357  0.57157513  0.48607441  1
  O  O303  1  0.93722851  0.56905676  0.97196633  1
  O  O304  1  0.93123084  0.90374906  0.46832943  1
  O  O305  1  0.93381455  0.90663680  0.97680376  1
  O  O306  1  0.23376342  0.07147296  0.48150000  1
  O  O307  1  0.23106842  0.07507179  0.97484914  1
  O  O308  1  0.24386195  0.41315373  0.47350852  1
  O  O309  1  0.24079186  0.39939183  0.98961886  1
  O  O310  1  0.23311960  0.73287434  0.47483772  1
  O  O311  1  0.23290898  0.75270135  0.98968294  1
  O  O312  1  0.56956602  0.07641117  0.46461734  1
  O  O313  1  0.57658081  0.06624933  0.97962929  1
  O  O314  1  0.56588883  0.39837749  0.47360005  1
  O  O315  1  0.55817335  0.40115577  0.97830157  1
  O  O316  1  0.58113313  0.73855333  0.47394076  1
  O  O317  1  0.56662724  0.73511903  0.98548340  1
  O  O318  1  0.89138466  0.07257780  0.47232060  1
  O  O319  1  0.90772306  0.07219768  0.97671854  1
  O  O320  1  0.89335452  0.40130019  0.47922156  1
  O  O321  1  0.90622919  0.40734954  0.97669765  1
  O  O322  1  0.91768550  0.74080759  0.47782684  1
  O  O323  1  0.90895871  0.74880637  0.98763352  1
  O  O324  1  0.10180215  0.26616089  0.22714154  1
  O  O325  1  0.09576171  0.25394533  0.72987122  1
  O  O326  1  0.09468511  0.60343548  0.22775606  1
  O  O327  1  0.08335480  0.60045424  0.73315904  1
  O  O328  1  0.09690678  0.92679168  0.23770346  1
  O  O329  1  0.09101872  0.93041167  0.71787764  1
  O  O330  1  0.41902112  0.25959135  0.23658448  1
  O  O331  1  0.43048566  0.26812486  0.72701874  1
  O  O332  1  0.43384252  0.58858325  0.22373202  1
  O  O333  1  0.43191498  0.59166510  0.74822406  1
  O  O334  1  0.42525946  0.93353430  0.24057431  1
  O  O335  1  0.41704710  0.91501782  0.72505904  1
  O  O336  1  0.76504043  0.25690721  0.23959813  1
  O  O337  1  0.76588790  0.26747798  0.71773267  1
  O  O338  1  0.76400993  0.59675450  0.22393488  1
  O  O339  1  0.75785366  0.59317298  0.71800583  1
  O  O340  1  0.77405729  0.93721723  0.22839368  1
  O  O341  1  0.76414761  0.91857913  0.73410886  1
  O  O342  1  0.08106534  0.09955323  0.23579408  1
  O  O343  1  0.07362354  0.09282594  0.72925902  1
  O  O344  1  0.06302530  0.42332164  0.22992758  1
  O  O345  1  0.06606291  0.43260002  0.72059993  1
  O  O346  1  0.07218564  0.76445029  0.23170039  1
  O  O347  1  0.06145410  0.76895569  0.72596703  1
  O  O348  1  0.39656500  0.09399044  0.23100783  1
  O  O349  1  0.40798036  0.09391154  0.72607142  1
  O  O350  1  0.39802359  0.43004076  0.23897045  1
  O  O351  1  0.40352737  0.42039097  0.72929312  1
  O  O352  1  0.41514292  0.74914594  0.23042054  1
  O  O353  1  0.40198708  0.76226582  0.71686590  1
  O  O354  1  0.74197260  0.09485943  0.22682544  1
  O  O355  1  0.73359291  0.09868326  0.73005259  1
  O  O356  1  0.73416150  0.43440431  0.22816218  1
  O  O357  1  0.73640910  0.42801258  0.70706930  1
  O  O358  1  0.75272008  0.75821676  0.23045018  1
  O  O359  1  0.74250918  0.76750729  0.72916038  1
