# generated using pymatgen
data_BaLaInIrO6
_symmetry_space_group_name_H-M   'P 1'
_cell_length_a   17.50073854
_cell_length_b   17.53061180
_cell_length_c   16.48453237
_cell_angle_alpha   89.97877439
_cell_angle_beta   90.00109147
_cell_angle_gamma   90.03123661
_symmetry_Int_Tables_number   1
_chemical_formula_structural   BaLaInIrO6
_chemical_formula_sum   'Ba36 La36 In36 Ir36 O216'
_cell_volume   5057.43123731
_cell_formula_units_Z   36
loop_
 _symmetry_equiv_pos_site_id
 _symmetry_equiv_pos_as_xyz
  1  'x, y, z'
loop_
 _atom_site_type_symbol
 _atom_site_label
 _atom_site_symmetry_multiplicity
 _atom_site_fract_x
 _atom_site_fract_y
 _atom_site_fract_z
 _atom_site_occupancy
  Ba  Ba0  1  0.33223363  0.82345169  0.87080620  1
  Ba  Ba1  1  0.17010529  0.66148884  0.87912608  1
  Ba  Ba2  1  0.50185947  0.99239380  0.87567424  1
  Ba  Ba3  1  1.00430138  0.84436446  0.62064641  1
  Ba  Ba4  1  0.49801968  0.34321436  0.62609372  1
  Ba  Ba5  1  0.17017949  0.67552792  0.12238898  1
  Ba  Ba6  1  1.00197540  0.83908352  0.12338077  1
  Ba  Ba7  1  0.00029148  0.15636772  0.37242086  1
  Ba  Ba8  1  0.49626122  0.34010960  0.12478036  1
  Ba  Ba9  1  0.16524102  0.34008384  0.13087772  1
  Ba  Ba10  1  0.49810116  0.01350092  0.12758791  1
  Ba  Ba11  1  0.16892835  0.99638385  0.87108145  1
  Ba  Ba12  1  0.00293082  0.16213456  0.87275496  1
  Ba  Ba13  1  0.83206320  0.65934734  0.87962991  1
  Ba  Ba14  1  0.49786722  0.32389427  0.87146172  1
  Ba  Ba15  1  0.16500465  0.34168847  0.62649761  1
  Ba  Ba16  1  0.66736569  0.82631628  0.37546075  1
  Ba  Ba17  1  0.66982104  0.48874722  0.37680699  1
  Ba  Ba18  1  0.83499602  0.99235985  0.86877862  1
  Ba  Ba19  1  1.00244558  0.17358604  0.62505625  1
  Ba  Ba20  1  0.66987795  0.17799716  0.62784873  1
  Ba  Ba21  1  0.67217348  0.84254206  0.12237109  1
  Ba  Ba22  1  0.33167859  0.48476017  0.37616356  1
  Ba  Ba23  1  0.16935158  0.32561702  0.87797078  1
  Ba  Ba24  1  0.33720522  0.17811513  0.12707533  1
  Ba  Ba25  1  0.83564560  0.00603578  0.62061534  1
  Ba  Ba26  1  0.66520767  0.50309292  0.62581336  1
  Ba  Ba27  1  0.83532689  0.67899499  0.12531953  1
  Ba  Ba28  1  0.50263853  0.65762850  0.87730402  1
  Ba  Ba29  1  0.00003499  0.49462202  0.87750492  1
  Ba  Ba30  1  0.33061364  0.49062751  0.87990310  1
  Ba  Ba31  1  0.00007121  0.82089350  0.37571886  1
  Ba  Ba32  1  0.16735729  0.65702897  0.37335548  1
  Ba  Ba33  1  0.33552641  0.50671607  0.62698854  1
  Ba  Ba34  1  0.83268285  0.67197638  0.63184606  1
  Ba  Ba35  1  0.16467851  0.01496247  0.62353524  1
  La  La36  1  0.32831215  0.16267429  0.87748884  1
  La  La37  1  0.83775843  0.31892682  0.38277323  1
  La  La38  1  0.66972054  0.51413761  0.12610344  1
  La  La39  1  0.34071700  0.84548116  0.11443054  1
  La  La40  1  0.67168521  0.84255516  0.62883585  1
  La  La41  1  0.49571519  0.67877787  0.62357570  1
  La  La42  1  0.50269826  0.31943168  0.37810765  1
  La  La43  1  0.66541433  0.18100017  0.12050119  1
  La  La44  1  0.16941545  0.31786868  0.37774034  1
  La  La45  1  0.32691696  0.15607571  0.37288347  1
  La  La46  1  0.33203116  0.50782830  0.12597169  1
  La  La47  1  0.49436570  0.02065905  0.62001161  1
  La  La48  1  0.33404644  0.84974216  0.62027670  1
  La  La49  1  0.83097446  0.66363787  0.36977011  1
  La  La50  1  0.50041729  0.99082402  0.37477462  1
  La  La51  1  0.65995352  0.15381752  0.87511613  1
  La  La52  1  1.00441950  0.17686960  0.12295665  1
  La  La53  1  0.33561189  0.18309841  0.62720456  1
  La  La54  1  0.66054219  0.81692447  0.87374000  1
  La  La55  1  0.50707439  0.64496876  0.37716983  1
  La  La56  1  0.66057310  0.48211305  0.87449816  1
  La  La57  1  0.83801715  0.31833261  0.87116226  1
  La  La58  1  0.84015396  0.98155956  0.37434532  1
  La  La59  1  0.49254720  0.67763527  0.12909219  1
  La  La60  1  0.82417262  0.34372133  0.11867424  1
  La  La61  1  0.83111114  0.34297889  0.62679785  1
  La  La62  1  0.16369227  0.67856698  0.62310392  1
  La  La63  1  -0.00647891  0.49104049  0.37634562  1
  La  La64  1  0.83135653  0.01141443  0.12425073  1
  La  La65  1  0.16281600  0.01524956  0.12472560  1
  La  La66  1  0.16965582  0.98660313  0.37933495  1
  La  La67  1  1.00593615  0.51694988  0.62656545  1
  La  La68  1  0.66131495  0.15615904  0.38118459  1
  La  La69  1  0.32506233  0.81956441  0.37342078  1
  La  La70  1  -0.00084542  0.82026403  0.87227091  1
  La  La71  1  1.00565511  0.51737275  0.12547821  1
  In  In72  1  0.16871031  0.83481075  0.24934860  1
  In  In73  1  0.83322030  0.49963536  0.24905194  1
  In  In74  1  0.33588368  0.00268010  0.74680218  1
  In  In75  1  0.83114585  0.16686269  0.24986808  1
  In  In76  1  0.66387631  0.66780078  0.25202355  1
  In  In77  1  0.00167811  0.66601671  0.49891576  1
  In  In78  1  0.83307558  0.49995856  0.75509479  1
  In  In79  1  0.66481097  -0.00024645  0.49937599  1
  In  In80  1  0.33162343  0.33648738  0.75088107  1
  In  In81  1  0.66576629  0.66367326  0.00106046  1
  In  In82  1  0.83264665  0.16496789  0.49977914  1
  In  In83  1  -0.00413618  0.33519663  0.00188766  1
  In  In84  1  0.83242203  0.16412980  -0.00126524  1
  In  In85  1  0.16695846  0.49702763  0.00329223  1
  In  In86  1  0.33498519  0.66560514  0.49857627  1
  In  In87  1  0.66539911  -0.00219577  0.74954541  1
  In  In88  1  0.83250614  0.83646169  -0.00483354  1
  In  In89  1  0.16658889  0.49819253  0.49844924  1
  In  In90  1  0.00029825  0.66775204  -0.00112297  1
  In  In91  1  0.49905264  0.83363060  0.49767994  1
  In  In92  1  0.49944572  0.49358958  0.24995394  1
  In  In93  1  0.83210401  0.82734325  0.50247046  1
  In  In94  1  0.49939065  0.50409760  0.75133001  1
  In  In95  1  0.49628079  0.83325291  0.25236341  1
  In  In96  1  0.83538533  0.50163138  0.50298515  1
  In  In97  1  -0.00027319  -0.00165273  -0.00157627  1
  In  In98  1  0.50118975  0.83353793  0.74637239  1
  In  In99  1  0.66759818  0.00326953  0.24971135  1
  In  In100  1  -0.00446349  0.33495114  0.25249996  1
  In  In101  1  0.66594743  0.33186316  0.25114808  1
  In  In102  1  0.33474532  0.00359488  -0.00139992  1
  In  In103  1  0.00159273  -0.00051576  0.74707470  1
  In  In104  1  0.33802901  0.66405599  -0.00249806  1
  In  In105  1  0.00075660  0.33647055  0.74940661  1
  In  In106  1  0.17044782  0.83796923  -0.00010028  1
  In  In107  1  0.33102426  0.00006158  0.25081902  1
  Ir  Ir108  1  0.16495492  0.49922434  0.25230549  1
  Ir  Ir109  1  0.50144635  0.16952506  -0.00174087  1
  Ir  Ir110  1  0.16774582  0.16875037  0.00424122  1
  Ir  Ir111  1  0.16680321  0.50570345  0.74852578  1
  Ir  Ir112  1  0.66416086  0.00401105  0.00081321  1
  Ir  Ir113  1  0.16808292  0.83113521  0.74441480  1
  Ir  Ir114  1  0.00119608  0.33375978  0.49919395  1
  Ir  Ir115  1  0.82829725  0.49552604  0.00292900  1
  Ir  Ir116  1  0.33529370  0.32935685  0.49572604  1
  Ir  Ir117  1  0.49464535  0.16991778  0.49856821  1
  Ir  Ir118  1  0.16868355  0.16742420  0.49668402  1
  Ir  Ir119  1  0.32893115  0.66891831  0.74409080  1
  Ir  Ir120  1  -0.00138011  -0.00026151  0.25054078  1
  Ir  Ir121  1  0.83179040  0.82980683  0.74904940  1
  Ir  Ir122  1  0.66642636  0.33323332  -0.00233286  1
  Ir  Ir123  1  0.33441294  0.00558298  0.49961184  1
  Ir  Ir124  1  0.50030789  0.16846500  0.74754172  1
  Ir  Ir125  1  0.33556789  0.66414611  0.24972803  1
  Ir  Ir126  1  0.83809127  0.83523844  0.24933521  1
  Ir  Ir127  1  0.33119369  0.33166576  0.25264510  1
  Ir  Ir128  1  0.16308825  0.16516174  0.25141353  1
  Ir  Ir129  1  0.17086649  0.83723595  0.49928249  1
  Ir  Ir130  1  0.50484556  0.83336013  0.00069997  1
  Ir  Ir131  1  0.66853485  0.33240114  0.50256096  1
  Ir  Ir132  1  0.00429725  0.00072995  0.49304343  1
  Ir  Ir133  1  0.50124806  0.49774660  0.50023895  1
  Ir  Ir134  1  0.66946856  0.33095112  0.75100058  1
  Ir  Ir135  1  0.50514696  0.49538586  0.00266802  1
  Ir  Ir136  1  0.66417049  0.66451360  0.74751009  1
  Ir  Ir137  1  0.17047060  0.16905537  0.74966189  1
  Ir  Ir138  1  0.66251499  0.66326199  0.50357096  1
  Ir  Ir139  1  0.82987413  0.16788101  0.74896886  1
  Ir  Ir140  1  0.49750244  0.16953200  0.25624935  1
  Ir  Ir141  1  0.33541367  0.33116259  0.00521053  1
  Ir  Ir142  1  0.00247057  0.66968407  0.74844506  1
  Ir  Ir143  1  0.00326529  0.66253477  0.25032312  1
  O  O144  1  0.31265715  0.33427254  0.13004836  1
  O  O145  1  0.31574932  0.32366869  0.61764550  1
  O  O146  1  0.31949126  0.64976978  0.13126684  1
  O  O147  1  0.30043125  0.66397736  0.62657146  1
  O  O148  1  0.30065142  0.99489687  0.12511275  1
  O  O149  1  0.31178059  0.99472124  0.61812800  1
  O  O150  1  0.64268196  0.32260207  0.11646327  1
  O  O151  1  0.64474295  0.33157046  0.62756895  1
  O  O152  1  0.62963132  0.65672093  0.12513535  1
  O  O153  1  0.63086802  0.65876955  0.62456603  1
  O  O154  1  0.64523291  0.99673295  0.11893804  1
  O  O155  1  0.62899458  0.98574244  0.62465394  1
  O  O156  1  0.96147497  0.31685297  0.12800735  1
  O  O157  1  0.96975855  0.32940896  0.61955284  1
  O  O158  1  0.98597131  0.66283539  0.13113294  1
  O  O159  1  0.98413457  0.66386242  0.62897096  1
  O  O160  1  0.96726552  0.99827047  0.13340866  1
  O  O161  1  0.98694488  1.00362448  0.61541384  1
  O  O162  1  0.18847004  0.15526545  0.12812150  1
  O  O163  1  0.19903164  0.16915558  0.62361564  1
  O  O164  1  0.19690248  0.49669743  0.13566444  1
  O  O165  1  0.18415649  0.50218728  0.63003249  1
  O  O166  1  0.20498724  0.83530156  0.12894979  1
  O  O167  1  0.19929462  0.82236710  0.62099880  1
  O  O168  1  0.53004671  0.16860777  0.12861797  1
  O  O169  1  0.52356697  0.15946636  0.62206833  1
  O  O170  1  0.53423647  0.49285087  0.12117110  1
  O  O171  1  0.51528601  0.50019696  0.62025490  1
  O  O172  1  0.52320277  0.82159547  0.12134717  1
  O  O173  1  0.53600953  0.81857455  0.62084384  1
  O  O174  1  0.86884054  0.15360283  0.12658899  1
  O  O175  1  0.85129582  0.16983702  0.62897981  1
  O  O176  1  0.86550343  0.48075351  0.12114276  1
  O  O177  1  0.86504721  0.48540056  0.62835529  1
  O  O178  1  0.85030042  0.84256562  0.12924850  1
  O  O179  1  0.85492898  0.82651210  0.63044411  1
  O  O180  1  0.14527845  0.18088633  0.37455687  1
  O  O181  1  0.15099708  0.17094682  0.87640428  1
  O  O182  1  0.13174774  0.49921647  0.37046154  1
  O  O183  1  0.15182396  0.50258165  0.86927271  1
  O  O184  1  0.14844963  0.84452696  0.37979580  1
  O  O185  1  0.13922289  0.83587937  0.86325522  1
  O  O186  1  0.46327538  0.17988718  0.37700830  1
  O  O187  1  0.46898090  0.16842147  0.87193972  1
  O  O188  1  0.48108600  0.50359583  0.38104184  1
  O  O189  1  0.48367131  0.50012053  0.88377182  1
  O  O190  1  0.45671084  0.85069260  0.37621965  1
  O  O191  1  0.48469042  0.83310370  0.87890161  1
  O  O192  1  0.79514508  0.18018815  0.37521078  1
  O  O193  1  0.79822623  0.17463276  0.86947487  1
  O  O194  1  0.82080694  0.52708054  0.37723762  1
  O  O195  1  0.79645165  0.50364504  0.88340065  1
  O  O196  1  0.82068333  0.83528708  0.37041024  1
  O  O197  1  0.79786618  0.83439948  0.86538626  1
  O  O198  1  0.03279344  -0.00068050  0.37122708  1
  O  O199  1  0.01938591  0.00464213  0.87146037  1
  O  O200  1  0.03444368  0.34644894  0.38058962  1
  O  O201  1  0.02018775  0.33781339  0.87583399  1
  O  O202  1  0.01499358  0.65384965  0.36984884  1
  O  O203  1  0.01968875  0.67329317  0.86726054  1
  O  O204  1  0.36448550  0.01682076  0.38075897  1
  O  O205  1  0.35327928  0.02208471  0.87134424  1
  O  O206  1  0.36309056  0.32785147  0.37352219  1
  O  O207  1  0.34689793  0.32710041  0.88391106  1
  O  O208  1  0.36841619  0.67868583  0.36944021  1
  O  O209  1  0.35243261  0.66713237  0.86423372  1
  O  O210  1  0.70292473  0.01771442  0.37328987  1
  O  O211  1  0.68212328  0.01425117  0.88062322  1
  O  O212  1  0.69741472  0.32970019  0.38219716  1
  O  O213  1  0.69920037  0.34070407  0.87413969  1
  O  O214  1  0.69497666  0.66881266  0.38365330  1
  O  O215  1  0.68144942  0.67648561  0.86859382  1
  O  O216  1  0.07476935  0.09927151  0.02753984  1
  O  O217  1  0.07625410  0.09648311  0.51054088  1
  O  O218  1  0.06716646  0.42935364  0.03088594  1
  O  O219  1  0.06355372  0.42889290  0.52377663  1
  O  O220  1  0.07496518  0.76415676  0.00411033  1
  O  O221  1  0.08395777  0.76076363  0.51603998  1
  O  O222  1  0.41177396  0.09899953  0.01614830  1
  O  O223  1  0.39792599  0.10325035  0.52514484  1
  O  O224  1  0.40352957  0.43072806  0.02620653  1
  O  O225  1  0.40570826  0.42494119  0.51671361  1
  O  O226  1  0.41636152  0.75860016  0.02584966  1
  O  O227  1  0.40302812  0.76380764  0.53034446  1
  O  O228  1  0.72598114  0.10154253  0.02064757  1
  O  O229  1  0.73416832  0.09657157  0.51624501  1
  O  O230  1  0.73168639  0.42878189  0.02776758  1
  O  O231  1  0.74423146  0.41878376  0.52072172  1
  O  O232  1  0.74057655  0.75823944  0.00914091  1
  O  O233  1  0.72541895  0.75742759  0.52629419  1
  O  O234  1  0.08979980  0.25168492  0.02500754  1
  O  O235  1  0.09876809  0.26435559  0.51283468  1
  O  O236  1  0.08675993  0.58675153  0.01952688  1
  O  O237  1  0.09840298  0.59668136  0.52663448  1
  O  O238  1  0.10094517  0.93710951  0.02901000  1
  O  O239  1  0.10168419  0.93256196  0.51004487  1
  O  O240  1  0.43023649  0.26071382  0.01459321  1
  O  O241  1  0.42542918  0.25951358  0.52108985  1
  O  O242  1  0.43929368  0.58916460  0.02783640  1
  O  O243  1  0.43955452  0.59770293  0.51585849  1
  O  O244  1  0.42946347  0.91944515  0.02010428  1
  O  O245  1  0.42682687  0.93880748  0.52682903  1
  O  O246  1  0.75778938  0.26479375  0.02204821  1
  O  O247  1  0.76515218  0.27049822  0.52289659  1
  O  O248  1  0.75829279  0.58290230  0.03045265  1
  O  O249  1  0.75424215  0.59633020  0.52187163  1
  O  O250  1  0.76084225  0.94110495  0.01987458  1
  O  O251  1  0.75271326  0.91624687  0.51622700  1
  O  O252  1  0.23271539  0.07473829  0.27716616  1
  O  O253  1  0.24644833  0.08522814  0.76417104  1
  O  O254  1  0.23105919  0.39921538  0.27680600  1
  O  O255  1  0.23639219  0.41402266  0.76322916  1
  O  O256  1  0.25036940  0.73964674  0.27261250  1
  O  O257  1  0.23396615  0.73589242  0.76039306  1
  O  O258  1  0.56681340  0.07971169  0.28370446  1
  O  O259  1  0.57297874  0.08080807  0.76487453  1
  O  O260  1  0.56541205  0.39446573  0.27726616  1
  O  O261  1  0.58466624  0.40762639  0.76906055  1
  O  O262  1  0.56337370  0.73459171  0.27800471  1
  O  O263  1  0.57274014  0.73163360  0.76014170  1
  O  O264  1  0.90164803  0.06172055  0.27637046  1
  O  O265  1  0.90354045  0.08027479  0.76001377  1
  O  O266  1  0.90367876  0.40827039  0.29099487  1
  O  O267  1  0.89999718  0.40176899  0.77651135  1
  O  O268  1  0.90511665  0.73140110  0.27053660  1
  O  O269  1  0.91128398  0.74329002  0.77637701  1
  O  O270  1  0.25861103  0.23666361  0.27822863  1
  O  O271  1  0.26480818  0.23594720  0.76638885  1
  O  O272  1  0.26282110  0.57004846  0.27060556  1
  O  O273  1  0.26068906  0.57505953  0.76850574  1
  O  O274  1  0.25772770  0.91123267  0.29135908  1
  O  O275  1  0.26030772  0.90122271  0.75412598  1
  O  O276  1  0.59283931  0.23296340  0.27864164  1
  O  O277  1  0.59720633  0.23735665  0.77594616  1
  O  O278  1  0.58940724  0.57191109  0.27264845  1
  O  O279  1  0.60047079  0.56999198  0.77383973  1
  O  O280  1  0.58436205  0.91751652  0.27254293  1
  O  O281  1  0.60328555  0.89562512  0.77246777  1
  O  O282  1  0.91607146  0.24730902  0.28371191  1
  O  O283  1  0.91497799  0.24209404  0.76804631  1
  O  O284  1  0.93923911  0.56592011  0.25893578  1
  O  O285  1  0.93210010  0.57805459  0.76067230  1
  O  O286  1  0.93087922  0.90771453  0.27532999  1
  O  O287  1  0.92489962  0.89764845  0.76824757  1
  O  O288  1  0.26701923  0.23312715  0.47551761  1
  O  O289  1  0.26708415  0.23535567  0.98309692  1
  O  O290  1  0.26090533  0.57305954  0.48174903  1
  O  O291  1  0.26574119  0.56740275  0.99838010  1
  O  O292  1  0.27019852  0.90645463  0.47763490  1
  O  O293  1  0.26552640  0.90895240  0.97728784  1
  O  O294  1  0.59138169  0.23853750  0.47265379  1
  O  O295  1  0.60219526  0.23551778  0.97486937  1
  O  O296  1  0.59270692  0.56941480  0.47730301  1
  O  O297  1  0.60145878  0.55839758  0.98049845  1
  O  O298  1  0.58241278  0.91613639  0.46529448  1
  O  O299  1  0.60096062  0.90384598  0.97570530  1
  O  O300  1  0.92840573  0.24540768  0.47723007  1
  O  O301  1  0.91821198  0.24401585  0.97483093  1
  O  O302  1  0.94319133  0.55840795  0.49364609  1
  O  O303  1  0.91892488  0.56591759  0.99145425  1
  O  O304  1  0.92750140  0.91383999  0.48031988  1
  O  O305  1  0.93441072  0.89756614  0.97056139  1
  O  O306  1  0.23891989  0.07407146  0.46873087  1
  O  O307  1  0.24006516  0.08375413  0.98509360  1
  O  O308  1  0.23836031  0.39386861  0.47616730  1
  O  O309  1  0.24473368  0.39962384  0.99421823  1
  O  O310  1  0.24307650  0.75001081  0.47824775  1
  O  O311  1  0.25074896  0.74460162  0.98780021  1
  O  O312  1  0.56107058  0.07723370  0.47375742  1
  O  O313  1  0.57286428  0.07901809  0.97827993  1
  O  O314  1  0.56796282  0.39884740  0.47926955  1
  O  O315  1  0.57649064  0.40463190  0.97376978  1
  O  O316  1  0.56706135  0.72703213  0.47633121  1
  O  O317  1  0.57572044  0.74627268  0.98127719  1
  O  O318  1  0.90789431  0.06655809  0.47227523  1
  O  O319  1  0.89743863  0.06369467  0.99236144  1
  O  O320  1  0.90830310  0.39839384  0.47494126  1
  O  O321  1  0.88804681  0.40145289  0.97810490  1
  O  O322  1  0.89841556  0.72856856  0.47809568  1
  O  O323  1  0.90950377  0.74268880  0.98209669  1
  O  O324  1  0.08744040  0.25166698  0.23317677  1
  O  O325  1  0.09494437  0.25522867  0.73552216  1
  O  O326  1  0.09572111  0.59170510  0.22526904  1
  O  O327  1  0.09572567  0.59970637  0.72153649  1
  O  O328  1  0.09624860  0.93893147  0.22937696  1
  O  O329  1  0.09826468  0.91931388  0.72758021  1
  O  O330  1  0.42815010  0.26509830  0.23831053  1
  O  O331  1  0.42399761  0.25181644  0.73011105  1
  O  O332  1  0.42744917  0.59459862  0.22996406  1
  O  O333  1  0.42659852  0.60549853  0.72512022  1
  O  O334  1  0.41435870  0.91775984  0.21918503  1
  O  O335  1  0.43208665  0.93064506  0.71748582  1
  O  O336  1  0.75719032  0.26082390  0.21283787  1
  O  O337  1  0.76498361  0.26551330  0.72999035  1
  O  O338  1  0.75660317  0.59181427  0.22780753  1
  O  O339  1  0.75348742  0.59356347  0.73694212  1
  O  O340  1  0.77334641  0.93204391  0.23771337  1
  O  O341  1  0.75981646  0.91756262  0.72389694  1
  O  O342  1  0.06761904  0.09496888  0.22194277  1
  O  O343  1  0.08300683  0.09544845  0.73606581  1
  O  O344  1  0.06905645  0.43570258  0.22763883  1
  O  O345  1  0.07137596  0.43932415  0.72739207  1
  O  O346  1  0.07359642  0.75570375  0.24043632  1
  O  O347  1  0.07647235  0.75922480  0.72500444  1
  O  O348  1  0.40654433  0.09900787  0.24111484  1
  O  O349  1  0.41180470  0.09820908  0.71532197  1
  O  O350  1  0.39540212  0.42797671  0.23024533  1
  O  O351  1  0.41133817  0.42416449  0.74175406  1
  O  O352  1  0.40002155  0.75527676  0.21889517  1
  O  O353  1  0.39769761  0.76201106  0.71783616  1
  O  O354  1  0.73548293  0.09744088  0.21290595  1
  O  O355  1  0.74331241  0.09250592  0.73630160  1
  O  O356  1  0.73587600  0.42810177  0.22064332  1
  O  O357  1  0.74123891  0.41768835  0.73193573  1
  O  O358  1  0.74667874  0.76314042  0.23763269  1
  O  O359  1  0.73098911  0.76236752  0.72719187  1
