# generated using pymatgen
data_BaLaInIrO6
_symmetry_space_group_name_H-M   'P 1'
_cell_length_a   17.54061714
_cell_length_b   17.56058920
_cell_length_c   16.48720059
_cell_angle_alpha   89.97082604
_cell_angle_beta   89.99956668
_cell_angle_gamma   89.98696238
_symmetry_Int_Tables_number   1
_chemical_formula_structural   BaLaInIrO6
_chemical_formula_sum   'Ba36 La36 In36 Ir36 O216'
_cell_volume   5078.44562370
_cell_formula_units_Z   36
loop_
 _symmetry_equiv_pos_site_id
 _symmetry_equiv_pos_as_xyz
  1  'x, y, z'
loop_
 _atom_site_type_symbol
 _atom_site_label
 _atom_site_symmetry_multiplicity
 _atom_site_fract_x
 _atom_site_fract_y
 _atom_site_fract_z
 _atom_site_occupancy
  Ba  Ba0  1  0.50145940  0.67767274  0.12752014  1
  Ba  Ba1  1  0.83814552  0.65539452  0.87491273  1
  Ba  Ba2  1  0.66379064  0.49245416  0.87592424  1
  Ba  Ba3  1  0.33629907  0.17366592  0.12704170  1
  Ba  Ba4  1  0.83418226  0.00401137  0.62558084  1
  Ba  Ba5  1  0.83247075  0.32482454  0.37686612  1
  Ba  Ba6  1  0.33962256  0.51483589  0.12564390  1
  Ba  Ba7  1  0.50436474  0.00780430  0.12352316  1
  Ba  Ba8  1  0.33337660  0.15692485  0.37293521  1
  Ba  Ba9  1  0.33408913  0.51264177  0.62295429  1
  Ba  Ba10  1  0.16958842  0.67533904  0.13016544  1
  Ba  Ba11  1  0.33456309  0.83799766  0.62422837  1
  Ba  Ba12  1  0.83215679  0.65266280  0.37467553  1
  Ba  Ba13  1  0.16343547  0.67415498  0.62195695  1
  Ba  Ba14  1  0.49634224  0.33917584  0.12755449  1
  Ba  Ba15  1  0.83347060  0.32630358  0.87542320  1
  Ba  Ba16  1  0.66413208  0.49247892  0.37452999  1
  Ba  Ba17  1  0.49518954  0.34435593  0.62514115  1
  Ba  Ba18  1  0.66713414  0.15979277  0.37430237  1
  Ba  Ba19  1  0.66635827  0.15944015  0.87392070  1
  Ba  Ba20  1  0.67141989  0.83820722  0.62414266  1
  Ba  Ba21  1  0.17035743  0.34128254  0.12389908  1
  Ba  Ba22  1  0.33004981  0.17561262  0.62048748  1
  Ba  Ba23  1  0.83589280  0.67312908  0.62241959  1
  Ba  Ba24  1  0.16683333  0.65969100  0.87244293  1
  Ba  Ba25  1  0.16893331  0.98646793  0.37282402  1
  Ba  Ba26  1  0.16835964  0.34322278  0.62342581  1
  Ba  Ba27  1  0.66900007  0.84139974  0.12636225  1
  Ba  Ba28  1  0.33318406  0.49288838  0.37556931  1
  Ba  Ba29  1  1.00457855  0.50509200  0.62633020  1
  Ba  Ba30  1  -0.00054732  0.82050543  0.87456992  1
  Ba  Ba31  1  -0.00163655  0.49441426  0.87605764  1
  Ba  Ba32  1  1.00324901  0.83544005  0.62415960  1
  Ba  Ba33  1  0.50335631  0.32191619  0.87474447  1
  Ba  Ba34  1  0.66912153  0.82693893  0.87564695  1
  Ba  Ba35  1  0.33194624  0.16219489  0.87302483  1
  La  La36  1  0.49967096  0.67465643  0.62228146  1
  La  La37  1  -0.00443905  0.48381221  0.37606006  1
  La  La38  1  0.82925124  0.35295041  0.62423979  1
  La  La39  1  0.66924731  0.18407912  0.12382665  1
  La  La40  1  0.82729895  0.67859496  0.12162487  1
  La  La41  1  0.66621460  0.18311106  0.62600825  1
  La  La42  1  0.49856288  0.65938553  0.87208660  1
  La  La43  1  0.32906629  0.82013944  0.87830700  1
  La  La44  1  0.17061964  0.01346324  0.12695823  1
  La  La45  1  0.34023169  0.84505669  0.12787098  1
  La  La46  1  0.83977258  0.98229245  0.37551888  1
  La  La47  1  0.33214378  0.48295959  0.87556095  1
  La  La48  1  0.00135536  0.81665265  0.37431157  1
  La  La49  1  0.83810149  0.98230591  0.87453438  1
  La  La50  1  0.16933757  0.32216492  0.37593401  1
  La  La51  1  0.67102043  0.51709992  0.62352346  1
  La  La52  1  0.15586118  0.01256430  0.62397584  1
  La  La53  1  0.66516117  0.81984909  0.37815211  1
  La  La54  1  -0.01161696  0.14911831  0.37825497  1
  La  La55  1  1.00675474  0.84429142  0.12641187  1
  La  La56  1  0.50084423  0.99031838  0.87536282  1
  La  La57  1  0.82561802  0.01609862  0.12372181  1
  La  La58  1  0.16947825  0.32549891  0.87267293  1
  La  La59  1  0.66781075  0.51532872  0.12019083  1
  La  La60  1  1.00605486  0.18578693  0.62009328  1
  La  La61  1  0.16873295  0.98207259  0.87702525  1
  La  La62  1  0.50017664  0.98657624  0.37238181  1
  La  La63  1  1.00248525  0.51520802  0.12824760  1
  La  La64  1  0.49574518  0.01614486  0.62578825  1
  La  La65  1  0.50177779  0.65566419  0.37614231  1
  La  La66  1  0.16976916  0.65305807  0.37698366  1
  La  La67  1  -0.01136498  0.15302574  0.87529529  1
  La  La68  1  0.32776422  0.81478621  0.37317993  1
  La  La69  1  0.82425856  0.35265593  0.12592274  1
  La  La70  1  0.50390806  0.31492183  0.37665724  1
  La  La71  1  1.00544364  0.18450571  0.12827765  1
  In  In72  1  0.49945542  0.50117522  0.00068388  1
  In  In73  1  0.66471991  0.33636628  0.50102684  1
  In  In74  1  0.33403980  0.00054285  -0.00118115  1
  In  In75  1  0.00123906  0.66549945  0.74909704  1
  In  In76  1  0.33334210  0.33358085  0.25407029  1
  In  In77  1  0.16035813  0.16448242  -0.00315522  1
  In  In78  1  0.83464696  0.16681144  0.74621668  1
  In  In79  1  0.66572711  0.66998734  -0.00354373  1
  In  In80  1  0.33042001  -0.00333655  0.50085328  1
  In  In81  1  0.83469714  0.16876089  0.24879445  1
  In  In82  1  0.66653066  0.00158263  0.74884676  1
  In  In83  1  0.33335425  0.33134724  0.74749630  1
  In  In84  1  0.50190992  0.83560236  0.74944783  1
  In  In85  1  0.66577482  0.33832174  0.24972911  1
  In  In86  1  0.00132917  0.66873060  0.00575288  1
  In  In87  1  0.49807963  0.50189955  0.74750595  1
  In  In88  1  0.67007848  0.00031694  0.25105767  1
  In  In89  1  0.66711705  0.66809516  0.25094341  1
  In  In90  1  0.83471560  0.83159432  0.74733848  1
  In  In91  1  -0.00169426  -0.00287148  0.24898467  1
  In  In92  1  0.66581823  0.33499490  0.74993713  1
  In  In93  1  0.16971818  0.83495472  0.74736708  1
  In  In94  1  0.16517480  0.49870117  0.25079296  1
  In  In95  1  0.33086720  -0.00018077  0.74912685  1
  In  In96  1  0.16318435  0.16609051  0.49696378  1
  In  In97  1  0.66591655  0.00116977  0.49861898  1
  In  In98  1  -0.00183542  0.00029051  0.00438772  1
  In  In99  1  0.16817454  0.49982682  0.75118794  1
  In  In100  1  -0.00029121  0.66350897  0.49474464  1
  In  In101  1  0.16332920  0.16544295  0.25185295  1
  In  In102  1  -0.00177976  0.33229383  0.75411279  1
  In  In103  1  0.16685033  0.50165232  0.00266278  1
  In  In104  1  0.33289944  0.33139444  -0.00031026  1
  In  In105  1  0.83259229  0.16629405  0.50496221  1
  In  In106  1  0.50023689  0.83475504  0.49933815  1
  In  In107  1  0.66922658  0.00171678  -0.00095362  1
  Ir  Ir108  1  0.83925858  0.83394527  0.00632610  1
  Ir  Ir109  1  0.33851990  0.66965185  0.75036697  1
  Ir  Ir110  1  -0.00215912  0.66793477  0.25022235  1
  Ir  Ir111  1  0.49616579  0.83421770  0.25192469  1
  Ir  Ir112  1  0.83499774  0.49592907  0.00390886  1
  Ir  Ir113  1  0.33597726  -0.00594708  0.25061245  1
  Ir  Ir114  1  -0.00625833  0.33333015  0.00757572  1
  Ir  Ir115  1  0.49972588  0.50285542  0.49675415  1
  Ir  Ir116  1  0.17194226  0.83437827  0.00755297  1
  Ir  Ir117  1  0.33691661  0.33544136  0.49572243  1
  Ir  Ir118  1  -0.00328540  0.33506165  0.24895029  1
  Ir  Ir119  1  0.49991993  0.50225658  0.25400588  1
  Ir  Ir120  1  0.49867946  0.16414821  0.49833540  1
  Ir  Ir121  1  0.83360803  0.83260585  0.49187288  1
  Ir  Ir122  1  0.15660864  0.16387586  0.75078699  1
  Ir  Ir123  1  -0.00044492  -0.00429116  0.50150555  1
  Ir  Ir124  1  0.33341068  0.66649707  0.49913086  1
  Ir  Ir125  1  0.83260353  0.49994893  0.49786602  1
  Ir  Ir126  1  0.49521743  0.83426466  0.00152645  1
  Ir  Ir127  1  0.16635577  0.49968913  0.49453421  1
  Ir  Ir128  1  0.84036829  0.83096822  0.25064566  1
  Ir  Ir129  1  0.16679848  0.83335021  0.49286010  1
  Ir  Ir130  1  0.83651207  0.16824952  0.00179127  1
  Ir  Ir131  1  0.50047442  0.16126774  0.25096721  1
  Ir  Ir132  1  0.83803790  0.50081290  0.24851653  1
  Ir  Ir133  1  0.16957614  0.83231882  0.24789349  1
  Ir  Ir134  1  0.66812437  0.33135347  0.00302230  1
  Ir  Ir135  1  0.49969393  0.16321811  0.74926091  1
  Ir  Ir136  1  0.66509940  0.66610409  0.49860253  1
  Ir  Ir137  1  0.33550930  0.67016987  0.25222675  1
  Ir  Ir138  1  0.33690232  0.67259211  0.00028221  1
  Ir  Ir139  1  0.66524329  0.66464239  0.74912751  1
  Ir  Ir140  1  0.50356363  0.16462078  -0.00019942  1
  Ir  Ir141  1  0.00093018  0.33511060  0.49497513  1
  Ir  Ir142  1  0.00289534  0.00262526  0.75027901  1
  Ir  Ir143  1  0.82917594  0.49989952  0.74745694  1
  O  O144  1  0.32265124  0.33101405  0.12755487  1
  O  O145  1  0.31888133  0.33370626  0.61611292  1
  O  O146  1  0.31596975  0.67199938  0.12477655  1
  O  O147  1  0.31178698  0.66724077  0.62673342  1
  O  O148  1  0.30558160  0.98730253  0.12878090  1
  O  O149  1  0.29196022  0.99618467  0.62606922  1
  O  O150  1  0.64879952  0.32835533  0.12255901  1
  O  O151  1  0.64220368  0.32259082  0.62384853  1
  O  O152  1  0.65591712  0.66303226  0.12538689  1
  O  O153  1  0.63660551  0.65970181  0.62353628  1
  O  O154  1  0.65598215  0.99318973  0.12455064  1
  O  O155  1  0.63008581  0.98761775  0.62281734  1
  O  O156  1  0.95895721  0.32125880  0.12986291  1
  O  O157  1  0.96856382  0.32590185  0.61560603  1
  O  O158  1  0.96266321  0.65810723  0.13335369  1
  O  O159  1  0.98650201  0.66622890  0.61893493  1
  O  O160  1  0.96035126  0.97991494  0.12695243  1
  O  O161  1  0.98234976  0.98870892  0.62649475  1
  O  O162  1  0.18520162  0.15362919  0.12522071  1
  O  O163  1  0.17875470  0.15334168  0.62929321  1
  O  O164  1  0.19130139  0.49702648  0.12801954  1
  O  O165  1  0.18588047  0.49706159  0.61412518  1
  O  O166  1  0.20392110  0.83164139  0.12865548  1
  O  O167  1  0.18478279  0.83530661  0.61376336  1
  O  O168  1  0.53242956  0.16040506  0.12437894  1
  O  O169  1  0.52917069  0.15359081  0.62331934  1
  O  O170  1  0.52698900  0.49708300  0.13376842  1
  O  O171  1  0.52828992  0.50488869  0.61539441  1
  O  O172  1  0.52127592  0.82989577  0.12676781  1
  O  O173  1  0.52259053  0.81058208  0.62336313  1
  O  O174  1  0.87047456  0.15472336  0.11975843  1
  O  O175  1  0.87643950  0.15724976  0.62418031  1
  O  O176  1  0.86626332  0.49081741  0.12664546  1
  O  O177  1  0.85463469  0.49508437  0.62251234  1
  O  O178  1  0.87012174  0.81833533  0.13012339  1
  O  O179  1  0.85035141  0.83118541  0.61262989  1
  O  O180  1  0.12415682  0.17484188  0.37470461  1
  O  O181  1  0.12458382  0.17727897  0.86930679  1
  O  O182  1  0.13546508  0.51105541  0.37555049  1
  O  O183  1  0.14756051  0.50734454  0.87845604  1
  O  O184  1  0.13805727  0.83307373  0.36845404  1
  O  O185  1  0.14801195  0.84281830  0.88834117  1
  O  O186  1  0.47881537  0.17739647  0.37489810  1
  O  O187  1  0.47858299  0.16675088  0.87350285  1
  O  O188  1  0.47950278  0.51984598  0.37588000  1
  O  O189  1  0.47197498  0.52365218  0.87400017  1
  O  O190  1  0.46427538  0.84303441  0.37018759  1
  O  O191  1  0.46547062  0.84337831  0.88252885  1
  O  O192  1  0.82014657  0.16977359  0.37735219  1
  O  O193  1  0.81623414  0.17180691  0.88279210  1
  O  O194  1  0.81180731  0.49755994  0.37266486  1
  O  O195  1  0.81036247  0.49776920  0.87436219  1
  O  O196  1  0.80359304  0.84202546  0.36930902  1
  O  O197  1  0.81950084  0.84351947  0.88555070  1
  O  O198  1  0.01974830  0.00672001  0.38118203  1
  O  O199  1  0.03166559  0.01092902  0.87161178  1
  O  O200  1  0.03165076  0.34721543  0.37022005  1
  O  O201  1  0.02691637  0.33782725  0.88910026  1
  O  O202  1  0.03179526  0.67755432  0.36825343  1
  O  O203  1  0.01282983  0.66343361  0.88003746  1
  O  O204  1  0.36381447  -0.00324556  0.37052030  1
  O  O205  1  0.36498920  0.00321405  0.87455944  1
  O  O206  1  0.36952943  0.33601628  0.37885086  1
  O  O207  1  0.35327304  0.33622674  0.87341648  1
  O  O208  1  0.36428585  0.67494830  0.37549576  1
  O  O209  1  0.36556166  0.68266694  0.87586195  1
  O  O210  1  0.70508822  0.00652297  0.37289522  1
  O  O211  1  0.70429397  0.00660694  0.87802326  1
  O  O212  1  0.67966612  0.33044214  0.37488591  1
  O  O213  1  0.68387275  0.32892699  0.88223239  1
  O  O214  1  0.68467925  0.67357824  0.37710647  1
  O  O215  1  0.68752574  0.66297549  0.86955074  1
  O  O216  1  0.06071836  0.09865930  0.02725374  1
  O  O217  1  0.06226798  0.09161978  0.52430624  1
  O  O218  1  0.05715498  0.42513396  0.03284125  1
  O  O219  1  0.07028240  0.43222815  0.50637007  1
  O  O220  1  0.07585677  0.76968406  0.03059346  1
  O  O221  1  0.07508223  0.76644064  0.50182295  1
  O  O222  1  0.41208166  0.09619727  0.01492296  1
  O  O223  1  0.41046544  0.09431133  0.51831648  1
  O  O224  1  0.40164741  0.43420703  0.00388318  1
  O  O225  1  0.40757360  0.43332053  0.51454676  1
  O  O226  1  0.39823706  0.77084862  0.02094558  1
  O  O227  1  0.40466301  0.75413143  0.51174606  1
  O  O228  1  0.74368778  0.10315314  0.02980799  1
  O  O229  1  0.72986685  0.10098163  0.52875568  1
  O  O230  1  0.73537992  0.42787694  0.02827513  1
  O  O231  1  0.73976665  0.43367438  0.52545713  1
  O  O232  1  0.74934303  0.75980200  0.02143285  1
  O  O233  1  0.73419833  0.76429035  0.50487763  1
  O  O234  1  0.07944225  0.26201774  0.02830467  1
  O  O235  1  0.08975481  0.26432250  0.51775748  1
  O  O236  1  0.08534735  0.58803689  0.03370462  1
  O  O237  1  0.10036078  0.59231307  0.50430558  1
  O  O238  1  0.10390365  0.92868466  0.03040879  1
  O  O239  1  0.10064979  0.93118894  0.51869430  1
  O  O240  1  0.43332627  0.25242100  0.01408529  1
  O  O241  1  0.43252740  0.26475682  0.51129782  1
  O  O242  1  0.43022421  0.60976581  0.01142910  1
  O  O243  1  0.43510779  0.60327572  0.51715558  1
  O  O244  1  0.42548024  0.92168409  0.02404682  1
  O  O245  1  0.43351037  0.93364029  0.52403684  1
  O  O246  1  0.76744832  0.26268078  0.03082253  1
  O  O247  1  0.76561219  0.26673365  0.52937169  1
  O  O248  1  0.76578627  0.58737054  0.02732975  1
  O  O249  1  0.75432022  0.58846805  0.52312540  1
  O  O250  1  0.77524775  0.92941431  0.02216041  1
  O  O251  1  0.76540090  0.92289656  0.50682682  1
  O  O252  1  0.24381861  0.06348706  0.26141471  1
  O  O253  1  0.22243489  0.07117648  0.77694700  1
  O  O254  1  0.23310923  0.40298964  0.28120680  1
  O  O255  1  0.23869316  0.40424992  0.77660594  1
  O  O256  1  0.23947379  0.73890752  0.27917707  1
  O  O257  1  0.25138312  0.74162739  0.76970370  1
  O  O258  1  0.56589405  0.06787909  0.27523867  1
  O  O259  1  0.56191107  0.06911913  0.77046716  1
  O  O260  1  0.56276403  0.40651793  0.27460944  1
  O  O261  1  0.57486235  0.41125778  0.76636589  1
  O  O262  1  0.56815613  0.74462895  0.27948776  1
  O  O263  1  0.57287246  0.73308248  0.77259795  1
  O  O264  1  0.90072312  0.06592295  0.27486811  1
  O  O265  1  0.90773953  0.06651870  0.77948615  1
  O  O266  1  0.90577256  0.40640543  0.27079051  1
  O  O267  1  0.89706745  0.40648571  0.75571874  1
  O  O268  1  0.90960443  0.73993861  0.27638408  1
  O  O269  1  0.90767021  0.74198114  0.76245569  1
  O  O270  1  0.24961366  0.24528571  0.27817215  1
  O  O271  1  0.24316236  0.23860329  0.76776410  1
  O  O272  1  0.25763146  0.58636113  0.27316758  1
  O  O273  1  0.27668612  0.57432735  0.77257046  1
  O  O274  1  0.26991221  0.89530805  0.27053753  1
  O  O275  1  0.25998823  0.90543755  0.78627012  1
  O  O276  1  0.58979603  0.23416436  0.25906656  1
  O  O277  1  0.59222801  0.23069010  0.75713670  1
  O  O278  1  0.59064452  0.57270533  0.26370393  1
  O  O279  1  0.59421010  0.57873278  0.76196216  1
  O  O280  1  0.59068748  0.90114414  0.27696280  1
  O  O281  1  0.58663073  0.91390481  0.78412722  1
  O  O282  1  0.93953786  0.23541124  0.27090577  1
  O  O283  1  0.93475445  0.23240039  0.77448302  1
  O  O284  1  0.93594946  0.56758841  0.27376227  1
  O  O285  1  0.91659617  0.56953546  0.76139136  1
  O  O286  1  0.93295031  0.89543425  0.27800383  1
  O  O287  1  0.93231329  0.91500993  0.77072776  1
  O  O288  1  0.25869703  0.25057644  0.47709821  1
  O  O289  1  0.24569287  0.24500622  0.97523168  1
  O  O290  1  0.25559157  0.57804920  0.47535445  1
  O  O291  1  0.27438925  0.57830724  0.97748983  1
  O  O292  1  0.26343881  0.89391194  0.47169323  1
  O  O293  1  0.26433621  0.89818045  0.98148984  1
  O  O294  1  0.58728719  0.23523494  0.48502614  1
  O  O295  1  0.60389841  0.23134878  0.99411733  1
  O  O296  1  0.59262305  0.57535416  0.47831461  1
  O  O297  1  0.59817210  0.57008516  0.99708588  1
  O  O298  1  0.59485441  0.90435227  0.46119165  1
  O  O299  1  0.58335999  0.90692737  0.98168538  1
  O  O300  1  0.94090452  0.23755700  0.47691275  1
  O  O301  1  0.93244949  0.23337283  0.98005874  1
  O  O302  1  0.92684631  0.56561777  0.47301193  1
  O  O303  1  0.92309354  0.56578051  0.99407578  1
  O  O304  1  0.92994889  0.89993541  0.46955129  1
  O  O305  1  0.92795567  0.90404347  0.98266348  1
  O  O306  1  0.23806845  0.07413004  0.48228088  1
  O  O307  1  0.22640438  0.05947902  0.98333198  1
  O  O308  1  0.23693032  0.40232919  0.47299631  1
  O  O309  1  0.23415904  0.40452177  0.97117299  1
  O  O310  1  0.23593826  0.73650780  0.46924212  1
  O  O311  1  0.24240495  0.74227416  0.98059476  1
  O  O312  1  0.55894610  0.06761675  0.47527131  1
  O  O313  1  0.56840511  0.07190590  0.97533311  1
  O  O314  1  0.56183596  0.40732455  0.47440251  1
  O  O315  1  0.57838905  0.40178374  0.98771784  1
  O  O316  1  0.57402918  0.73597350  0.47267122  1
  O  O317  1  0.56323581  0.74171402  0.97583362  1
  O  O318  1  0.90602778  0.06155458  0.47610253  1
  O  O319  1  0.89803889  0.07197793  0.97473523  1
  O  O320  1  0.90824208  0.40941116  0.47633719  1
  O  O321  1  0.89907810  0.39846627  0.99266313  1
  O  O322  1  0.90743940  0.74630741  0.47184134  1
  O  O323  1  0.90211896  0.74054778  0.99447187  1
  O  O324  1  0.08546234  0.26665540  0.22830904  1
  O  O325  1  0.08978940  0.25160830  0.72335681  1
  O  O326  1  0.08501985  0.59631413  0.23253742  1
  O  O327  1  0.09401710  0.59050524  0.73253297  1
  O  O328  1  0.10068893  0.92401514  0.21945540  1
  O  O329  1  0.10207889  0.94198752  0.73552977  1
  O  O330  1  0.43026221  0.25193462  0.24152264  1
  O  O331  1  0.42831565  0.25165097  0.73296302  1
  O  O332  1  0.43368969  0.60287928  0.24160314  1
  O  O333  1  0.43503843  0.60933353  0.72841687  1
  O  O334  1  0.42640824  0.92406245  0.22616837  1
  O  O335  1  0.43075340  0.93228519  0.72088355  1
  O  O336  1  0.76363892  0.26583748  0.22236757  1
  O  O337  1  0.76667487  0.26759782  0.72224540  1
  O  O338  1  0.76900686  0.59212891  0.22389772  1
  O  O339  1  0.75223163  0.58868149  0.72108089  1
  O  O340  1  0.77892664  0.92727306  0.22892458  1
  O  O341  1  0.76322136  0.92585096  0.74280865  1
  O  O342  1  0.06831623  0.09207672  0.22272790  1
  O  O343  1  0.06277818  0.09745391  0.72367253  1
  O  O344  1  0.05767740  0.43144519  0.23090220  1
  O  O345  1  0.07640159  0.41779923  0.73740589  1
  O  O346  1  0.06510447  0.76798683  0.22827320  1
  O  O347  1  0.07984632  0.76128325  0.74086310  1
  O  O348  1  0.40631779  0.08779655  0.23277069  1
  O  O349  1  0.40931679  0.09486274  0.72708094  1
  O  O350  1  0.41046849  0.43436135  0.24068489  1
  O  O351  1  0.40024367  0.43371424  0.74162900  1
  O  O352  1  0.40010194  0.76776837  0.23197468  1
  O  O353  1  0.40512700  0.76084356  0.73965272  1
  O  O354  1  0.73793449  0.09963807  0.21737477  1
  O  O355  1  0.73285663  0.10251132  0.72214753  1
  O  O356  1  0.74126490  0.43669731  0.22126120  1
  O  O357  1  0.73950873  0.43263575  0.71943035  1
  O  O358  1  0.74974967  0.76085728  0.23338702  1
  O  O359  1  0.73661487  0.75133346  0.73611045  1
