# generated using pymatgen
data_BaLaInIrO6
_symmetry_space_group_name_H-M   'P 1'
_cell_length_a   17.52960556
_cell_length_b   17.56233129
_cell_length_c   16.51220800
_cell_angle_alpha   89.99343536
_cell_angle_beta   90.01971443
_cell_angle_gamma   89.99125062
_symmetry_Int_Tables_number   1
_chemical_formula_structural   BaLaInIrO6
_chemical_formula_sum   'Ba36 La36 In36 Ir36 O216'
_cell_volume   5083.46018545
_cell_formula_units_Z   36
loop_
 _symmetry_equiv_pos_site_id
 _symmetry_equiv_pos_as_xyz
  1  'x, y, z'
loop_
 _atom_site_type_symbol
 _atom_site_label
 _atom_site_symmetry_multiplicity
 _atom_site_fract_x
 _atom_site_fract_y
 _atom_site_fract_z
 _atom_site_occupancy
  Ba  Ba0  1  0.16500156  0.99560757  0.87616406  1
  Ba  Ba1  1  0.16572415  0.67382504  0.62525808  1
  Ba  Ba2  1  0.00285350  0.49093594  0.37583788  1
  Ba  Ba3  1  0.66777355  0.85196570  0.62015406  1
  Ba  Ba4  1  0.00094214  0.82563491  0.37245428  1
  Ba  Ba5  1  0.00097078  0.16054268  0.37469886  1
  Ba  Ba6  1  0.50335648  0.32311584  0.87653350  1
  Ba  Ba7  1  0.82974196  0.67736573  0.12662564  1
  Ba  Ba8  1  0.50253150  0.98603379  0.87877542  1
  Ba  Ba9  1  0.49966144  0.00461382  0.12553709  1
  Ba  Ba10  1  0.66304963  0.82301593  0.37391876  1
  Ba  Ba11  1  0.33726124  0.49429581  0.86942898  1
  Ba  Ba12  1  0.66842999  0.17464976  0.62778936  1
  Ba  Ba13  1  0.83188061  0.32095499  0.88107871  1
  Ba  Ba14  1  0.49811331  0.34301852  0.12374586  1
  Ba  Ba15  1  0.16275301  0.00634513  0.12628895  1
  Ba  Ba16  1  1.00022293  0.84025250  0.62072989  1
  Ba  Ba17  1  0.16382249  0.66335514  0.87290557  1
  Ba  Ba18  1  -0.00450929  0.15581353  0.88003930  1
  Ba  Ba19  1  0.49894827  0.67721970  0.62422717  1
  Ba  Ba20  1  0.99883560  0.17636017  0.12675422  1
  Ba  Ba21  1  1.00125946  0.83978339  0.12683968  1
  Ba  Ba22  1  0.33566701  0.51600991  0.62490217  1
  Ba  Ba23  1  0.83373960  0.98886635  0.87297635  1
  Ba  Ba24  1  0.16531428  0.66209111  0.37434565  1
  Ba  Ba25  1  0.50003365  0.00411344  0.62972481  1
  Ba  Ba26  1  0.83693532  0.32672851  0.37603767  1
  Ba  Ba27  1  0.33368965  0.84186354  0.12489273  1
  Ba  Ba28  1  0.99955408  0.17096691  0.63007423  1
  Ba  Ba29  1  0.16659360  0.34110479  0.12332187  1
  Ba  Ba30  1  0.33611774  0.84140750  0.62901704  1
  Ba  Ba31  1  0.66922848  0.50933885  0.12126697  1
  Ba  Ba32  1  0.66336874  0.82424130  0.87168150  1
  Ba  Ba33  1  0.99884946  0.50832412  0.62213908  1
  Ba  Ba34  1  0.16816553  0.00346141  0.62769214  1
  Ba  Ba35  1  0.33448402  0.82800079  0.87553089  1
  La  La36  1  0.83817634  0.65783997  0.87335097  1
  La  La37  1  0.32901416  0.14879722  0.37314044  1
  La  La38  1  0.32630506  0.82079760  0.38028084  1
  La  La39  1  0.83674115  0.34450603  0.63103402  1
  La  La40  1  0.83122253  0.34949044  0.12873765  1
  La  La41  1  0.15976077  0.67889169  0.12163418  1
  La  La42  1  0.66058566  0.14972265  0.37939809  1
  La  La43  1  -0.00460908  0.48240789  0.86988221  1
  La  La44  1  0.00384899  0.83305586  0.87226230  1
  La  La45  1  0.32528308  0.48582656  0.37315313  1
  La  La46  1  0.34167464  0.17611408  0.62614166  1
  La  La47  1  0.67791481  0.51376690  0.63241322  1
  La  La48  1  0.49459388  0.34811421  0.62437133  1
  La  La49  1  0.16635394  0.98382578  0.38016915  1
  La  La50  1  1.00278593  0.51097572  0.12754724  1
  La  La51  1  0.82474299  0.68518497  0.62292413  1
  La  La52  1  0.50761849  0.31616401  0.37277101  1
  La  La53  1  0.50207709  0.65076542  0.37246361  1
  La  La54  1  0.83670257  0.98788080  0.37610086  1
  La  La55  1  0.16085751  0.34784500  0.62708215  1
  La  La56  1  0.33051852  0.15628781  0.88081530  1
  La  La57  1  0.49870812  0.68271344  0.12062915  1
  La  La58  1  0.84285100  0.65176139  0.37065251  1
  La  La59  1  0.33544680  0.17801745  0.12302117  1
  La  La60  1  0.17142758  0.31774095  0.87280481  1
  La  La61  1  0.50056977  0.65857625  0.87378593  1
  La  La62  1  0.82653215  0.01477087  0.62256134  1
  La  La63  1  0.67333633  0.18393629  0.12292145  1
  La  La64  1  0.34015065  0.51826197  0.11966160  1
  La  La65  1  0.65866822  0.48515266  0.88054159  1
  La  La66  1  0.66303348  0.48416607  0.36935442  1
  La  La67  1  0.50234769  0.98273505  0.37818047  1
  La  La68  1  0.16644932  0.31765034  0.37394389  1
  La  La69  1  0.82973726  0.01400742  0.12251405  1
  La  La70  1  0.67059814  0.84965672  0.11977954  1
  La  La71  1  0.66219780  0.14682230  0.87467519  1
  In  In72  1  0.16900743  0.83300421  0.25043755  1
  In  In73  1  0.50349325  0.16544732  0.00159893  1
  In  In74  1  0.66445325  0.33383772  0.50362931  1
  In  In75  1  -0.00102970  0.00276550  0.24948233  1
  In  In76  1  0.66811830  0.66567707  0.24955285  1
  In  In77  1  -0.00144687  0.66657989  -0.00381542  1
  In  In78  1  0.17170229  0.16473689  0.50544304  1
  In  In79  1  0.33257147  0.33287850  0.74819596  1
  In  In80  1  -0.00405324  -0.00086683  0.74923479  1
  In  In81  1  0.66529573  0.32999633  0.75203310  1
  In  In82  1  0.33652782  0.33301847  0.25069936  1
  In  In83  1  0.50388008  0.83220642  0.74927398  1
  In  In84  1  0.33543556  0.33050793  0.49799550  1
  In  In85  1  0.50127396  0.49845336  0.49630653  1
  In  In86  1  0.83058028  0.17122992  0.49750279  1
  In  In87  1  0.33386724  0.00193487  0.75099635  1
  In  In88  1  0.16801843  0.83444663  -0.00207677  1
  In  In89  1  0.16881501  0.49765053  0.24686652  1
  In  In90  1  0.82966239  0.50037506  0.50028954  1
  In  In91  1  0.49908796  0.83102072  0.25040567  1
  In  In92  1  0.16819583  0.50077916  0.49828354  1
  In  In93  1  0.50517561  0.50245469  0.74839653  1
  In  In94  1  0.83049974  0.83172104  -0.00171133  1
  In  In95  1  0.16508557  0.16469777  0.00342142  1
  In  In96  1  0.83137796  0.83450786  0.49594626  1
  In  In97  1  -0.00394460  0.66775473  0.74549789  1
  In  In98  1  0.33576808  0.66507275  0.24904687  1
  In  In99  1  0.00036396  0.33441794  0.00128514  1
  In  In100  1  0.16537158  0.50093487  0.75371786  1
  In  In101  1  0.66713006  0.00128219  0.25146493  1
  In  In102  1  0.00143354  0.33160822  0.50127475  1
  In  In103  1  0.50150790  0.16308372  0.25053821  1
  In  In104  1  0.66713545  0.66533963  0.49624138  1
  In  In105  1  0.33352637  0.33641352  -0.00148033  1
  In  In106  1  0.83412839  0.50234939  -0.00371002  1
  In  In107  1  -0.00204302  0.00215124  0.50004010  1
  Ir  Ir108  1  -0.00380723  0.66776481  0.49497595  1
  Ir  Ir109  1  0.83069656  0.83651451  0.24733756  1
  Ir  Ir110  1  0.82864912  0.83023988  0.74824285  1
  Ir  Ir111  1  0.83396836  0.49785236  0.24788202  1
  Ir  Ir112  1  0.50318678  0.50540986  0.00457347  1
  Ir  Ir113  1  -0.00209434  0.33258577  0.24746648  1
  Ir  Ir114  1  0.66913854  0.33339530  0.25015250  1
  Ir  Ir115  1  0.66977738  0.00385494  0.74981701  1
  Ir  Ir116  1  0.49773829  0.16373866  0.50180924  1
  Ir  Ir117  1  0.49784662  0.50039473  0.24630532  1
  Ir  Ir118  1  -0.00577388  -0.00228231  0.00033789  1
  Ir  Ir119  1  0.33495673  0.00075272  0.00571981  1
  Ir  Ir120  1  0.16742489  0.50259923  0.00062759  1
  Ir  Ir121  1  0.66978284  0.33274780  0.00462426  1
  Ir  Ir122  1  0.33992207  0.67096480  0.49928332  1
  Ir  Ir123  1  0.33248371  0.00318303  0.25207755  1
  Ir  Ir124  1  0.82893711  0.16453912  0.00378563  1
  Ir  Ir125  1  0.83153193  0.50002103  0.75308738  1
  Ir  Ir126  1  -0.00073156  0.33023975  0.75195217  1
  Ir  Ir127  1  0.16581766  0.83341121  0.74665115  1
  Ir  Ir128  1  0.50080694  0.16518645  0.74756171  1
  Ir  Ir129  1  0.16932524  0.16635389  0.25307062  1
  Ir  Ir130  1  0.33654169  0.00038068  0.49577509  1
  Ir  Ir131  1  0.66633137  -0.00057097  0.00024942  1
  Ir  Ir132  1  0.66437760  0.66794043  -0.00190926  1
  Ir  Ir133  1  0.83181448  0.16816499  0.75500595  1
  Ir  Ir134  1  0.50220647  0.82845747  0.00086317  1
  Ir  Ir135  1  0.17017592  0.16711862  0.75240938  1
  Ir  Ir136  1  0.17004595  0.83168990  0.50222212  1
  Ir  Ir137  1  0.67215496  0.66476900  0.75407622  1
  Ir  Ir138  1  0.49556552  0.83542997  0.49597853  1
  Ir  Ir139  1  0.33511358  0.67010701  0.75067248  1
  Ir  Ir140  1  -0.00379203  0.66363425  0.24845851  1
  Ir  Ir141  1  0.33341287  0.66379110  -0.00196486  1
  Ir  Ir142  1  0.66493683  0.00466831  0.49963503  1
  Ir  Ir143  1  0.82764858  0.17007947  0.24771593  1
  O  O144  1  0.31489198  0.31714351  0.12458275  1
  O  O145  1  0.29790678  0.31515399  0.62419385  1
  O  O146  1  0.30085334  0.65567251  0.11772403  1
  O  O147  1  0.31516036  0.67097128  0.62524647  1
  O  O148  1  0.31017881  0.99703016  0.13035678  1
  O  O149  1  0.31874848  1.00170382  0.61664537  1
  O  O150  1  0.64630856  0.32152203  0.12776895  1
  O  O151  1  0.62806976  0.32995205  0.62774080  1
  O  O152  1  0.63568280  0.66410012  0.11883525  1
  O  O153  1  0.64779843  0.65275057  0.63370580  1
  O  O154  1  0.64963970  0.99097328  0.12123458  1
  O  O155  1  0.65032435  1.01116378  0.62553495  1
  O  O156  1  0.96801718  0.33343470  0.12849141  1
  O  O157  1  0.96966139  0.32671071  0.63440381  1
  O  O158  1  0.97802450  0.65237794  0.12803073  1
  O  O159  1  0.96552810  0.66873111  0.61562743  1
  O  O160  1  0.96746968  0.99804572  0.12154798  1
  O  O161  1  0.96290946  0.99788618  0.62634329  1
  O  O162  1  0.19854000  0.16444013  0.13265100  1
  O  O163  1  0.20441208  0.16086615  0.63443143  1
  O  O164  1  0.20267533  0.49721112  0.11836312  1
  O  O165  1  0.18808076  0.48665886  0.62520133  1
  O  O166  1  0.18450029  0.81931694  0.12461896  1
  O  O167  1  0.18844658  0.83300158  0.62438002  1
  O  O168  1  0.53909331  0.15808609  0.12738272  1
  O  O169  1  0.52222571  0.15636728  0.62316423  1
  O  O170  1  0.52372279  0.49732167  0.12567756  1
  O  O171  1  0.54052691  0.49697037  0.62244927  1
  O  O172  1  0.53283337  0.82457253  0.12073348  1
  O  O173  1  0.51633079  0.83293224  0.61694455  1
  O  O174  1  0.85122893  0.15184794  0.12673784  1
  O  O175  1  0.84438716  0.15339025  0.63349092  1
  O  O176  1  0.86487933  0.49276747  0.12626331  1
  O  O177  1  0.84923299  0.48596949  0.63430391  1
  O  O178  1  0.85026691  0.83439694  0.12933321  1
  O  O179  1  0.84761678  0.82849447  0.62860813  1
  O  O180  1  0.15018629  0.17530797  0.37196773  1
  O  O181  1  0.14495195  0.17538254  0.87065421  1
  O  O182  1  0.15179685  0.50961412  0.37199589  1
  O  O183  1  0.13157486  0.50653876  0.88367145  1
  O  O184  1  0.15554111  0.83829081  0.38211420  1
  O  O185  1  0.14130704  0.83385466  0.86842964  1
  O  O186  1  0.46834351  0.17540081  0.38356807  1
  O  O187  1  0.47133781  0.16671150  0.86724438  1
  O  O188  1  0.46334196  0.51122065  0.36390636  1
  O  O189  1  0.48752827  0.51609619  0.88370448  1
  O  O190  1  0.46646513  0.84291090  0.37700850  1
  O  O191  1  0.48725151  0.82459049  0.88060072  1
  O  O192  1  0.79549627  0.17678286  0.36574722  1
  O  O193  1  0.80012640  0.16921405  0.88097444  1
  O  O194  1  0.80243928  0.50509922  0.36868268  1
  O  O195  1  0.79696552  0.51237133  0.86997742  1
  O  O196  1  0.80903645  0.84649951  0.36574099  1
  O  O197  1  0.81235937  0.82749502  0.86736339  1
  O  O198  1  0.02988205  0.00544467  0.37415502  1
  O  O199  1  0.01114438  -0.00421049  0.87892744  1
  O  O200  1  0.02820839  0.33418606  0.36755490  1
  O  O201  1  0.03199238  0.33994508  0.87089301  1
  O  O202  1  0.01696417  0.66728461  0.37207607  1
  O  O203  1  0.00910213  0.69517793  0.87007648  1
  O  O204  1  0.36607465  0.01186768  0.37280463  1
  O  O205  1  0.35341831  0.01359046  0.88529924  1
  O  O206  1  0.37566609  0.35056015  0.37365634  1
  O  O207  1  0.35497626  0.33522894  0.87355874  1
  O  O208  1  0.36693963  0.67858660  0.37902363  1
  O  O209  1  0.36489498  0.66897537  0.87479838  1
  O  O210  1  0.69697526  0.00643894  0.37964323  1
  O  O211  1  0.68759985  0.00783659  0.87541226  1
  O  O212  1  0.68821831  0.34579777  0.36921677  1
  O  O213  1  0.68546369  0.34422139  0.88384364  1
  O  O214  1  0.70717086  0.66837147  0.37210875  1
  O  O215  1  0.70109483  0.67233061  0.87636587  1
  O  O216  1  0.06784800  0.08639312  0.01562962  1
  O  O217  1  0.07741617  0.09188400  0.52011141  1
  O  O218  1  0.07170802  0.44128166  0.02504492  1
  O  O219  1  0.07759006  0.42204413  0.52135838  1
  O  O220  1  0.07847213  0.75356473  0.01868028  1
  O  O221  1  0.07598646  0.75956082  0.51547027  1
  O  O222  1  0.40226142  0.09320290  0.02605629  1
  O  O223  1  0.39785235  0.10101429  0.51787810  1
  O  O224  1  0.40734242  0.43872420  0.02200762  1
  O  O225  1  0.41216493  0.42169452  0.53008696  1
  O  O226  1  0.41123434  0.75386343  0.02460593  1
  O  O227  1  0.40008576  0.77129724  0.51069185  1
  O  O228  1  0.73292532  0.09580277  0.02549372  1
  O  O229  1  0.72855214  0.09951256  0.50791609  1
  O  O230  1  0.74579656  0.41924385  0.02184895  1
  O  O231  1  0.72256525  0.44104296  0.51719823  1
  O  O232  1  0.72420044  0.76499260  0.02168366  1
  O  O233  1  0.74006655  0.75954667  0.51947773  1
  O  O234  1  0.09296098  0.26098149  0.01165956  1
  O  O235  1  0.10928321  0.26861296  0.51845457  1
  O  O236  1  0.10233025  0.59442716  0.02704033  1
  O  O237  1  0.08474620  0.59717955  0.51293483  1
  O  O238  1  0.08390196  0.92701941  0.01290114  1
  O  O239  1  0.09967571  0.92253830  0.51088224  1
  O  O240  1  0.42388421  0.25229404  0.01998921  1
  O  O241  1  0.43664667  0.25797247  0.52934919  1
  O  O242  1  0.43171980  0.59781918  0.02645993  1
  O  O243  1  0.43087186  0.60157198  0.50996073  1
  O  O244  1  0.43037044  0.92236107  0.01866303  1
  O  O245  1  0.43337951  0.93566454  0.50850147  1
  O  O246  1  0.76264433  0.26139791  0.03210826  1
  O  O247  1  0.76667216  0.27230063  0.52886470  1
  O  O248  1  0.75758872  0.60050453  0.01256019  1
  O  O249  1  0.76288045  0.59605740  0.53334877  1
  O  O250  1  0.75947058  0.93062936  0.02398164  1
  O  O251  1  0.76215011  0.94132053  0.51889313  1
  O  O252  1  0.23503436  0.06962806  0.27949660  1
  O  O253  1  0.24497172  0.08304844  0.77875658  1
  O  O254  1  0.23610806  0.39763902  0.27799916  1
  O  O255  1  0.22955114  0.39913127  0.77091085  1
  O  O256  1  0.25079252  0.74688223  0.27310920  1
  O  O257  1  0.24259378  0.74421722  0.76652884  1
  O  O258  1  0.57159272  0.07180127  0.28854089  1
  O  O259  1  0.57471947  0.07472979  0.77457786  1
  O  O260  1  0.56889478  0.40347449  0.27557027  1
  O  O261  1  0.58106828  0.41303662  0.77798050  1
  O  O262  1  0.56736292  0.72952526  0.27498550  1
  O  O263  1  0.57556316  0.72885186  0.77358193  1
  O  O264  1  0.89059530  0.07272363  0.26940051  1
  O  O265  1  0.90009112  0.07696587  0.76674897  1
  O  O266  1  0.90279883  0.40094769  0.26188459  1
  O  O267  1  0.90577084  0.40641636  0.77718470  1
  O  O268  1  0.89839609  0.73738529  0.27225690  1
  O  O269  1  0.88647783  0.73042054  0.75799809  1
  O  O270  1  0.26378243  0.23112801  0.27584038  1
  O  O271  1  0.26077521  0.23412727  0.77893128  1
  O  O272  1  0.27563381  0.56186396  0.26386672  1
  O  O273  1  0.26125266  0.58273058  0.76406471  1
  O  O274  1  0.26517591  0.91342757  0.28164022  1
  O  O275  1  0.25020246  0.91010725  0.76321692  1
  O  O276  1  0.60201725  0.24072165  0.27920729  1
  O  O277  1  0.59466199  0.22897975  0.77648267  1
  O  O278  1  0.59220410  0.56383164  0.27433208  1
  O  O279  1  0.60818781  0.57248521  0.77888311  1
  O  O280  1  0.58989613  0.90897966  0.26572420  1
  O  O281  1  0.59931683  0.91248635  0.75794594  1
  O  O282  1  0.92369284  0.23762153  0.26585754  1
  O  O283  1  0.92504637  0.23789241  0.77112078  1
  O  O284  1  0.92226971  0.57282612  0.27232096  1
  O  O285  1  0.92139066  0.56850604  0.78096191  1
  O  O286  1  0.91809697  0.90899512  0.26931475  1
  O  O287  1  0.92549114  0.89222308  0.77068407  1
  O  O288  1  0.27310866  0.22842808  0.47219512  1
  O  O289  1  0.25997716  0.23713171  0.97436288  1
  O  O290  1  0.27506787  0.57554908  0.47827759  1
  O  O291  1  0.26545784  0.56898492  0.97925139  1
  O  O292  1  0.26636199  0.90465441  0.47487514  1
  O  O293  1  0.26188608  0.91372125  0.98657146  1
  O  O294  1  0.59218764  0.22994516  0.47386769  1
  O  O295  1  0.60522929  0.23803305  0.98223936  1
  O  O296  1  0.59411434  0.57237292  0.45942966  1
  O  O297  1  0.59840680  0.57381573  0.97438749  1
  O  O298  1  0.58868953  0.90958877  0.47641547  1
  O  O299  1  0.59936088  0.90025656  0.98707727  1
  O  O300  1  0.93040484  0.23630179  0.48846737  1
  O  O301  1  0.91825402  0.23594976  0.98917047  1
  O  O302  1  0.92275418  0.58124753  0.47559993  1
  O  O303  1  0.93259788  0.56918260  0.96663664  1
  O  O304  1  0.92137759  0.90984345  0.47506890  1
  O  O305  1  0.93102290  0.90159690  0.97927034  1
  O  O306  1  0.24287058  0.06342770  0.47045023  1
  O  O307  1  0.24920663  0.07508411  0.98800175  1
  O  O308  1  0.24174561  0.40277831  0.46545783  1
  O  O309  1  0.22822733  0.40720240  0.97394280  1
  O  O310  1  0.24755714  0.74217527  0.47878464  1
  O  O311  1  0.24628350  0.73574582  0.98268239  1
  O  O312  1  0.56573983  0.06959271  0.47219042  1
  O  O313  1  0.58047731  0.07358508  0.97664442  1
  O  O314  1  0.56713035  0.39977665  0.46523349  1
  O  O315  1  0.57885090  0.41251622  0.98129030  1
  O  O316  1  0.56049516  0.73868277  0.47443483  1
  O  O317  1  0.56459187  0.72837777  0.98109079  1
  O  O318  1  0.89150877  0.06744904  0.47893277  1
  O  O319  1  0.89491355  0.06588263  0.99083737  1
  O  O320  1  0.90249132  0.40604586  0.49707563  1
  O  O321  1  0.91370403  0.41236588  0.97396902  1
  O  O322  1  0.90283728  0.73375810  0.47549553  1
  O  O323  1  0.89335040  0.73063517  0.98401418  1
  O  O324  1  0.10058594  0.26425680  0.23752950  1
  O  O325  1  0.09863455  0.26434201  0.72735774  1
  O  O326  1  0.08926059  0.59215019  0.21995346  1
  O  O327  1  0.08503631  0.58855685  0.73555104  1
  O  O328  1  0.09169499  0.92367854  0.24043225  1
  O  O329  1  0.08982619  0.91878644  0.73623007  1
  O  O330  1  0.43116473  0.25786543  0.23561086  1
  O  O331  1  0.43421262  0.25646177  0.71807036  1
  O  O332  1  0.43815021  0.59554971  0.21972695  1
  O  O333  1  0.42679800  0.59791395  0.74095535  1
  O  O334  1  0.42372243  0.93438659  0.24039977  1
  O  O335  1  0.42399940  0.92315007  0.74581429  1
  O  O336  1  0.76340711  0.26572572  0.21888596  1
  O  O337  1  0.76813871  0.26390354  0.73223831  1
  O  O338  1  0.76296549  0.58654806  0.23121990  1
  O  O339  1  0.76867526  0.59691429  0.72561115  1
  O  O340  1  0.76618460  0.93142948  0.22541806  1
  O  O341  1  0.76721389  0.93475836  0.72640901  1
  O  O342  1  0.07873694  0.09857352  0.23267294  1
  O  O343  1  0.08240430  0.09254746  0.73825892  1
  O  O344  1  0.06393302  0.42688966  0.22412171  1
  O  O345  1  0.06731313  0.41848205  0.73235031  1
  O  O346  1  0.07560362  0.74625366  0.23147227  1
  O  O347  1  0.07714585  0.76270888  0.73245318  1
  O  O348  1  0.39400642  0.09924893  0.22927875  1
  O  O349  1  0.40490641  0.10287504  0.72911768  1
  O  O350  1  0.40180248  0.44008454  0.22276088  1
  O  O351  1  0.41608535  0.42123736  0.72477967  1
  O  O352  1  0.41393291  0.75268219  0.21926147  1
  O  O353  1  0.40935290  0.75444183  0.73909873  1
  O  O354  1  0.73284318  0.10478061  0.22737033  1
  O  O355  1  0.73608468  0.10138526  0.74573866  1
  O  O356  1  0.74403226  0.42357987  0.22303640  1
  O  O357  1  0.74190296  0.42904674  0.72841495  1
  O  O358  1  0.73473911  0.77140054  0.22399591  1
  O  O359  1  0.73585070  0.75964078  0.72457154  1
