# generated using pymatgen
data_BaLaInIrO6
_symmetry_space_group_name_H-M   'P 1'
_cell_length_a   17.51726040
_cell_length_b   17.54625038
_cell_length_c   16.47945178
_cell_angle_alpha   89.99525126
_cell_angle_beta   90.01116890
_cell_angle_gamma   89.94752013
_symmetry_Int_Tables_number   1
_chemical_formula_structural   BaLaInIrO6
_chemical_formula_sum   'Ba36 La36 In36 Ir36 O216'
_cell_volume   5065.15892243
_cell_formula_units_Z   36
loop_
 _symmetry_equiv_pos_site_id
 _symmetry_equiv_pos_as_xyz
  1  'x, y, z'
loop_
 _atom_site_type_symbol
 _atom_site_label
 _atom_site_symmetry_multiplicity
 _atom_site_fract_x
 _atom_site_fract_y
 _atom_site_fract_z
 _atom_site_occupancy
  Ba  Ba0  1  0.65863307  0.49286072  0.87403579  1
  Ba  Ba1  1  0.33693514  0.82487948  0.37327279  1
  Ba  Ba2  1  0.50351441  0.32165880  0.37253886  1
  Ba  Ba3  1  0.33550650  0.48398353  0.37376049  1
  Ba  Ba4  1  0.67055811  0.84587659  0.62122121  1
  Ba  Ba5  1  0.33694720  0.17596913  0.12464520  1
  Ba  Ba6  1  0.16652598  0.00935497  0.13167405  1
  Ba  Ba7  1  0.83653264  0.99391189  0.87312605  1
  Ba  Ba8  1  0.16716020  0.32302983  0.37507653  1
  Ba  Ba9  1  0.66701592  0.84826033  0.12899716  1
  Ba  Ba10  1  0.33491387  0.17850053  0.62615300  1
  Ba  Ba11  1  1.00102703  0.50491349  0.62552084  1
  Ba  Ba12  1  0.49749066  0.01127691  0.62273051  1
  Ba  Ba13  1  0.33466059  0.49014025  0.87227374  1
  Ba  Ba14  1  0.82892996  0.00796653  0.62446511  1
  Ba  Ba15  1  0.83302506  0.34137612  0.62413215  1
  Ba  Ba16  1  0.83109335  0.34361188  0.12012661  1
  Ba  Ba17  1  0.49628558  0.34230933  0.12584772  1
  Ba  Ba18  1  0.83129143  0.68635591  0.13146442  1
  Ba  Ba19  1  0.66462748  0.15800806  0.87635726  1
  Ba  Ba20  1  0.33888628  0.84168756  0.62358223  1
  Ba  Ba21  1  0.49472625  0.00557465  0.13001807  1
  Ba  Ba22  1  0.99823409  0.84494282  0.12735167  1
  Ba  Ba23  1  0.16940201  0.33725545  0.12343640  1
  Ba  Ba24  1  1.00218538  0.17267160  0.62693051  1
  Ba  Ba25  1  1.00288051  0.84115867  0.62346954  1
  Ba  Ba26  1  0.66041954  0.15547686  0.37246126  1
  Ba  Ba27  1  0.33408031  0.50975060  0.12747726  1
  Ba  Ba28  1  0.16495468  0.99369558  0.87460925  1
  Ba  Ba29  1  0.32988387  0.15834038  0.87759394  1
  Ba  Ba30  1  0.83218538  0.32197502  0.87072487  1
  Ba  Ba31  1  0.50214409  0.67765929  0.12231606  1
  Ba  Ba32  1  0.00044895  0.16238784  0.87192423  1
  Ba  Ba33  1  0.16224745  0.34149621  0.62621349  1
  Ba  Ba34  1  0.83551526  0.31812152  0.37521149  1
  Ba  Ba35  1  0.00041327  0.82818445  0.87686845  1
  La  La36  1  -0.00418734  0.49059797  0.87612258  1
  La  La37  1  0.32851877  0.81920972  0.87725057  1
  La  La38  1  -0.00682465  0.15056535  0.37783484  1
  La  La39  1  0.16485850  0.67746548  0.12406584  1
  La  La40  1  1.00856144  0.51664109  0.12915352  1
  La  La41  1  -0.00234802  0.48345741  0.37438160  1
  La  La42  1  0.50602808  0.65323150  0.36607565  1
  La  La43  1  0.33344512  0.50619250  0.61992332  1
  La  La44  1  0.50341081  0.31183655  0.87726746  1
  La  La45  1  0.66841086  0.17628273  0.62187977  1
  La  La46  1  0.83738079  0.65428327  0.37324693  1
  La  La47  1  0.83026523  0.98662200  0.37577569  1
  La  La48  1  -0.00389072  0.81811272  0.37142999  1
  La  La49  1  0.83119292  0.67798447  0.62945293  1
  La  La50  1  0.67517562  0.51796924  0.62033289  1
  La  La51  1  0.66096589  0.48581067  0.37031830  1
  La  La52  1  0.66664997  0.17890242  0.12432875  1
  La  La53  1  0.82793024  0.01219489  0.12330175  1
  La  La54  1  0.49677573  0.34057231  0.62924070  1
  La  La55  1  0.50291253  0.65995350  0.87899521  1
  La  La56  1  0.16841250  0.98903744  0.38064596  1
  La  La57  1  0.49383115  0.67674271  0.62450894  1
  La  La58  1  0.16995883  0.31635880  0.87455874  1
  La  La59  1  0.34137101  0.84228681  0.12245601  1
  La  La60  1  0.99898311  0.17591904  0.12725765  1
  La  La61  1  0.66411065  0.82136750  0.37131937  1
  La  La62  1  0.83603904  0.66043259  0.87946803  1
  La  La63  1  0.17055120  0.66001611  0.87449074  1
  La  La64  1  0.16395142  0.01438195  0.62618583  1
  La  La65  1  0.50514920  0.98229793  0.37522923  1
  La  La66  1  0.33519566  0.15732000  0.37589285  1
  La  La67  1  0.50411626  0.98444498  0.88008191  1
  La  La68  1  0.66930716  0.52188368  0.12665864  1
  La  La69  1  0.66338051  0.82527972  0.87820484  1
  La  La70  1  0.17242446  0.65193239  0.37516926  1
  La  La71  1  0.16430756  0.67527812  0.62279163  1
  In  In72  1  0.00110513  -0.00046657  0.74756949  1
  In  In73  1  0.33623290  0.66460982  0.49701682  1
  In  In74  1  0.33271078  -0.00030584  0.25448932  1
  In  In75  1  0.33383018  0.33492364  -0.00297027  1
  In  In76  1  0.50377612  0.49977040  0.50160413  1
  In  In77  1  0.33396383  -0.00262355  -0.00184621  1
  In  In78  1  0.83214469  0.16599516  -0.00184579  1
  In  In79  1  0.16754518  0.83189832  0.25304896  1
  In  In80  1  -0.00070558  0.33736489  -0.00008894  1
  In  In81  1  0.66156345  0.33458829  0.74787540  1
  In  In82  1  0.66525770  0.66969454  0.74925722  1
  In  In83  1  0.16928280  0.49848848  0.25133278  1
  In  In84  1  0.16613920  0.16573936  0.00400327  1
  In  In85  1  0.66598554  0.33714736  -0.00042267  1
  In  In86  1  0.83342780  0.83310701  0.75106869  1
  In  In87  1  0.00103610  0.33516401  0.75081885  1
  In  In88  1  0.66621841  0.33331238  0.49910548  1
  In  In89  1  -0.00297266  0.33213378  0.24992189  1
  In  In90  1  -0.00006707  0.66233511  0.50000473  1
  In  In91  1  0.16808573  0.83507890  0.00299739  1
  In  In92  1  0.16519383  0.50092581  -0.00236214  1
  In  In93  1  0.83406288  0.83247343  0.49619327  1
  In  In94  1  0.49792836  0.83199483  0.75140277  1
  In  In95  1  0.66357950  0.00113599  0.75100110  1
  In  In96  1  0.16692463  0.83057814  0.49876212  1
  In  In97  1  -0.00067369  0.66999936  0.00136434  1
  In  In98  1  0.49908773  0.50063876  0.00071616  1
  In  In99  1  0.16758766  0.16695447  0.49694751  1
  In  In100  1  0.83350254  0.50238363  0.24700214  1
  In  In101  1  0.66848975  0.33387612  0.24729871  1
  In  In102  1  0.49965278  0.49876740  0.74806144  1
  In  In103  1  0.17079185  0.83386620  0.74825159  1
  In  In104  1  -0.00148464  0.33117402  0.50042912  1
  In  In105  1  0.83118052  0.50273793  0.75066255  1
  In  In106  1  -0.00251517  0.00206903  0.00392947  1
  In  In107  1  0.33622330  -0.00111548  0.50003560  1
  Ir  Ir108  1  0.67021628  0.67144094  0.25303401  1
  Ir  Ir109  1  0.33636305  0.66620719  0.24934189  1
  Ir  Ir110  1  0.82997141  0.16706349  0.74211030  1
  Ir  Ir111  1  0.17269789  0.16550909  0.74876451  1
  Ir  Ir112  1  0.00275327  0.66754144  0.25224921  1
  Ir  Ir113  1  0.83202368  0.50828414  -0.00062584  1
  Ir  Ir114  1  0.50712630  0.82873860  0.49610185  1
  Ir  Ir115  1  0.49957751  0.16602301  0.50022235  1
  Ir  Ir116  1  0.16202700  0.16520800  0.25450563  1
  Ir  Ir117  1  0.33319140  0.33511003  0.74487846  1
  Ir  Ir118  1  0.50151980  0.16114712  0.00070385  1
  Ir  Ir119  1  0.50153738  0.82948028  0.25028947  1
  Ir  Ir120  1  0.00138085  -0.00056525  0.49653495  1
  Ir  Ir121  1  0.82996948  0.16005092  0.49780719  1
  Ir  Ir122  1  0.49683899  0.16314647  0.75047746  1
  Ir  Ir123  1  0.33547546  0.33178881  0.50170794  1
  Ir  Ir124  1  0.66432233  0.00169597  0.49471416  1
  Ir  Ir125  1  0.33245997  0.66235876  0.74985859  1
  Ir  Ir126  1  0.66313276  -0.00188109  0.00543266  1
  Ir  Ir127  1  0.16832918  0.50504420  0.74923942  1
  Ir  Ir128  1  0.82997989  0.50632833  0.49753755  1
  Ir  Ir129  1  0.66737599  0.66828485  0.49385300  1
  Ir  Ir130  1  0.17008366  0.49918438  0.50206266  1
  Ir  Ir131  1  0.83330536  0.15821468  0.25520604  1
  Ir  Ir132  1  0.83174817  0.83844649  0.25199580  1
  Ir  Ir133  1  0.50144628  0.50379602  0.25060984  1
  Ir  Ir134  1  0.49954174  0.16322069  0.25119654  1
  Ir  Ir135  1  0.82611669  0.83499864  0.00300467  1
  Ir  Ir136  1  0.33715989  0.00061605  0.75063509  1
  Ir  Ir137  1  0.49929556  0.83046041  0.00123624  1
  Ir  Ir138  1  0.33545186  0.32788156  0.25578133  1
  Ir  Ir139  1  0.00232015  0.66379792  0.75170048  1
  Ir  Ir140  1  -0.00402636  0.00114612  0.25623239  1
  Ir  Ir141  1  0.66624148  0.00117476  0.25026273  1
  Ir  Ir142  1  0.33419411  0.66839654  -0.00186073  1
  Ir  Ir143  1  0.67125928  0.67125234  0.00277748  1
  O  O144  1  0.32195350  0.33147387  0.13525779  1
  O  O145  1  0.30946767  0.33641774  0.62155470  1
  O  O146  1  0.30297345  0.66851359  0.12215320  1
  O  O147  1  0.30134259  0.65606864  0.63014651  1
  O  O148  1  0.32042361  0.98164727  0.12863426  1
  O  O149  1  0.30564682  0.99793626  0.62964565  1
  O  O150  1  0.64723372  0.31990784  0.12487911  1
  O  O151  1  0.63363358  0.31771680  0.62269349  1
  O  O152  1  0.64911758  0.65972850  0.12928232  1
  O  O153  1  0.63160703  0.65872119  0.61261756  1
  O  O154  1  0.64222438  1.00104630  0.12919473  1
  O  O155  1  0.64531542  1.00204258  0.61540409  1
  O  O156  1  0.98004678  0.31550854  0.12622927  1
  O  O157  1  0.98428009  0.34018503  0.62527325  1
  O  O158  1  0.97662976  0.65432216  0.13319251  1
  O  O159  1  0.96730524  0.66026724  0.63042595  1
  O  O160  1  0.96441756  0.99987692  0.13929352  1
  O  O161  1  0.97972171  0.99884897  0.61460401  1
  O  O162  1  0.18580404  0.16602466  0.13735101  1
  O  O163  1  0.18649430  0.15503241  0.62746479  1
  O  O164  1  0.18389512  0.49835463  0.12576039  1
  O  O165  1  0.19969042  0.49732956  0.62613525  1
  O  O166  1  0.20416175  0.82024314  0.13018013  1
  O  O167  1  0.19282504  0.81116245  0.62473786  1
  O  O168  1  0.53052001  0.15765908  0.12491683  1
  O  O169  1  0.52904518  0.16376753  0.62504129  1
  O  O170  1  0.53156743  0.50231241  0.13029353  1
  O  O171  1  0.54060931  0.48370499  0.62420484  1
  O  O172  1  0.52044021  0.83129758  0.12703209  1
  O  O173  1  0.52327228  0.81606762  0.61918021  1
  O  O174  1  0.86173897  0.15400853  0.13743009  1
  O  O175  1  0.85167608  0.16664172  0.61792084  1
  O  O176  1  0.86788861  0.50448451  0.11774040  1
  O  O177  1  0.85087419  0.50856500  0.61594867  1
  O  O178  1  0.84945062  0.84166778  0.12850186  1
  O  O179  1  0.85282339  0.81578533  0.62020469  1
  O  O180  1  0.12946155  0.16486865  0.37083839  1
  O  O181  1  0.15640542  0.16942594  0.86799854  1
  O  O182  1  0.14019792  0.51249887  0.38091325  1
  O  O183  1  0.13461795  0.52057630  0.86707003  1
  O  O184  1  0.12875298  0.84214430  0.37530323  1
  O  O185  1  0.15223884  0.82947974  0.87356599  1
  O  O186  1  0.47040547  0.16812654  0.37557403  1
  O  O187  1  0.47676487  0.17385351  0.87514533  1
  O  O188  1  0.48249304  0.51623161  0.37148826  1
  O  O189  1  0.48417733  0.52495681  0.87363181  1
  O  O190  1  0.48472137  0.83924478  0.37293012  1
  O  O191  1  0.46774984  0.83358699  0.88196460  1
  O  O192  1  0.80856616  0.15294070  0.37771805  1
  O  O193  1  0.81476952  0.16266182  0.86309979  1
  O  O194  1  0.79864501  0.51381148  0.37970021  1
  O  O195  1  0.80464389  0.52214307  0.88069795  1
  O  O196  1  0.80204550  0.84465507  0.37036160  1
  O  O197  1  0.80033255  0.83126650  0.88312207  1
  O  O198  1  0.03081050  0.00973299  0.37598908  1
  O  O199  1  0.01221603  0.00539515  0.87531603  1
  O  O200  1  0.01396439  0.34531490  0.37573154  1
  O  O201  1  0.03285209  0.35137195  0.87296403  1
  O  O202  1  0.03533403  0.67584375  0.37022963  1
  O  O203  1  0.03333087  0.66924157  0.87069108  1
  O  O204  1  0.37106653  0.01201699  0.37611588  1
  O  O205  1  0.36824370  0.00090675  0.86976443  1
  O  O206  1  0.35667344  0.32384008  0.37994039  1
  O  O207  1  0.36626987  0.33421002  0.86275122  1
  O  O208  1  0.37012115  0.66638725  0.36824657  1
  O  O209  1  0.36656459  0.67561161  0.87450318  1
  O  O210  1  0.69322941  0.00057004  0.37106524  1
  O  O211  1  0.68332523  -0.00185320  0.88729036  1
  O  O212  1  0.68749106  0.34232238  0.37220002  1
  O  O213  1  0.68277019  0.33154725  0.87315549  1
  O  O214  1  0.70180518  0.68111200  0.37396201  1
  O  O215  1  0.69795812  0.67818940  0.88261419  1
  O  O216  1  0.06269941  0.10388775  0.02729610  1
  O  O217  1  0.07212972  0.08640995  0.51626722  1
  O  O218  1  0.05482201  0.44533214  0.01773511  1
  O  O219  1  0.07663871  0.43487250  0.50666999  1
  O  O220  1  0.07931054  0.75579078  0.02806437  1
  O  O221  1  0.07474369  0.75300174  0.51883739  1
  O  O222  1  0.41386331  0.09105769  0.01430273  1
  O  O223  1  0.40750412  0.10020143  0.51485869  1
  O  O224  1  0.40291018  0.42999876  0.01433607  1
  O  O225  1  0.40500674  0.42421513  0.52536636  1
  O  O226  1  0.40020200  0.76555594  0.02050835  1
  O  O227  1  0.41997803  0.75337956  0.51955556  1
  O  O228  1  0.72905698  0.09015041  0.02932441  1
  O  O229  1  0.73062268  0.09707099  0.51983924  1
  O  O230  1  0.73721554  0.44257989  0.02537409  1
  O  O231  1  0.73670682  0.43930503  0.52169754  1
  O  O232  1  0.73315100  0.76787675  0.01660515  1
  O  O233  1  0.73591648  0.75672404  0.51277815  1
  O  O234  1  0.09869016  0.26672666  0.00141186  1
  O  O235  1  0.09186110  0.25645809  0.51469348  1
  O  O236  1  0.09725433  0.59995542  0.02659971  1
  O  O237  1  0.10561781  0.59403098  0.52077130  1
  O  O238  1  0.09188741  0.92822036  0.02117553  1
  O  O239  1  0.09756233  0.93675221  0.51941427  1
  O  O240  1  0.43337047  0.25382372  0.00989396  1
  O  O241  1  0.43439136  0.26588322  0.52398300  1
  O  O242  1  0.42716962  0.60372277  0.01157504  1
  O  O243  1  0.42870559  0.59100809  0.53202477  1
  O  O244  1  0.43242591  0.92059005  0.01632601  1
  O  O245  1  0.43564059  0.91942845  0.51055775  1
  O  O246  1  0.75209929  0.25118825  0.02150857  1
  O  O247  1  0.75878912  0.25092228  0.51766190  1
  O  O248  1  0.76196842  0.59988533  0.02764866  1
  O  O249  1  0.76326092  0.60357958  0.52373437  1
  O  O250  1  0.76073656  0.93322265  0.02597535  1
  O  O251  1  0.75908078  0.93379417  0.50576973  1
  O  O252  1  0.23325997  0.07683642  0.28190012  1
  O  O253  1  0.24262094  0.06884414  0.76368607  1
  O  O254  1  0.24556437  0.40066575  0.26894988  1
  O  O255  1  0.23641832  0.40550190  0.77230368  1
  O  O256  1  0.24158479  0.72997462  0.27476579  1
  O  O257  1  0.24894903  0.73629515  0.77997881  1
  O  O258  1  0.56590771  0.06433750  0.27371739  1
  O  O259  1  0.56075531  0.06857592  0.77575468  1
  O  O260  1  0.57407120  0.41779658  0.27076445  1
  O  O261  1  0.55457501  0.39221440  0.77036597  1
  O  O262  1  0.57483474  0.73822168  0.27624690  1
  O  O263  1  0.57371391  0.74261777  0.78433427  1
  O  O264  1  0.90163687  0.06584947  0.28287734  1
  O  O265  1  0.90620142  0.08312514  0.75353702  1
  O  O266  1  0.90360317  0.40968160  0.27053163  1
  O  O267  1  0.91166317  0.41745557  0.77353103  1
  O  O268  1  0.90483786  0.73985940  0.27892428  1
  O  O269  1  0.90669866  0.72774897  0.77542235  1
  O  O270  1  0.26451585  0.23075077  0.27775347  1
  O  O271  1  0.25885183  0.24700405  0.77060661  1
  O  O272  1  0.26229051  0.57965458  0.27456644  1
  O  O273  1  0.25454306  0.57969638  0.77543719  1
  O  O274  1  0.24878598  0.91631461  0.28341198  1
  O  O275  1  0.27430192  0.90600934  0.77306380  1
  O  O276  1  0.59061756  0.23259607  0.25819792  1
  O  O277  1  0.58410677  0.23209745  0.76524234  1
  O  O278  1  0.60103304  0.57448872  0.27354916  1
  O  O279  1  0.58926647  0.58000809  0.76066509  1
  O  O280  1  0.59602005  0.90432084  0.27737899  1
  O  O281  1  0.58908904  0.90703686  0.78292238  1
  O  O282  1  0.92757314  0.22372907  0.27653039  1
  O  O283  1  0.91725518  0.24207989  0.75814432  1
  O  O284  1  0.93332404  0.57672776  0.28008000  1
  O  O285  1  0.93287698  0.57667203  0.77870213  1
  O  O286  1  0.92805656  0.90532027  0.28260228  1
  O  O287  1  0.92738442  0.90481802  0.76183162  1
  O  O288  1  0.27040326  0.23707630  0.47938425  1
  O  O289  1  0.25780178  0.24500428  0.98474287  1
  O  O290  1  0.26234672  0.56534506  0.48702098  1
  O  O291  1  0.26222653  0.58150184  0.97545344  1
  O  O292  1  0.25671350  0.90978550  0.47766513  1
  O  O293  1  0.27434410  0.89234728  0.98261640  1
  O  O294  1  0.59044687  0.23270140  0.48675143  1
  O  O295  1  0.58798398  0.23275471  0.98759410  1
  O  O296  1  0.60242334  0.57712871  0.46815744  1
  O  O297  1  0.60019685  0.58170096  0.99040237  1
  O  O298  1  0.59824243  0.90423633  0.46865555  1
  O  O299  1  0.59405913  0.90044931  0.97558358  1
  O  O300  1  0.92413260  0.22730150  0.47763436  1
  O  O301  1  0.92417337  0.24215041  0.98466282  1
  O  O302  1  0.92426566  0.57139019  0.46584996  1
  O  O303  1  0.92441111  0.57612770  0.97029926  1
  O  O304  1  0.93351846  0.90696347  0.46873151  1
  O  O305  1  0.91617610  0.90066515  0.98868768  1
  O  O306  1  0.23974338  0.07271369  0.47125606  1
  O  O307  1  0.23949433  0.07030424  0.99003055  1
  O  O308  1  0.24035867  0.40284350  0.48344286  1
  O  O309  1  0.23092098  0.40336147  0.96968442  1
  O  O310  1  0.23812461  0.72991585  0.47128539  1
  O  O311  1  0.24237501  0.73279320  0.97551884  1
  O  O312  1  0.56372221  0.06715659  0.47477417  1
  O  O313  1  0.56684740  0.06203098  0.98021364  1
  O  O314  1  0.57997406  0.41387190  0.46997395  1
  O  O315  1  0.56479896  0.40093296  0.97432429  1
  O  O316  1  0.57517468  0.73524613  0.46413566  1
  O  O317  1  0.57507088  0.73948814  0.97294966  1
  O  O318  1  0.90342753  0.06536516  0.47117682  1
  O  O319  1  0.89327286  0.06454105  1.00022164  1
  O  O320  1  0.90132514  0.41716620  0.47709518  1
  O  O321  1  0.89788770  0.41889675  0.97347383  1
  O  O322  1  0.90718269  0.73825994  0.46394206  1
  O  O323  1  0.89531318  0.74070933  0.98149437  1
  O  O324  1  0.09208566  0.25308822  0.23228670  1
  O  O325  1  0.09860961  0.25386103  0.74201440  1
  O  O326  1  0.09595966  0.60235493  0.22760416  1
  O  O327  1  0.10181293  0.59925026  0.72341126  1
  O  O328  1  0.08411030  0.93178061  0.23777117  1
  O  O329  1  0.10262830  0.93116951  0.72120077  1
  O  O330  1  0.43095019  0.25653951  0.23503258  1
  O  O331  1  0.43037700  0.26555304  0.72515517  1
  O  O332  1  0.43177717  0.59856082  0.23190379  1
  O  O333  1  0.41739087  0.58899688  0.71505190  1
  O  O334  1  0.42574698  0.91488824  0.23960715  1
  O  O335  1  0.42607004  0.92990947  0.73366881  1
  O  O336  1  0.76437844  0.24801037  0.23199903  1
  O  O337  1  0.75406990  0.25175149  0.72441482  1
  O  O338  1  0.76198458  0.60280146  0.23880957  1
  O  O339  1  0.76114647  0.59786680  0.72152304  1
  O  O340  1  0.76823165  0.93885488  0.23426719  1
  O  O341  1  0.75408830  0.92494052  0.73658234  1
  O  O342  1  0.06020871  0.09976187  0.23259000  1
  O  O343  1  0.08728176  0.09004958  0.73088335  1
  O  O344  1  0.06303934  0.43850252  0.23822416  1
  O  O345  1  0.08242951  0.43517291  0.73568825  1
  O  O346  1  0.07209906  0.75559117  0.22910022  1
  O  O347  1  0.07546653  0.74798277  0.72750535  1
  O  O348  1  0.40698532  0.09803467  0.23898120  1
  O  O349  1  0.40484730  0.09454917  0.73272791  1
  O  O350  1  0.41023564  0.42962264  0.23604603  1
  O  O351  1  0.39951125  0.42573757  0.71729863  1
  O  O352  1  0.40505216  0.76126990  0.22478986  1
  O  O353  1  0.41019240  0.74563991  0.72738416  1
  O  O354  1  0.73676936  0.09331457  0.22262713  1
  O  O355  1  0.73484969  0.09933710  0.72522243  1
  O  O356  1  0.73132239  0.43967851  0.22633434  1
  O  O357  1  0.73070438  0.43447594  0.72305759  1
  O  O358  1  0.73394916  0.77077763  0.23998725  1
  O  O359  1  0.74374358  0.75549937  0.72664008  1
