# generated using pymatgen
data_BaLaInIrO6
_symmetry_space_group_name_H-M   'P 1'
_cell_length_a   17.53841179
_cell_length_b   17.57596517
_cell_length_c   16.49377645
_cell_angle_alpha   90.04972677
_cell_angle_beta   89.95985813
_cell_angle_gamma   90.09992202
_symmetry_Int_Tables_number   1
_chemical_formula_structural   BaLaInIrO6
_chemical_formula_sum   'Ba36 La36 In36 Ir36 O216'
_cell_volume   5084.27016673
_cell_formula_units_Z   36
loop_
 _symmetry_equiv_pos_site_id
 _symmetry_equiv_pos_as_xyz
  1  'x, y, z'
loop_
 _atom_site_type_symbol
 _atom_site_label
 _atom_site_symmetry_multiplicity
 _atom_site_fract_x
 _atom_site_fract_y
 _atom_site_fract_z
 _atom_site_occupancy
  Ba  Ba0  1  0.83879255  0.33438906  0.62327877  1
  Ba  Ba1  1  0.49868926  0.99673926  0.87131054  1
  Ba  Ba2  1  0.00160567  0.48918482  0.37133542  1
  Ba  Ba3  1  0.82967142  0.68007782  0.12513971  1
  Ba  Ba4  1  0.50006048  0.32794344  0.87717117  1
  Ba  Ba5  1  0.16660064  0.67210797  0.12899034  1
  Ba  Ba6  1  0.33670173  0.50575953  0.12103271  1
  Ba  Ba7  1  0.16644879  0.65794026  0.87186606  1
  Ba  Ba8  1  0.65960974  0.16041393  0.87065625  1
  Ba  Ba9  1  0.65902000  0.82680297  0.87355760  1
  Ba  Ba10  1  1.00101494  0.17182463  0.62448566  1
  Ba  Ba11  1  0.16123486  0.01246577  0.62649378  1
  Ba  Ba12  1  0.16855577  0.34123109  0.12160221  1
  Ba  Ba13  1  0.33382430  0.50675829  0.62498644  1
  Ba  Ba14  1  0.66755097  0.51037907  0.12303477  1
  Ba  Ba15  1  0.50231788  0.00621827  0.12322064  1
  Ba  Ba16  1  0.49594613  0.67567515  0.12480024  1
  Ba  Ba17  1  0.83382938  0.32189375  0.87237356  1
  Ba  Ba18  1  0.50386810  0.64902910  0.37562136  1
  Ba  Ba19  1  0.33042785  0.48799816  0.37433250  1
  Ba  Ba20  1  0.50337053  0.99063258  0.37227977  1
  Ba  Ba21  1  -0.00187996  0.16079007  0.37512832  1
  Ba  Ba22  1  1.00076450  0.84326463  0.62491039  1
  Ba  Ba23  1  0.83273873  0.67728575  0.62591108  1
  Ba  Ba24  1  0.16436694  0.67753856  0.62620649  1
  Ba  Ba25  1  0.83355193  0.99600207  0.37713832  1
  Ba  Ba26  1  0.83203929  0.32261886  0.37686835  1
  Ba  Ba27  1  0.67137332  0.50719864  0.62493232  1
  Ba  Ba28  1  0.32860451  0.15816918  0.87387982  1
  Ba  Ba29  1  -0.00226002  0.82692331  0.37712900  1
  Ba  Ba30  1  0.66448119  0.15824542  0.37664035  1
  Ba  Ba31  1  0.83573013  0.01090207  0.62522860  1
  Ba  Ba32  1  0.50242572  0.65559405  0.87433402  1
  Ba  Ba33  1  1.00025142  0.84162026  0.12757707  1
  Ba  Ba34  1  0.33344627  0.18190802  0.62415406  1
  Ba  Ba35  1  0.17006756  0.32577759  0.87713995  1
  La  La36  1  0.49403587  0.01797958  0.62247564  1
  La  La37  1  0.34037231  0.18405821  0.12713539  1
  La  La38  1  0.32796655  0.14672139  0.37479054  1
  La  La39  1  0.66708730  0.17812281  0.12669297  1
  La  La40  1  0.83393445  0.64959480  0.87508846  1
  La  La41  1  0.83274704  0.98883976  0.87301128  1
  La  La42  1  0.83782205  0.65359865  0.37699463  1
  La  La43  1  0.49480151  0.34936262  0.62760379  1
  La  La44  1  -0.00101628  0.15659418  0.87366317  1
  La  La45  1  0.50365957  0.32016668  0.37941022  1
  La  La46  1  1.00760285  0.51137195  0.61937416  1
  La  La47  1  0.34067352  0.84481932  0.12799923  1
  La  La48  1  0.66453935  0.84541311  0.12774984  1
  La  La49  1  0.17320088  0.98652786  0.87222271  1
  La  La50  1  0.17282574  0.64852209  0.37865493  1
  La  La51  1  0.66188033  0.48756417  0.87138022  1
  La  La52  1  0.32654397  0.82217335  0.87801488  1
  La  La53  1  0.66954382  0.48418123  0.37351344  1
  La  La54  1  0.49686998  0.34817503  0.12670046  1
  La  La55  1  0.16514992  0.01095427  0.12693191  1
  La  La56  1  0.66850259  0.17748532  0.62741466  1
  La  La57  1  0.99926267  0.17554279  0.12594758  1
  La  La58  1  0.82634865  0.01404727  0.12924114  1
  La  La59  1  -0.00402894  0.48440361  0.87276655  1
  La  La60  1  0.33521597  0.84697275  0.62420939  1
  La  La61  1  0.16981509  0.98095270  0.38090409  1
  La  La62  1  0.49955883  0.68098980  0.62754316  1
  La  La63  1  -0.00245579  0.81947891  0.87182886  1
  La  La64  1  0.16227719  0.34532577  0.62438618  1
  La  La65  1  0.82778651  0.34339201  0.13140662  1
  La  La66  1  0.66357204  0.82044901  0.37651858  1
  La  La67  1  1.01061127  0.51363083  0.12086946  1
  La  La68  1  0.17445285  0.32180395  0.37916163  1
  La  La69  1  0.33097260  0.81546521  0.37644781  1
  La  La70  1  0.32972133  0.48661137  0.87290222  1
  La  La71  1  0.67149227  0.85110374  0.62587274  1
  In  In72  1  0.33608307  0.33231077  -0.00166619  1
  In  In73  1  -0.00058690  0.66537201  0.74829385  1
  In  In74  1  0.66709823  0.67024044  -0.00169539  1
  In  In75  1  0.00039029  0.00013547  0.24829045  1
  In  In76  1  0.66843823  0.33103653  0.00238971  1
  In  In77  1  0.16541606  0.83430263  0.00448082  1
  In  In78  1  -0.00214042  0.33055618  0.00068632  1
  In  In79  1  0.83530862  0.49856009  -0.00009988  1
  In  In80  1  0.83563264  0.49928003  0.50076641  1
  In  In81  1  0.33452279  0.66592569  0.74839717  1
  In  In82  1  -0.00003869  0.00039795  0.75450397  1
  In  In83  1  0.83410561  0.49672852  0.74896575  1
  In  In84  1  0.33504833  0.66316634  0.25128979  1
  In  In85  1  0.83082064  0.83421242  0.50149888  1
  In  In86  1  -0.00208554  0.66862691  -0.00097564  1
  In  In87  1  0.16796923  0.16563877  0.24827349  1
  In  In88  1  0.66704481  0.66778529  0.24947289  1
  In  In89  1  0.33689756  0.66423771  0.50328230  1
  In  In90  1  -0.00175285  -0.00046647  0.00157772  1
  In  In91  1  0.83755962  0.50101041  0.24712143  1
  In  In92  1  0.66362933  0.33184637  0.50259057  1
  In  In93  1  0.17006980  0.16843892  0.50027903  1
  In  In94  1  0.49849229  0.83721486  0.74682631  1
  In  In95  1  0.00178971  0.00151609  0.49932002  1
  In  In96  1  0.33141487  0.66633427  -0.00109289  1
  In  In97  1  0.49612047  0.17011328  0.74962623  1
  In  In98  1  0.16605282  0.16519445  0.00282569  1
  In  In99  1  0.33080299  0.00189522  0.00075165  1
  In  In100  1  0.00254298  0.33226619  0.49595944  1
  In  In101  1  0.66891133  0.00351554  -0.00274639  1
  In  In102  1  0.49708643  0.16395355  0.25183234  1
  In  In103  1  0.16620188  0.49297882  0.24924940  1
  In  In104  1  0.49760361  0.83551082  -0.00158509  1
  In  In105  1  0.66769314  0.66631869  0.50141224  1
  In  In106  1  0.83183146  0.83574727  0.25117305  1
  In  In107  1  0.50106522  0.83496267  0.49968039  1
  Ir  Ir108  1  0.33460368  -0.00185304  0.49978490  1
  Ir  Ir109  1  0.50438876  0.49976174  0.74818063  1
  Ir  Ir110  1  0.16632768  0.17199075  0.75135964  1
  Ir  Ir111  1  0.82864330  0.16566638  0.50281603  1
  Ir  Ir112  1  0.82968835  0.16657752  0.75323068  1
  Ir  Ir113  1  0.16990324  0.83080220  0.49781258  1
  Ir  Ir114  1  0.50246612  0.49489627  0.49919288  1
  Ir  Ir115  1  0.50178402  0.49795731  -0.00395595  1
  Ir  Ir116  1  0.00553621  0.66607278  0.49530184  1
  Ir  Ir117  1  0.83191112  0.83868685  -0.00514224  1
  Ir  Ir118  1  0.66390516  0.33268080  0.74914789  1
  Ir  Ir119  1  0.00418239  0.33017018  0.74994805  1
  Ir  Ir120  1  0.16707405  0.83703764  0.74795052  1
  Ir  Ir121  1  0.50202607  0.49227438  0.25408290  1
  Ir  Ir122  1  0.32857193  -0.00514625  0.25594849  1
  Ir  Ir123  1  0.00289617  0.66760653  0.25482953  1
  Ir  Ir124  1  0.49612268  0.16643109  0.50113622  1
  Ir  Ir125  1  0.66747375  0.00080953  0.25247055  1
  Ir  Ir126  1  -0.00294367  0.32947700  0.24504072  1
  Ir  Ir127  1  0.33134232  0.33719898  0.74477203  1
  Ir  Ir128  1  0.66283364  0.33054831  0.24975446  1
  Ir  Ir129  1  0.16769414  0.49727038  0.50231752  1
  Ir  Ir130  1  0.32972268  0.00122408  0.74392259  1
  Ir  Ir131  1  0.50131936  0.16772827  0.00403547  1
  Ir  Ir132  1  0.33783488  0.33377877  0.49883478  1
  Ir  Ir133  1  0.33979412  0.33090069  0.25450510  1
  Ir  Ir134  1  0.16546518  0.49463492  0.75042029  1
  Ir  Ir135  1  0.49852968  0.83754271  0.25396002  1
  Ir  Ir136  1  0.17083089  0.83074831  0.25506030  1
  Ir  Ir137  1  0.83120818  0.16790523  0.24670041  1
  Ir  Ir138  1  0.16616313  0.50017671  -0.00430019  1
  Ir  Ir139  1  0.66616850  0.66687081  0.74928418  1
  Ir  Ir140  1  0.82650942  0.83411315  0.75583139  1
  Ir  Ir141  1  0.66664182  0.00276933  0.74476980  1
  Ir  Ir142  1  0.83260164  0.16339366  -0.00053628  1
  Ir  Ir143  1  0.66187405  0.00319316  0.50049134  1
  O  O144  1  0.32025608  0.32627769  0.13340219  1
  O  O145  1  0.30233823  0.33594813  0.62063316  1
  O  O146  1  0.31777751  0.66078229  0.12663234  1
  O  O147  1  0.31084687  0.65863742  0.62569727  1
  O  O148  1  0.29863450  0.98359065  0.13635842  1
  O  O149  1  0.30650606  0.98854967  0.62081743  1
  O  O150  1  0.63366271  0.32097129  0.13098034  1
  O  O151  1  0.63328747  0.32404658  0.62946650  1
  O  O152  1  0.64426865  0.66611447  0.12482247  1
  O  O153  1  0.63346158  0.65725897  0.62991071  1
  O  O154  1  0.65441961  0.98920609  0.13181901  1
  O  O155  1  0.63236694  0.99404486  0.62142250  1
  O  O156  1  0.96157001  0.31948987  0.12725979  1
  O  O157  1  0.99014207  0.32884275  0.63000261  1
  O  O158  1  0.98153673  0.65476385  0.13203585  1
  O  O159  1  0.98438764  0.65466330  0.61880916  1
  O  O160  1  0.96018621  0.99704428  0.12374637  1
  O  O161  1  0.98761621  1.00179589  0.62935793  1
  O  O162  1  0.20909400  0.15039584  0.12910801  1
  O  O163  1  0.18563552  0.17287316  0.63137901  1
  O  O164  1  0.18354238  0.50193850  0.11769259  1
  O  O165  1  0.18731232  0.48478763  0.62740443  1
  O  O166  1  0.20261740  0.82646692  0.13678255  1
  O  O167  1  0.19955825  0.83007566  0.62168336  1
  O  O168  1  0.52758054  0.16447092  0.12460352  1
  O  O169  1  0.52617697  0.15991929  0.62079992  1
  O  O170  1  0.52259934  0.48416114  0.12729408  1
  O  O171  1  0.52689212  0.48437279  0.62326082  1
  O  O172  1  0.52742370  0.83555859  0.13601080  1
  O  O173  1  0.53624550  0.82375120  0.62394466  1
  O  O174  1  0.86226355  0.15578793  0.12260028  1
  O  O175  1  0.85139099  0.16827562  0.62856280  1
  O  O176  1  0.87482300  0.48849890  0.12493970  1
  O  O177  1  0.86946327  0.49896277  0.62664090  1
  O  O178  1  0.85086802  0.83913915  0.11303796  1
  O  O179  1  0.84869231  0.83392420  0.63704993  1
  O  O180  1  0.15338134  0.18566963  0.37153361  1
  O  O181  1  0.13930383  0.17338029  0.87148966  1
  O  O182  1  0.15023062  0.49816493  0.38148719  1
  O  O183  1  0.13446310  0.49591852  0.87223101  1
  O  O184  1  0.14539864  0.84417729  0.37620903  1
  O  O185  1  0.13654041  0.84695622  0.86703104  1
  O  O186  1  0.46479520  0.17560620  0.38020346  1
  O  O187  1  0.48031007  0.16910579  0.88138711  1
  O  O188  1  0.47702779  0.48903708  0.37702787  1
  O  O189  1  0.47080055  0.49999136  0.87258776  1
  O  O190  1  0.46656327  0.84016437  0.37203002  1
  O  O191  1  0.46473383  0.84173599  0.86991166  1
  O  O192  1  0.80899536  0.16891508  0.37768131  1
  O  O193  1  0.80515782  0.16857957  0.87701184  1
  O  O194  1  0.80591857  0.50906053  0.37188408  1
  O  O195  1  0.79738715  0.50313099  0.87235015  1
  O  O196  1  0.79785176  0.83351252  0.37680467  1
  O  O197  1  0.80520841  0.84833107  0.87585732  1
  O  O198  1  0.03459945  0.00558208  0.37253626  1
  O  O199  1  0.03419039  0.01535287  0.87706842  1
  O  O200  1  0.03527426  0.33201027  0.36409400  1
  O  O201  1  0.02230396  0.33355670  0.86916368  1
  O  O202  1  0.03766778  0.67176201  0.37527316  1
  O  O203  1  0.01822458  0.68503023  0.87168870  1
  O  O204  1  0.35729960  0.00931687  0.37761671  1
  O  O205  1  0.34906524  0.00461148  0.86342302  1
  O  O206  1  0.36943864  0.33467299  0.37687013  1
  O  O207  1  0.35036402  0.34489186  0.86736570  1
  O  O208  1  0.35540075  0.67649423  0.37704706  1
  O  O209  1  0.35416688  0.68282773  0.87161830  1
  O  O210  1  0.68580286  0.00752195  0.37803801  1
  O  O211  1  0.69615539  0.00771632  0.86550677  1
  O  O212  1  0.68082106  0.34121652  0.37019473  1
  O  O213  1  0.68353791  0.34196010  0.87143535  1
  O  O214  1  0.69997005  0.68220203  0.37371287  1
  O  O215  1  0.69773391  0.67293241  0.86792246  1
  O  O216  1  0.06383111  0.10037002  0.02809354  1
  O  O217  1  0.07837434  0.09464391  0.51265264  1
  O  O218  1  0.07228472  0.43313093  0.01793584  1
  O  O219  1  0.07627836  0.43125836  0.52683886  1
  O  O220  1  0.06466703  0.76753090  0.00858710  1
  O  O221  1  0.07642419  0.76149650  0.51766657  1
  O  O222  1  0.40262581  0.10428735  0.02505688  1
  O  O223  1  0.40357442  0.09251619  0.52224186  1
  O  O224  1  0.41521603  0.42281406  0.01427569  1
  O  O225  1  0.40930482  0.42405922  0.52348731  1
  O  O226  1  0.39937725  0.76716733  0.02481021  1
  O  O227  1  0.40023497  0.76832727  0.52457421  1
  O  O228  1  0.73902607  0.09985184  0.03105634  1
  O  O229  1  0.72881672  0.09783519  0.52630559  1
  O  O230  1  0.75042602  0.41480029  0.03111055  1
  O  O231  1  0.73644960  0.42571054  0.50636899  1
  O  O232  1  0.73488662  0.78039224  0.01980587  1
  O  O233  1  0.73140602  0.77037035  0.52896518  1
  O  O234  1  0.08750065  0.25592330  0.02610831  1
  O  O235  1  0.10844726  0.27452005  0.51174210  1
  O  O236  1  0.09348966  0.58697682  0.01412254  1
  O  O237  1  0.09817405  0.59205665  0.51787236  1
  O  O238  1  0.10172716  0.93611014  0.02846705  1
  O  O239  1  0.10402157  0.92243529  0.51112619  1
  O  O240  1  0.43531015  0.26042180  0.02836096  1
  O  O241  1  0.43529251  0.26882176  0.52290932  1
  O  O242  1  0.42923432  0.58434050  0.01042227  1
  O  O243  1  0.44262489  0.59357885  0.52246476  1
  O  O244  1  0.41813306  0.92571825  0.02519472  1
  O  O245  1  0.42688874  0.93224381  0.52881143  1
  O  O246  1  0.76673181  0.25461274  0.03130428  1
  O  O247  1  0.75109437  0.24880643  0.52217539  1
  O  O248  1  0.76596765  0.59954374  0.00721086  1
  O  O249  1  0.76793064  0.60000922  0.50887380  1
  O  O250  1  0.77685050  0.94105662  0.01103786  1
  O  O251  1  0.74946124  0.93453410  0.52116483  1
  O  O252  1  0.23617516  0.06083161  0.28166258  1
  O  O253  1  0.23224622  0.07207460  0.77245471  1
  O  O254  1  0.24092264  0.39375651  0.27319117  1
  O  O255  1  0.24169281  0.40954199  0.77044149  1
  O  O256  1  0.23537186  0.74004828  0.28423921  1
  O  O257  1  0.24161823  0.75325361  0.76872752  1
  O  O258  1  0.57710485  0.07192458  0.26362128  1
  O  O259  1  0.57589343  0.07360274  0.75549219  1
  O  O260  1  0.56976727  0.39829354  0.27701074  1
  O  O261  1  0.57727023  0.41012512  0.77288446  1
  O  O262  1  0.57036072  0.75070092  0.27727279  1
  O  O263  1  0.57422227  0.73313007  0.76138867  1
  O  O264  1  0.90242416  0.08124301  0.26379924  1
  O  O265  1  0.90192118  0.07853550  0.78125929  1
  O  O266  1  0.90856393  0.39837354  0.26551624  1
  O  O267  1  0.91744512  0.40366130  0.77008482  1
  O  O268  1  0.90977867  0.73581632  0.27247106  1
  O  O269  1  0.89585454  0.74352331  0.77770178  1
  O  O270  1  0.27576030  0.23598334  0.27262492  1
  O  O271  1  0.26187453  0.24422428  0.76619427  1
  O  O272  1  0.24919127  0.57757603  0.27297334  1
  O  O273  1  0.26002313  0.56262108  0.77470264  1
  O  O274  1  0.26573719  0.89730328  0.28252910  1
  O  O275  1  0.26147696  0.90708439  0.77166085  1
  O  O276  1  0.58982338  0.24431776  0.27137050  1
  O  O277  1  0.58953846  0.24754826  0.76318402  1
  O  O278  1  0.59579819  0.55920999  0.27551475  1
  O  O279  1  0.60184710  0.56747650  0.77381585  1
  O  O280  1  0.60222987  0.90277602  0.27337184  1
  O  O281  1  0.59541778  0.91439886  0.76164101  1
  O  O282  1  0.92563138  0.23820247  0.26632856  1
  O  O283  1  0.93373348  0.23418854  0.77447703  1
  O  O284  1  0.92771610  0.58474906  0.27806415  1
  O  O285  1  0.92563133  0.57295374  0.78343531  1
  O  O286  1  0.92454393  0.90880109  0.26855198  1
  O  O287  1  0.91957815  0.90469508  0.78079782  1
  O  O288  1  0.27312199  0.24056778  0.47198692  1
  O  O289  1  0.26470549  0.23794785  0.99572009  1
  O  O290  1  0.25421918  0.57210851  0.48058806  1
  O  O291  1  0.26050405  0.56514583  0.97015496  1
  O  O292  1  0.26806735  0.89952669  0.47522098  1
  O  O293  1  0.26000333  0.90488180  0.96794117  1
  O  O294  1  0.58343705  0.23844989  0.48058090  1
  O  O295  1  0.59510070  0.23437985  0.99151186  1
  O  O296  1  0.59918277  0.55629002  0.47384111  1
  O  O297  1  0.59528305  0.56425791  0.97324422  1
  O  O298  1  0.60053115  0.90743258  0.47730394  1
  O  O299  1  0.59446079  0.91125667  0.99218605  1
  O  O300  1  0.91805864  0.23906739  0.48879813  1
  O  O301  1  0.92758256  0.22559552  0.97780317  1
  O  O302  1  0.93549948  0.57885878  0.47714529  1
  O  O303  1  0.93150409  0.57152610  0.96860887  1
  O  O304  1  0.92211080  0.91068861  0.48842406  1
  O  O305  1  0.92944490  0.89928742  0.96682903  1
  O  O306  1  0.24405404  0.06866219  0.47256647  1
  O  O307  1  0.22773417  0.06182070  0.98077369  1
  O  O308  1  0.23584124  0.39821083  0.48072483  1
  O  O309  1  0.24415203  0.41553980  0.98259473  1
  O  O310  1  0.23543896  0.73944334  0.47254143  1
  O  O311  1  0.23933270  0.74375110  0.97650050  1
  O  O312  1  0.56216217  0.06950973  0.48878796  1
  O  O313  1  0.57035613  0.07890357  0.98594963  1
  O  O314  1  0.56185219  0.39811310  0.48156760  1
  O  O315  1  0.57621539  0.41141593  0.98580642  1
  O  O316  1  0.57330275  0.73910623  0.47822315  1
  O  O317  1  0.57115563  0.74107644  0.98297998  1
  O  O318  1  0.90347907  0.08217102  0.48795335  1
  O  O319  1  0.89555869  0.07034933  0.97124565  1
  O  O320  1  0.91314676  0.40824887  0.48161022  1
  O  O321  1  0.91524506  0.41037954  0.96875878  1
  O  O322  1  0.90980612  0.73156616  0.47676309  1
  O  O323  1  0.89094825  0.74061749  0.97289164  1
  O  O324  1  0.08356824  0.25688669  0.22058819  1
  O  O325  1  0.10260020  0.26777168  0.72847117  1
  O  O326  1  0.08470205  0.58795477  0.23780681  1
  O  O327  1  0.08969206  0.57893119  0.72882871  1
  O  O328  1  0.10901077  0.92718237  0.23125676  1
  O  O329  1  0.09669359  0.92464066  0.73542439  1
  O  O330  1  0.43193869  0.26552682  0.22753482  1
  O  O331  1  0.42439015  0.26898892  0.72444982  1
  O  O332  1  0.43190037  0.58211302  0.23780549  1
  O  O333  1  0.44045415  0.59365960  0.72467903  1
  O  O334  1  0.42223089  0.92626769  0.22820263  1
  O  O335  1  0.42079686  0.93282106  0.71485261  1
  O  O336  1  0.75445852  0.25793143  0.21908233  1
  O  O337  1  0.74915351  0.25421756  0.72382989  1
  O  O338  1  0.76181336  0.59305971  0.23305271  1
  O  O339  1  0.75735254  0.59925188  0.73591000  1
  O  O340  1  0.76022626  0.93764826  0.22990338  1
  O  O341  1  0.75608183  0.92828199  0.72919606  1
  O  O342  1  0.07541862  0.09144011  0.21337757  1
  O  O343  1  0.07507197  0.10492463  0.74200755  1
  O  O344  1  0.06437375  0.42319920  0.21932404  1
  O  O345  1  0.07019403  0.42606642  0.72423895  1
  O  O346  1  0.07788758  0.75970648  0.23293863  1
  O  O347  1  0.07661139  0.76455101  0.73430645  1
  O  O348  1  0.39071944  0.09554687  0.23459804  1
  O  O349  1  0.40541835  0.08839152  0.72498114  1
  O  O350  1  0.41007162  0.42103796  0.22893995  1
  O  O351  1  0.40989514  0.42683510  0.72746948  1
  O  O352  1  0.40313788  0.77223931  0.23459361  1
  O  O353  1  0.40782988  0.76181257  0.71266707  1
  O  O354  1  0.73555592  0.09768935  0.22299058  1
  O  O355  1  0.73439949  0.09881389  0.72370814  1
  O  O356  1  0.73952066  0.41544675  0.22969164  1
  O  O357  1  0.73949514  0.41649414  0.73226246  1
  O  O358  1  0.73132788  0.77321627  0.22596486  1
  O  O359  1  0.72928647  0.76553404  0.72652314  1
