# generated using pymatgen
data_BaLaInIrO6
_symmetry_space_group_name_H-M   'P 1'
_cell_length_a   17.51885218
_cell_length_b   17.54304364
_cell_length_c   16.47859212
_cell_angle_alpha   90.01532046
_cell_angle_beta   89.98896191
_cell_angle_gamma   90.02945412
_symmetry_Int_Tables_number   1
_chemical_formula_structural   BaLaInIrO6
_chemical_formula_sum   'Ba36 La36 In36 Ir36 O216'
_cell_volume   5064.43049426
_cell_formula_units_Z   36
loop_
 _symmetry_equiv_pos_site_id
 _symmetry_equiv_pos_as_xyz
  1  'x, y, z'
loop_
 _atom_site_type_symbol
 _atom_site_label
 _atom_site_symmetry_multiplicity
 _atom_site_fract_x
 _atom_site_fract_y
 _atom_site_fract_z
 _atom_site_occupancy
  Ba  Ba0  1  0.33062063  0.50422364  0.12437819  1
  Ba  Ba1  1  0.16224367  0.67314793  0.12500467  1
  Ba  Ba2  1  0.16274358  0.33070809  0.87606191  1
  Ba  Ba3  1  0.49893679  0.32622972  0.37333859  1
  Ba  Ba4  1  0.83399755  0.99071658  0.37393438  1
  Ba  Ba5  1  0.33298461  0.17509415  0.62753240  1
  Ba  Ba6  1  0.83777162  0.32405098  0.87210845  1
  Ba  Ba7  1  0.83173718  0.65291059  0.87562061  1
  Ba  Ba8  1  0.00109258  0.49026200  0.37137712  1
  Ba  Ba9  1  0.49705247  0.67183458  0.12459031  1
  Ba  Ba10  1  0.83670533  0.98436367  0.87530556  1
  Ba  Ba11  1  0.67056593  0.50906774  0.62631258  1
  Ba  Ba12  1  0.33225805  0.49514963  0.87184293  1
  Ba  Ba13  1  0.33515045  0.82660132  0.37440687  1
  Ba  Ba14  1  0.66626008  0.48995263  0.87060886  1
  Ba  Ba15  1  0.16689108  0.01044370  0.62687450  1
  Ba  Ba16  1  0.82675616  0.67433724  0.63087251  1
  Ba  Ba17  1  0.83244665  0.34566983  0.62865346  1
  Ba  Ba18  1  0.33298320  0.82305475  0.87652739  1
  Ba  Ba19  1  0.99854484  0.50985064  0.63028194  1
  Ba  Ba20  1  0.16440978  0.99314686  0.87652324  1
  Ba  Ba21  1  0.16603331  0.00744814  0.12332490  1
  Ba  Ba22  1  0.83083592  0.68051437  0.11600133  1
  Ba  Ba23  1  0.50202058  0.99059310  0.37636200  1
  Ba  Ba24  1  0.16864180  0.32705519  0.37675948  1
  Ba  Ba25  1  1.00223519  0.17279592  0.12372354  1
  Ba  Ba26  1  0.33294717  0.17044897  0.12435998  1
  Ba  Ba27  1  0.49922199  0.34346014  0.12400555  1
  Ba  Ba28  1  0.50394347  0.67460377  0.63103813  1
  Ba  Ba29  1  1.00421413  0.50583453  0.12084316  1
  Ba  Ba30  1  0.16768045  0.66055064  0.37645980  1
  Ba  Ba31  1  0.50158545  0.65970246  0.37538179  1
  Ba  Ba32  1  -0.00312036  0.15671894  0.37415914  1
  Ba  Ba33  1  0.33261456  0.15797424  0.37575382  1
  Ba  Ba34  1  0.99573859  0.83696176  0.62627130  1
  Ba  Ba35  1  0.66217702  0.82592133  0.37415392  1
  La  La36  1  0.51232417  0.98515172  0.87241761  1
  La  La37  1  0.32553810  0.48812314  0.36895830  1
  La  La38  1  0.67424738  0.18296256  0.12362491  1
  La  La39  1  0.82756358  0.35392662  0.12408017  1
  La  La40  1  0.33552876  0.84372133  0.12400647  1
  La  La41  1  1.00008869  0.84617309  0.12137081  1
  La  La42  1  0.67194053  0.49263774  0.37415657  1
  La  La43  1  0.50123419  0.32109060  0.87659969  1
  La  La44  1  0.49811879  0.01184940  0.62226947  1
  La  La45  1  -0.00674133  0.48555401  0.87541902  1
  La  La46  1  0.67018792  0.51608406  0.12178161  1
  La  La47  1  -0.00814743  0.82196149  0.36929481  1
  La  La48  1  0.33023590  0.15767208  0.87577086  1
  La  La49  1  0.16800841  0.65292569  0.87497024  1
  La  La50  1  0.67160948  0.85383853  0.12112006  1
  La  La51  1  0.16008505  0.68055390  0.62982438  1
  La  La52  1  0.16771651  0.99183507  0.37852096  1
  La  La53  1  0.16274032  0.34677184  0.62359677  1
  La  La54  1  0.33407931  0.84658862  0.62230574  1
  La  La55  1  0.49787446  0.35506757  0.62604101  1
  La  La56  1  1.00431273  0.17985287  0.62670809  1
  La  La57  1  0.67273660  0.18453629  0.62666408  1
  La  La58  1  0.66318823  0.81311398  0.87571459  1
  La  La59  1  0.67529669  0.84739915  0.62693154  1
  La  La60  1  -0.00631575  0.81513575  0.87732974  1
  La  La61  1  0.82745582  0.01711335  0.62836866  1
  La  La62  1  0.66078686  0.14912736  0.37465559  1
  La  La63  1  0.82909186  0.01661636  0.12355488  1
  La  La64  1  0.50229031  0.64689909  0.87849137  1
  La  La65  1  0.33624176  0.51424978  0.62247799  1
  La  La66  1  0.84229100  0.65557573  0.37635501  1
  La  La67  1  -0.00760373  0.15116740  0.87039625  1
  La  La68  1  0.84314978  0.32122775  0.37551193  1
  La  La69  1  0.16818605  0.34104134  0.13446722  1
  La  La70  1  0.49419409  0.00763651  0.12976053  1
  La  La71  1  0.66589607  0.15177525  0.87336777  1
  In  In72  1  -0.00421278  0.33154667  0.24782692  1
  In  In73  1  0.83537611  0.50113447  0.50044841  1
  In  In74  1  0.82976955  0.83502170  0.24509310  1
  In  In75  1  0.50317434  0.82936476  0.00018951  1
  In  In76  1  -0.00256918  -0.00385771  0.74719870  1
  In  In77  1  0.50099538  0.50112980  0.25116256  1
  In  In78  1  0.66975329  0.33430906  0.25160211  1
  In  In79  1  0.50084043  0.16863230  0.74791406  1
  In  In80  1  0.00066928  0.66587160  0.50269542  1
  In  In81  1  0.83199769  0.83402139  0.49896133  1
  In  In82  1  -0.00198233  0.33029599  0.00056501  1
  In  In83  1  -0.00288830  -0.00087238  0.00080231  1
  In  In84  1  0.50071204  0.83138153  0.50378144  1
  In  In85  1  0.16465747  0.83521976  0.50135372  1
  In  In86  1  -0.00202064  -0.00097179  0.50036150  1
  In  In87  1  0.33394147  0.67101705  0.74946870  1
  In  In88  1  0.16396197  0.50246344  0.24861903  1
  In  In89  1  0.33758183  -0.00068923  0.75279156  1
  In  In90  1  0.16501337  0.17082958  -0.00246296  1
  In  In91  1  0.33439235  0.33446027  -0.00377393  1
  In  In92  1  0.50407289  0.16491475  0.00016724  1
  In  In93  1  0.16742495  0.50233426  0.50299839  1
  In  In94  1  0.16704437  0.83015555  -0.00062167  1
  In  In95  1  0.66831166  0.33399337  0.49701736  1
  In  In96  1  0.50393920  0.16938173  0.50242647  1
  In  In97  1  0.33507274  0.32950798  0.24877755  1
  In  In98  1  0.66905394  0.66810322  0.49753621  1
  In  In99  1  0.16523319  0.17065595  0.75149495  1
  In  In100  1  0.49859503  0.50232021  0.49728645  1
  In  In101  1  0.66802159  0.33399206  -0.00242612  1
  In  In102  1  0.83132818  0.16674965  0.49974227  1
  In  In103  1  0.33178289  -0.00150739  0.25319544  1
  In  In104  1  0.16364244  0.83242032  0.24962015  1
  In  In105  1  0.50399830  0.83009553  0.24695590  1
  In  In106  1  0.33373166  0.33339537  0.50559621  1
  In  In107  1  0.33754121  -0.00115577  -0.00115777  1
  Ir  Ir108  1  0.83381079  0.50220199  -0.00014649  1
  Ir  Ir109  1  0.83096553  0.16558119  0.00033084  1
  Ir  Ir110  1  0.66994499  -0.00004798  -0.00346012  1
  Ir  Ir111  1  0.33279326  0.66729322  0.24885771  1
  Ir  Ir112  1  0.49846064  0.49856699  0.75241219  1
  Ir  Ir113  1  0.83065566  0.16733926  0.24584644  1
  Ir  Ir114  1  0.66581051  0.33119806  0.75313497  1
  Ir  Ir115  1  -0.00127951  0.66551663  -0.00112767  1
  Ir  Ir116  1  0.83060967  0.83104232  0.75527758  1
  Ir  Ir117  1  0.50594676  0.83455035  0.75021216  1
  Ir  Ir118  1  0.16760553  0.49980212  0.75110645  1
  Ir  Ir119  1  0.00109972  0.33449729  0.74599376  1
  Ir  Ir120  1  0.66609794  0.00114531  0.50700745  1
  Ir  Ir121  1  0.33338399  -0.00004073  0.50378879  1
  Ir  Ir122  1  0.00005699  0.33067571  0.50140333  1
  Ir  Ir123  1  0.16370158  0.16382976  0.25386773  1
  Ir  Ir124  1  0.50139416  0.50079587  -0.00299349  1
  Ir  Ir125  1  0.66894666  -0.00193211  0.75210239  1
  Ir  Ir126  1  0.83038138  0.50598882  0.24331754  1
  Ir  Ir127  1  -0.00563400  0.66818062  0.24417650  1
  Ir  Ir128  1  -0.00213917  0.00032066  0.24851255  1
  Ir  Ir129  1  0.33179371  0.66669897  0.50017542  1
  Ir  Ir130  1  0.16571998  0.83013752  0.75263599  1
  Ir  Ir131  1  0.33269688  0.66412648  0.00110688  1
  Ir  Ir132  1  0.83164814  0.83173038  -0.00207775  1
  Ir  Ir133  1  0.16523325  0.16645177  0.50040761  1
  Ir  Ir134  1  0.33470685  0.33811013  0.74943344  1
  Ir  Ir135  1  0.16296429  0.50323336  -0.00572719  1
  Ir  Ir136  1  0.66688484  0.00463672  0.24411494  1
  Ir  Ir137  1  0.83102914  0.16781433  0.75239695  1
  Ir  Ir138  1  0.66409968  0.66543262  -0.00099786  1
  Ir  Ir139  1  0.66261649  0.66701413  0.75590671  1
  Ir  Ir140  1  0.83348863  0.50044630  0.75585513  1
  Ir  Ir141  1  0.00174619  0.66608098  0.75594557  1
  Ir  Ir142  1  0.67208888  0.66697652  0.24385829  1
  Ir  Ir143  1  0.50800195  0.16206055  0.24975334  1
  O  O144  1  0.30320265  0.32628817  0.12206748  1
  O  O145  1  0.29900670  0.33084680  0.63497795  1
  O  O146  1  0.30910614  0.65958671  0.12591809  1
  O  O147  1  0.30188079  0.65685702  0.62089589  1
  O  O148  1  0.31331323  0.98660751  0.12681932  1
  O  O149  1  0.31526299  0.98845370  0.62379770  1
  O  O150  1  0.64956135  0.32253106  0.12476201  1
  O  O151  1  0.63647575  0.32290459  0.63371578  1
  O  O152  1  0.64476953  0.65200735  0.12085968  1
  O  O153  1  0.65353197  0.66254202  0.63587538  1
  O  O154  1  0.63653447  0.99313134  0.11931476  1
  O  O155  1  0.63718048  0.98765340  0.63005707  1
  O  O156  1  0.96004270  0.32957630  0.12369579  1
  O  O157  1  0.97925408  0.32020985  0.62422513  1
  O  O158  1  0.97566664  0.65747584  0.12064473  1
  O  O159  1  0.97799837  0.66608696  0.63778703  1
  O  O160  1  0.96379570  0.99095460  0.12891211  1
  O  O161  1  0.96053742  0.99159459  0.62665090  1
  O  O162  1  0.18240352  0.16529596  0.13440571  1
  O  O163  1  0.18351773  0.16902260  0.61979897  1
  O  O164  1  0.17621004  0.49238652  0.11535671  1
  O  O165  1  0.19851367  0.49013575  0.63345995  1
  O  O166  1  0.19969978  0.82902887  0.12582041  1
  O  O167  1  0.19781882  0.82123489  0.63245071  1
  O  O168  1  0.53985276  0.15474908  0.13000351  1
  O  O169  1  0.54011632  0.15358188  0.62729674  1
  O  O170  1  0.53172305  0.50028494  0.11713991  1
  O  O171  1  0.52026413  0.49757167  0.63373372  1
  O  O172  1  0.54052840  0.82538216  0.12234888  1
  O  O173  1  0.53752690  0.83095068  0.63381752  1
  O  O174  1  0.85406718  0.15309337  0.12316361  1
  O  O175  1  0.86199165  0.15824827  0.63311078  1
  O  O176  1  0.85651009  0.49558762  0.12093671  1
  O  O177  1  0.84720128  0.50494122  0.63497094  1
  O  O178  1  0.86197096  0.83571709  0.11730185  1
  O  O179  1  0.84606963  0.83055564  0.63574149  1
  O  O180  1  0.14380127  0.15978783  0.37902657  1
  O  O181  1  0.12427400  0.17795338  0.87217785  1
  O  O182  1  0.15170886  0.50287657  0.37620272  1
  O  O183  1  0.13425934  0.51315728  0.87075426  1
  O  O184  1  0.12973006  0.83646374  0.37400729  1
  O  O185  1  0.13284201  0.83095535  0.87064428  1
  O  O186  1  0.48679789  0.16308266  0.37043508  1
  O  O187  1  0.46966840  0.17894607  0.87145208  1
  O  O188  1  0.46019015  0.50282726  0.37528002  1
  O  O189  1  0.47930021  0.50755220  0.87463337  1
  O  O190  1  0.48850197  0.83498855  0.37469577  1
  O  O191  1  0.48299592  0.84546443  0.86990075  1
  O  O192  1  0.79957691  0.17808147  0.36700730  1
  O  O193  1  0.79978776  0.17120720  0.87803693  1
  O  O194  1  0.80528687  0.51351472  0.36193142  1
  O  O195  1  0.81503010  0.49493144  0.87857387  1
  O  O196  1  0.81118156  0.83542061  0.37000935  1
  O  O197  1  0.80006226  0.83066096  0.87692922  1
  O  O198  1  0.02924346  0.00255371  0.36692669  1
  O  O199  1  0.01115875  0.01136659  0.87269222  1
  O  O200  1  0.01314281  0.33227674  0.38033160  1
  O  O201  1  0.01215944  0.34365408  0.86794788  1
  O  O202  1  0.01420074  0.68053869  0.36428739  1
  O  O203  1  0.03025620  0.67584844  0.87776257  1
  O  O204  1  0.35235801  0.00169961  0.38392552  1
  O  O205  1  0.37746427  0.00989500  0.87436758  1
  O  O206  1  0.34874121  0.34498714  0.37726358  1
  O  O207  1  0.36928262  0.34362818  0.86596609  1
  O  O208  1  0.35514741  0.67320379  0.37431365  1
  O  O209  1  0.36221847  0.66787302  0.88016082  1
  O  O210  1  0.68821531  0.01436926  0.37858000  1
  O  O211  1  0.69447971  0.01339351  0.87383797  1
  O  O212  1  0.71013231  0.34712454  0.37126479  1
  O  O213  1  0.68894516  0.33517430  0.87110442  1
  O  O214  1  0.70466826  0.67305994  0.36054075  1
  O  O215  1  0.68486198  0.67568661  0.87756973  1
  O  O216  1  0.07238689  0.09271354  0.01046190  1
  O  O217  1  0.06841931  0.10411256  0.52286061  1
  O  O218  1  0.07133677  0.43466645  -0.00130474  1
  O  O219  1  0.07275021  0.41697902  0.52311845  1
  O  O220  1  0.06164253  0.76017483  0.02085231  1
  O  O221  1  0.07921871  0.75459874  0.52627187  1
  O  O222  1  0.42182174  0.08420964  0.03162902  1
  O  O223  1  0.40937687  0.08645673  0.52203754  1
  O  O224  1  0.41141379  0.43296810  0.01356982  1
  O  O225  1  0.40482067  0.43091551  0.53694889  1
  O  O226  1  0.39761816  0.75859315  0.02321463  1
  O  O227  1  0.39563252  0.76354523  0.52725916  1
  O  O228  1  0.73353016  0.09846080  0.02479635  1
  O  O229  1  0.73134592  0.09440878  0.53024259  1
  O  O230  1  0.74181390  0.43154513  0.02548775  1
  O  O231  1  0.73738390  0.43369100  0.50792141  1
  O  O232  1  0.72828127  0.76760365  0.01702479  1
  O  O233  1  0.73138607  0.77203592  0.52522737  1
  O  O234  1  0.10063668  0.27308910  0.03042490  1
  O  O235  1  0.09619832  0.26157468  0.52633751  1
  O  O236  1  0.09631353  0.60036048  0.00595809  1
  O  O237  1  0.10049307  0.59796131  0.52978405  1
  O  O238  1  0.08292148  0.91647260  0.02368788  1
  O  O239  1  0.10140767  0.93768415  0.50982537  1
  O  O240  1  0.43552922  0.26537635  0.00735977  1
  O  O241  1  0.43456196  0.26578591  0.52942525  1
  O  O242  1  0.43255647  0.59785455  0.00931603  1
  O  O243  1  0.42118781  0.59961388  0.52395882  1
  O  O244  1  0.43301289  0.92190577  0.02960208  1
  O  O245  1  0.42514710  0.92875801  0.52963231  1
  O  O246  1  0.77027079  0.26127677  0.02533933  1
  O  O247  1  0.75883607  0.25718654  0.52769096  1
  O  O248  1  0.75474237  0.58903510  0.02055761  1
  O  O249  1  0.77004780  0.60412993  0.50036558  1
  O  O250  1  0.76432590  0.92870562  0.02635530  1
  O  O251  1  0.76215235  0.93788205  0.52942006  1
  O  O252  1  0.23261440  0.07391071  0.27324650  1
  O  O253  1  0.24916643  0.08308146  0.77393865  1
  O  O254  1  0.24405391  0.41169251  0.25986166  1
  O  O255  1  0.23808473  0.40586236  0.76978831  1
  O  O256  1  0.24415581  0.73675223  0.26514701  1
  O  O257  1  0.23162695  0.73661935  0.77379981  1
  O  O258  1  0.57794051  0.07352153  0.27069288  1
  O  O259  1  0.57772119  0.06648891  0.77799305  1
  O  O260  1  0.58559826  0.41639925  0.28078562  1
  O  O261  1  0.56569592  0.39745064  0.77067971  1
  O  O262  1  0.58201334  0.73257203  0.26391762  1
  O  O263  1  0.56929073  0.73801481  0.78206719  1
  O  O264  1  0.90104012  0.07227910  0.26323822  1
  O  O265  1  0.90004984  0.08000547  0.77122766  1
  O  O266  1  0.89273171  0.40900701  0.26809070  1
  O  O267  1  0.91217726  0.41385346  0.77128744  1
  O  O268  1  0.90488538  0.73803276  0.26578059  1
  O  O269  1  0.90867222  0.74136382  0.78113717  1
  O  O270  1  0.25193374  0.23556677  0.26750079  1
  O  O271  1  0.27069156  0.24422937  0.77645189  1
  O  O272  1  0.26553193  0.57437779  0.27024298  1
  O  O273  1  0.25141484  0.57670838  0.76872617  1
  O  O274  1  0.24602778  0.91581655  0.28191348  1
  O  O275  1  0.25722995  0.90124362  0.76508537  1
  O  O276  1  0.60249033  0.22978472  0.27057760  1
  O  O277  1  0.60018424  0.23845320  0.77849442  1
  O  O278  1  0.60859123  0.57215417  0.26715631  1
  O  O279  1  0.58496770  0.57907140  0.77940278  1
  O  O280  1  0.60046797  0.91289392  0.25697744  1
  O  O281  1  0.60317796  0.90127370  0.77862044  1
  O  O282  1  0.91547142  0.24100993  0.27313937  1
  O  O283  1  0.93232388  0.23591221  0.76935914  1
  O  O284  1  0.91962697  0.57955693  0.27279285  1
  O  O285  1  0.93199253  0.57061580  0.77951337  1
  O  O286  1  0.93228027  0.90683994  0.26805800  1
  O  O287  1  0.92589220  0.89397181  0.77655345  1
  O  O288  1  0.25625794  0.23450647  0.48620238  1
  O  O289  1  0.26528823  0.23893811  0.96666034  1
  O  O290  1  0.27492866  0.56743647  0.48028754  1
  O  O291  1  0.25554965  0.57571393  0.97624341  1
  O  O292  1  0.26436670  0.90861769  0.48935720  1
  O  O293  1  0.25948212  0.90614499  0.98032390  1
  O  O294  1  0.60649599  0.22991560  0.47455058  1
  O  O295  1  0.60668900  0.22896826  0.97804507  1
  O  O296  1  0.60155771  0.56583754  0.47245137  1
  O  O297  1  0.59399540  0.57313516  0.97679707  1
  O  O298  1  0.60027164  0.91000611  0.49352485  1
  O  O299  1  0.60601187  0.90483860  0.97231280  1
  O  O300  1  0.92642403  0.24427923  0.48413903  1
  O  O301  1  0.92811155  0.22747903  0.97378544  1
  O  O302  1  0.92978133  0.57201531  0.47842930  1
  O  O303  1  0.93145586  0.56843778  0.97444841  1
  O  O304  1  0.93411313  0.89722154  0.47330565  1
  O  O305  1  0.92752273  0.89350828  0.97754575  1
  O  O306  1  0.23418253  0.06827477  0.47890593  1
  O  O307  1  0.25118320  0.08359385  0.97401832  1
  O  O308  1  0.23903103  0.40693885  0.49395649  1
  O  O309  1  0.23435668  0.41490181  0.98593097  1
  O  O310  1  0.24347309  0.73667597  0.48814285  1
  O  O311  1  0.23773161  0.72801509  0.97640146  1
  O  O312  1  0.57551047  0.06719892  0.48851940  1
  O  O313  1  0.57876603  0.06609509  0.96701222  1
  O  O314  1  0.56636267  0.39984415  0.49524149  1
  O  O315  1  0.56597048  0.40451360  0.97573663  1
  O  O316  1  0.57140443  0.73595842  0.49031891  1
  O  O317  1  0.57230027  0.73241902  0.97052747  1
  O  O318  1  0.90031547  0.07120031  0.48840847  1
  O  O319  1  0.89470528  0.07128072  0.98885045  1
  O  O320  1  0.90605840  0.39856160  0.47915116  1
  O  O321  1  0.90539277  0.41270278  0.98426591  1
  O  O322  1  0.90514728  0.73751701  0.47632162  1
  O  O323  1  0.90610559  0.73963454  0.97486955  1
  O  O324  1  0.09554163  0.25658081  0.23293056  1
  O  O325  1  0.09080157  0.26623765  0.71955789  1
  O  O326  1  0.08254823  0.59564303  0.23587977  1
  O  O327  1  0.09956499  0.59805067  0.73104521  1
  O  O328  1  0.07960826  0.92514097  0.22247752  1
  O  O329  1  0.09609281  0.91874215  0.73255270  1
  O  O330  1  0.43405570  0.24705711  0.23222654  1
  O  O331  1  0.43049718  0.27471652  0.72682344  1
  O  O332  1  0.42138155  0.59747275  0.23481520  1
  O  O333  1  0.42305696  0.58712533  0.73490372  1
  O  O334  1  0.42598476  0.92130269  0.22295550  1
  O  O335  1  0.44181477  0.92646597  0.72433328  1
  O  O336  1  0.76793099  0.26071351  0.21895915  1
  O  O337  1  0.75485581  0.25700618  0.72801369  1
  O  O338  1  0.76014034  0.59506705  0.21846058  1
  O  O339  1  0.75582463  0.59166025  0.74042752  1
  O  O340  1  0.75850609  0.93634354  0.21818237  1
  O  O341  1  0.76334951  0.92761006  0.72565571  1
  O  O342  1  0.06990699  0.09126401  0.23244966  1
  O  O343  1  0.06439448  0.09962899  0.72702120  1
  O  O344  1  0.07797917  0.41642147  0.22780444  1
  O  O345  1  0.07772337  0.42411557  0.72610052  1
  O  O346  1  0.05976190  0.76223735  0.22164923  1
  O  O347  1  0.07610824  0.75588263  0.72994683  1
  O  O348  1  0.42064597  0.08681921  0.22980743  1
  O  O349  1  0.41814193  0.08572905  0.71951833  1
  O  O350  1  0.41287654  0.42175136  0.23072881  1
  O  O351  1  0.40374071  0.43099922  0.72040137  1
  O  O352  1  0.39892906  0.76155652  0.22367507  1
  O  O353  1  0.40766168  0.77137319  0.72524244  1
  O  O354  1  0.73611106  0.09907612  0.22083584  1
  O  O355  1  0.73497243  0.09667059  0.72488639  1
  O  O356  1  0.74161895  0.43635826  0.21661724  1
  O  O357  1  0.73945839  0.42522260  0.73343844  1
  O  O358  1  0.73099261  0.76465911  0.21510555  1
  O  O359  1  0.72836302  0.76749395  0.73804427  1
