# generated using pymatgen
data_BaLaInIrO6
_symmetry_space_group_name_H-M   'P 1'
_cell_length_a   17.52059010
_cell_length_b   17.55555327
_cell_length_c   16.47889658
_cell_angle_alpha   90.00485091
_cell_angle_beta   90.01526398
_cell_angle_gamma   90.08981489
_symmetry_Int_Tables_number   1
_chemical_formula_structural   BaLaInIrO6
_chemical_formula_sum   'Ba36 La36 In36 Ir36 O216'
_cell_volume   5068.63278249
_cell_formula_units_Z   36
loop_
 _symmetry_equiv_pos_site_id
 _symmetry_equiv_pos_as_xyz
  1  'x, y, z'
loop_
 _atom_site_type_symbol
 _atom_site_label
 _atom_site_symmetry_multiplicity
 _atom_site_fract_x
 _atom_site_fract_y
 _atom_site_fract_z
 _atom_site_occupancy
  Ba  Ba0  1  0.99767051  0.17561340  0.12207722  1
  Ba  Ba1  1  0.33365411  0.17285465  0.12461842  1
  Ba  Ba2  1  0.99929067  0.50606151  0.12523754  1
  Ba  Ba3  1  0.66420928  0.50670935  0.62622752  1
  Ba  Ba4  1  1.00171589  0.17457615  0.62554379  1
  Ba  Ba5  1  0.82981397  0.32714808  0.37276146  1
  Ba  Ba6  1  0.00024510  0.82710972  0.87592067  1
  Ba  Ba7  1  0.16790257  0.99581956  0.87659245  1
  Ba  Ba8  1  0.83004881  0.65766149  0.37267484  1
  Ba  Ba9  1  0.16731261  0.34084505  0.62282529  1
  Ba  Ba10  1  0.32983363  0.15971579  0.87604096  1
  Ba  Ba11  1  0.00181518  0.15717823  0.87308315  1
  Ba  Ba12  1  0.83197412  0.68146708  0.12522998  1
  Ba  Ba13  1  0.16812494  0.01364151  0.62834488  1
  Ba  Ba14  1  0.83352452  0.67747622  0.62414519  1
  Ba  Ba15  1  0.66619722  0.82262219  0.37347286  1
  Ba  Ba16  1  0.33733765  0.15992602  0.37413886  1
  Ba  Ba17  1  0.16208344  0.67500247  0.62732306  1
  Ba  Ba18  1  0.66987053  0.17586747  0.62613342  1
  Ba  Ba19  1  0.16426978  0.67695481  0.12536475  1
  Ba  Ba20  1  0.49484156  0.00578736  0.62561077  1
  Ba  Ba21  1  0.16588331  0.99387974  0.37792655  1
  Ba  Ba22  1  1.00173520  0.84199882  0.12620592  1
  Ba  Ba23  1  0.49824668  0.65498110  0.87223523  1
  Ba  Ba24  1  0.66296251  0.15000580  0.37475652  1
  Ba  Ba25  1  0.83723535  0.32770542  0.87356754  1
  Ba  Ba26  1  0.33256157  0.83932439  0.62803532  1
  Ba  Ba27  1  0.66690125  0.50708420  0.12379720  1
  Ba  Ba28  1  0.33208554  0.82416666  0.87863633  1
  Ba  Ba29  1  0.49971712  0.00866375  0.12675748  1
  Ba  Ba30  1  0.33348124  0.51086656  0.62190139  1
  Ba  Ba31  1  0.49834548  0.33986444  0.12902059  1
  Ba  Ba32  1  0.66726511  0.84664923  0.12678579  1
  Ba  Ba33  1  0.66940280  0.17221320  0.12480194  1
  Ba  Ba34  1  0.49246696  0.67463201  0.62358797  1
  Ba  Ba35  1  0.17123507  0.32349623  0.86910025  1
  La  La36  1  0.33558535  0.17656191  0.62728291  1
  La  La37  1  0.66501853  0.14645997  0.87469707  1
  La  La38  1  0.00118958  0.48916713  0.87305703  1
  La  La39  1  0.83107281  0.65190921  0.87681994  1
  La  La40  1  0.16512993  0.01571593  0.12212905  1
  La  La41  1  0.32916854  0.48317059  0.37673866  1
  La  La42  1  0.66115760  0.82073438  0.87558544  1
  La  La43  1  0.83089683  0.01267131  0.62979588  1
  La  La44  1  0.82312229  0.34582488  0.12306211  1
  La  La45  1  -0.00362118  0.15471044  0.37508417  1
  La  La46  1  0.33387737  0.84827613  0.12652176  1
  La  La47  1  0.66113818  0.49023280  0.37256645  1
  La  La48  1  0.50911041  0.31475691  0.37379803  1
  La  La49  1  0.49499802  0.34039751  0.62012499  1
  La  La50  1  0.83992186  0.98960127  0.87772849  1
  La  La51  1  0.16622158  0.34535457  0.12185064  1
  La  La52  1  0.50602928  0.64871439  0.37674597  1
  La  La53  1  0.66777758  0.84860884  0.62348319  1
  La  La54  1  1.01317701  0.85411009  0.62918421  1
  La  La55  1  1.00474633  0.50694205  0.63012588  1
  La  La56  1  0.49948403  0.98478771  0.87870744  1
  La  La57  1  0.82838225  0.01017330  0.12601037  1
  La  La58  1  0.16992872  0.64946277  0.37255351  1
  La  La59  1  0.16870913  0.31864441  0.37357686  1
  La  La60  1  0.32959963  0.81661466  0.37853439  1
  La  La61  1  0.50687959  0.98070189  0.37358827  1
  La  La62  1  0.17548987  0.65289410  0.88111533  1
  La  La63  1  0.83145785  0.34659157  0.62550608  1
  La  La64  1  -0.00132055  0.49072403  0.37598114  1
  La  La65  1  0.50223792  0.31877936  0.87458129  1
  La  La66  1  0.83626736  0.99414851  0.37488445  1
  La  La67  1  0.66047267  0.48106505  0.87176941  1
  La  La68  1  0.49216638  0.68386505  0.12610095  1
  La  La69  1  -0.00652183  0.81934098  0.37580742  1
  La  La70  1  0.34278611  0.51603747  0.12502543  1
  La  La71  1  0.33061189  0.48960736  0.87441822  1
  In  In72  1  0.50024484  0.83364978  0.74857272  1
  In  In73  1  0.83211185  0.83733928  0.25050363  1
  In  In74  1  0.00105980  0.66772636  -0.00357892  1
  In  In75  1  0.83595653  0.83649799  0.50255989  1
  In  In76  1  0.83227950  0.50010231  0.74926521  1
  In  In77  1  0.50185593  0.16169985  0.50141263  1
  In  In78  1  0.50213187  0.16712271  -0.00017666  1
  In  In79  1  0.00187997  0.33432210  0.49869226  1
  In  In80  1  0.83294239  0.50104259  -0.00232755  1
  In  In81  1  0.83316030  0.16815015  0.25007001  1
  In  In82  1  0.66288009  0.66551101  0.24710343  1
  In  In83  1  0.00033408  0.66640277  0.75414801  1
  In  In84  1  0.66447989  0.66591560  -0.00051629  1
  In  In85  1  0.16600520  0.83596635  0.25235015  1
  In  In86  1  0.33336788  -0.00057725  0.25500848  1
  In  In87  1  0.33117014  0.66601242  0.74978381  1
  In  In88  1  0.16477108  0.83302441  0.49995914  1
  In  In89  1  0.33316722  0.33266446  0.25164300  1
  In  In90  1  0.00259641  0.33312156  0.24852446  1
  In  In91  1  0.50179929  0.16225075  0.75058978  1
  In  In92  1  0.33494065  0.33635627  0.00044041  1
  In  In93  1  0.33202588  0.00076217  0.00103206  1
  In  In94  1  0.83427963  0.16821880  -0.00329355  1
  In  In95  1  0.16430969  0.16946556  -0.00074473  1
  In  In96  1  0.50059548  0.49889112  -0.00142699  1
  In  In97  1  0.83439664  0.83361025  0.74989553  1
  In  In98  1  0.83438229  0.50034396  0.25199263  1
  In  In99  1  0.66600408  0.66847034  0.74834746  1
  In  In100  1  0.16782156  0.49655858  0.74914129  1
  In  In101  1  0.33475288  -0.00024395  0.49893976  1
  In  In102  1  0.83336246  0.16791223  0.49993888  1
  In  In103  1  0.66644051  0.33360629  0.50270169  1
  In  In104  1  0.66520727  0.66648345  0.50230206  1
  In  In105  1  0.00273174  0.66650692  0.24996566  1
  In  In106  1  0.00110229  0.00217175  0.50076293  1
  In  In107  1  -0.00009297  0.66639885  0.50092653  1
  Ir  Ir108  1  0.16902293  0.83387365  0.00042175  1
  Ir  Ir109  1  0.49878115  0.83362983  0.00375696  1
  Ir  Ir110  1  0.49813354  0.83098059  0.49509429  1
  Ir  Ir111  1  0.66577846  -0.00457462  0.50320735  1
  Ir  Ir112  1  0.33787071  0.33357047  0.74317390  1
  Ir  Ir113  1  0.49355701  0.49530440  0.49606236  1
  Ir  Ir114  1  0.00161348  0.33632575  -0.00133382  1
  Ir  Ir115  1  0.49776980  0.49051788  0.74774576  1
  Ir  Ir116  1  0.33196305  0.66795108  0.00609728  1
  Ir  Ir117  1  0.33654614  0.66412053  0.25252284  1
  Ir  Ir118  1  0.17019554  0.49875337  0.00261925  1
  Ir  Ir119  1  0.66698748  0.33009829  0.75232895  1
  Ir  Ir120  1  0.16848250  0.16803871  0.74552683  1
  Ir  Ir121  1  0.16764519  0.50014147  0.49518036  1
  Ir  Ir122  1  0.83071424  0.16796000  0.75147402  1
  Ir  Ir123  1  0.66994745  0.00001002  0.75282340  1
  Ir  Ir124  1  0.66809540  0.33005481  -0.00291180  1
  Ir  Ir125  1  0.16380386  0.16722439  0.25158209  1
  Ir  Ir126  1  0.50223106  0.16598371  0.25055146  1
  Ir  Ir127  1  0.49522605  0.49967212  0.25233607  1
  Ir  Ir128  1  0.49433053  0.83035049  0.24978876  1
  Ir  Ir129  1  0.17381494  0.49799696  0.25014125  1
  Ir  Ir130  1  0.16463503  0.83696785  0.75539978  1
  Ir  Ir131  1  0.33215217  0.00132223  0.75059980  1
  Ir  Ir132  1  -0.00285891  0.00308235  0.75651638  1
  Ir  Ir133  1  0.66844272  -0.00188760  -0.00353684  1
  Ir  Ir134  1  0.33397119  0.33441796  0.49881234  1
  Ir  Ir135  1  0.83412068  0.49749629  0.49921599  1
  Ir  Ir136  1  -0.00222217  0.32967456  0.75053252  1
  Ir  Ir137  1  -0.00233146  -0.00322135  0.00247746  1
  Ir  Ir138  1  0.82846648  0.84022547  -0.00229664  1
  Ir  Ir139  1  0.33568331  0.66406811  0.49198189  1
  Ir  Ir140  1  0.00199282  0.00362944  0.24761213  1
  Ir  Ir141  1  0.16907308  0.17144401  0.49689284  1
  Ir  Ir142  1  0.66304173  0.33475650  0.24669717  1
  Ir  Ir143  1  0.66560899  -0.00064806  0.25005808  1
  O  O144  1  0.30466792  0.33351274  0.12793590  1
  O  O145  1  0.31272732  0.31737560  0.62128236  1
  O  O146  1  0.31193201  0.65332506  0.12994095  1
  O  O147  1  0.31448508  0.66495278  0.61414109  1
  O  O148  1  0.30352375  0.98721781  0.13011239  1
  O  O149  1  0.31773391  0.99474092  0.63057697  1
  O  O150  1  0.64460210  0.32848995  0.11958617  1
  O  O151  1  0.63348453  0.33048138  0.63343480  1
  O  O152  1  0.62686776  0.66161218  0.12294474  1
  O  O153  1  0.63877272  0.65782684  0.62438213  1
  O  O154  1  0.64540343  1.00190853  0.12148383  1
  O  O155  1  0.64083013  0.98987782  0.62837298  1
  O  O156  1  0.96708667  0.33460255  0.11771194  1
  O  O157  1  0.97020493  0.33034271  0.62877483  1
  O  O158  1  0.98227874  0.66158930  0.12142095  1
  O  O159  1  0.98150371  0.64176448  0.62592537  1
  O  O160  1  0.96760514  0.99829145  0.12459645  1
  O  O161  1  0.96988398  0.99907561  0.63507623  1
  O  O162  1  0.18220339  0.15838804  0.13194137  1
  O  O163  1  0.19877310  0.17083254  0.61910632  1
  O  O164  1  0.20746532  0.48768469  0.12700248  1
  O  O165  1  0.18505216  0.49857843  0.61620786  1
  O  O166  1  0.19788789  0.83108199  0.12034389  1
  O  O167  1  0.18286917  0.83556157  0.63696471  1
  O  O168  1  0.51932337  0.16939232  0.13094730  1
  O  O169  1  0.52095513  0.16840866  0.62739742  1
  O  O170  1  0.51521104  0.49579329  0.13191864  1
  O  O171  1  0.51923405  0.48035255  0.62001564  1
  O  O172  1  0.52074736  0.81971263  0.12811713  1
  O  O173  1  0.52849647  0.83054552  0.61648775  1
  O  O174  1  0.84638220  0.15056964  0.12340863  1
  O  O175  1  0.85010802  0.15249167  0.63170197  1
  O  O176  1  0.84963260  0.47988134  0.12284617  1
  O  O177  1  0.86631749  0.48903225  0.62050460  1
  O  O178  1  0.84967299  0.84194473  0.11741669  1
  O  O179  1  0.87588624  0.83828925  0.62763924  1
  O  O180  1  0.13447282  0.17867094  0.37363229  1
  O  O181  1  0.15164231  0.16695218  0.86714872  1
  O  O182  1  0.13929401  0.50686547  0.37130328  1
  O  O183  1  0.13993834  0.50527209  0.88279640  1
  O  O184  1  0.12898140  0.83959695  0.37621614  1
  O  O185  1  0.14756910  0.83960310  0.87675510  1
  O  O186  1  0.48764350  0.17205563  0.37097448  1
  O  O187  1  0.48125648  0.18071022  0.87241394  1
  O  O188  1  0.46408467  0.50917284  0.37448510  1
  O  O189  1  0.46768956  0.49042126  0.86703224  1
  O  O190  1  0.46593842  0.84109594  0.37167827  1
  O  O191  1  0.48329676  0.84855890  0.88324011  1
  O  O192  1  0.81140644  0.16241292  0.37416150  1
  O  O193  1  0.80170174  0.17296043  0.87075690  1
  O  O194  1  0.79827253  0.49722191  0.38160329  1
  O  O195  1  0.79544149  0.50054155  0.87394754  1
  O  O196  1  0.81115676  0.86016191  0.37593360  1
  O  O197  1  0.79935666  0.85200928  0.87795090  1
  O  O198  1  0.02101217  0.01772267  0.36683547  1
  O  O199  1  0.02026418  0.00043366  0.88015407  1
  O  O200  1  0.03725722  0.35332727  0.37416760  1
  O  O201  1  0.02542939  0.34354091  0.87426897  1
  O  O202  1  0.03710187  0.67646201  0.37705013  1
  O  O203  1  0.04300926  0.67101574  0.87593275  1
  O  O204  1  0.37144081  0.00654110  0.37555001  1
  O  O205  1  0.35954087  0.00363814  0.87112665  1
  O  O206  1  0.36670706  0.34412640  0.37954813  1
  O  O207  1  0.36460218  0.34725340  0.86348120  1
  O  O208  1  0.37019601  0.67394920  0.37132682  1
  O  O209  1  0.34787400  0.66678637  0.88625061  1
  O  O210  1  0.69557527  -0.00401230  0.37663353  1
  O  O211  1  0.70140804  0.00447647  0.87417177  1
  O  O212  1  0.67723634  0.34732927  0.36908002  1
  O  O213  1  0.69061454  0.34310102  0.87505896  1
  O  O214  1  0.67426824  0.65840530  0.37641114  1
  O  O215  1  0.69660373  0.68445142  0.87490175  1
  O  O216  1  0.07098480  0.08412144  0.02022643  1
  O  O217  1  0.07656624  0.10300055  0.50766203  1
  O  O218  1  0.08339553  0.42141480  0.02815925  1
  O  O219  1  0.06949928  0.43990272  0.52021371  1
  O  O220  1  0.07924185  0.76629287  0.01445184  1
  O  O221  1  0.06741488  0.76618036  0.53183821  1
  O  O222  1  0.41161529  0.08979990  0.01498627  1
  O  O223  1  0.39955673  0.10132027  0.52508233  1
  O  O224  1  0.39581536  0.44223348  0.01597486  1
  O  O225  1  0.40261024  0.42410543  0.52005362  1
  O  O226  1  0.40194634  0.76337822  0.03300803  1
  O  O227  1  0.40050961  0.76365295  0.50974360  1
  O  O228  1  0.73584106  0.09033665  0.00718007  1
  O  O229  1  0.73724516  0.08301846  0.52195337  1
  O  O230  1  0.73697189  0.41900627  0.01537225  1
  O  O231  1  0.74590322  0.42479182  0.52404960  1
  O  O232  1  0.73603254  0.77503251  0.01023922  1
  O  O233  1  0.73359165  0.76765969  0.52397054  1
  O  O234  1  0.09043331  0.26578732  0.02447303  1
  O  O235  1  0.10323317  0.26400012  0.50730452  1
  O  O236  1  0.10012630  0.58542895  0.01724772  1
  O  O237  1  0.10455715  0.59266987  0.50630129  1
  O  O238  1  0.09981112  0.92996081  0.02526790  1
  O  O239  1  0.09083006  0.92842073  0.52685589  1
  O  O240  1  0.43590437  0.27038287  0.00445710  1
  O  O241  1  0.42628027  0.26673146  0.51745581  1
  O  O242  1  0.42738450  0.60246463  0.02647457  1
  O  O243  1  0.42958742  0.59320765  0.50945433  1
  O  O244  1  0.42496936  0.91909674  0.02192852  1
  O  O245  1  0.43394922  0.92261204  0.51055426  1
  O  O246  1  0.76334808  0.26688897  0.02176705  1
  O  O247  1  0.76623633  0.26615315  0.52618684  1
  O  O248  1  0.76510121  0.60098212  0.01237146  1
  O  O249  1  0.76472056  0.58548060  0.51774701  1
  O  O250  1  0.76714890  0.93868302  0.02007193  1
  O  O251  1  0.75797146  0.93100567  0.53595567  1
  O  O252  1  0.23261827  0.07569580  0.26396084  1
  O  O253  1  0.24045931  0.07475667  0.76430790  1
  O  O254  1  0.23879825  0.40749378  0.28278282  1
  O  O255  1  0.25382768  0.41126083  0.76624085  1
  O  O256  1  0.24569504  0.73084916  0.28097838  1
  O  O257  1  0.22861500  0.74016992  0.77396332  1
  O  O258  1  0.56805065  0.06654904  0.27150089  1
  O  O259  1  0.57487153  0.06369314  0.78249452  1
  O  O260  1  0.56425078  0.40534188  0.27768232  1
  O  O261  1  0.57034319  0.39681604  0.77557587  1
  O  O262  1  0.55507023  0.73383078  0.26970975  1
  O  O263  1  0.57646442  0.74611057  0.77823127  1
  O  O264  1  0.90619992  0.06578339  0.26901319  1
  O  O265  1  0.89653895  0.07096643  0.77517485  1
  O  O266  1  0.91581108  0.41220442  0.27522064  1
  O  O267  1  0.91269450  0.40391952  0.76443969  1
  O  O268  1  0.91334250  0.75007112  0.27250417  1
  O  O269  1  0.89821716  0.73258597  0.77998688  1
  O  O270  1  0.25172790  0.23982487  0.27343007  1
  O  O271  1  0.26573787  0.23985283  0.76090579  1
  O  O272  1  0.27000052  0.56766071  0.27854208  1
  O  O273  1  0.25851165  0.57441870  0.78069718  1
  O  O274  1  0.26873146  0.89538487  0.27649397  1
  O  O275  1  0.26109978  0.90827156  0.77181821  1
  O  O276  1  0.59113744  0.24456710  0.27143511  1
  O  O277  1  0.60231467  0.23859598  0.78004116  1
  O  O278  1  0.58780966  0.56309990  0.27727700  1
  O  O279  1  0.58969181  0.55856646  0.77392496  1
  O  O280  1  0.58524493  0.90654188  0.27260576  1
  O  O281  1  0.60364520  0.90724665  0.77210955  1
  O  O282  1  0.93568360  0.23380932  0.27276088  1
  O  O283  1  0.92557686  0.23605292  0.76693671  1
  O  O284  1  0.93336507  0.57015270  0.27794513  1
  O  O285  1  0.93088660  0.56509379  0.78056343  1
  O  O286  1  0.93846591  0.91228610  0.27303416  1
  O  O287  1  0.92320240  0.91819475  0.77726667  1
  O  O288  1  0.26082912  0.24673971  0.47432562  1
  O  O289  1  0.25660646  0.24644319  0.98595194  1
  O  O290  1  0.26578684  0.56865489  0.46693507  1
  O  O291  1  0.26364900  0.57042923  0.97750193  1
  O  O292  1  0.26594063  0.89971024  0.47751780  1
  O  O293  1  0.26014291  0.90046250  0.98956447  1
  O  O294  1  0.58949890  0.24397098  0.47988711  1
  O  O295  1  0.60623231  0.23490787  0.97311499  1
  O  O296  1  0.58614527  0.56112504  0.47319983  1
  O  O297  1  0.59749424  0.56338943  0.96890641  1
  O  O298  1  0.59160488  0.90282770  0.47839126  1
  O  O299  1  0.59462067  0.90451999  0.97447568  1
  O  O300  1  0.93543783  0.23537045  0.47472542  1
  O  O301  1  0.92953602  0.24806603  0.98012556  1
  O  O302  1  0.92775292  0.56310204  0.47474652  1
  O  O303  1  0.92685754  0.57536922  0.96176592  1
  O  O304  1  0.93180437  0.90839435  0.46868003  1
  O  O305  1  0.92142009  0.91057500  0.97818766  1
  O  O306  1  0.23845457  0.08176760  0.48388408  1
  O  O307  1  0.23561008  0.07252750  0.99779882  1
  O  O308  1  0.23749913  0.40472450  0.47162086  1
  O  O309  1  0.24211089  0.41562711  0.97439217  1
  O  O310  1  0.24230541  0.73134745  0.46908027  1
  O  O311  1  0.23378097  0.73560575  0.97981231  1
  O  O312  1  0.57086587  0.05956189  0.47622285  1
  O  O313  1  0.57693099  0.06617475  0.96899988  1
  O  O314  1  0.56197952  0.40436322  0.47636662  1
  O  O315  1  0.57260497  0.39624651  0.97307252  1
  O  O316  1  0.55915521  0.73591636  0.47448041  1
  O  O317  1  0.56857725  0.74537310  0.98156900  1
  O  O318  1  0.90276457  0.06948144  0.48048660  1
  O  O319  1  0.90508484  0.06578804  0.98128055  1
  O  O320  1  0.90459785  0.40987733  0.47966181  1
  O  O321  1  0.92198660  0.41448642  0.97391163  1
  O  O322  1  0.90810180  0.74173667  0.47335740  1
  O  O323  1  0.89291582  0.74497367  0.97423572  1
  O  O324  1  0.10437913  0.26498532  0.22936547  1
  O  O325  1  0.09459155  0.25855225  0.73050954  1
  O  O326  1  0.10612732  0.58708622  0.23750433  1
  O  O327  1  0.08976998  0.58369978  0.73265360  1
  O  O328  1  0.09757552  0.94163661  0.22365266  1
  O  O329  1  0.08909771  0.92986865  0.73241864  1
  O  O330  1  0.43164559  0.25869841  0.24463162  1
  O  O331  1  0.42662152  0.26269050  0.72365994  1
  O  O332  1  0.43284951  0.59771411  0.22626239  1
  O  O333  1  0.42597979  0.58026708  0.73461086  1
  O  O334  1  0.42650965  0.91851643  0.22848663  1
  O  O335  1  0.42747412  0.93381316  0.74472581  1
  O  O336  1  0.75858049  0.26793015  0.22519356  1
  O  O337  1  0.76577910  0.26562723  0.72468538  1
  O  O338  1  0.75606513  0.58895580  0.23075386  1
  O  O339  1  0.76474021  0.59921131  0.73980431  1
  O  O340  1  0.76295453  0.93911775  0.22954518  1
  O  O341  1  0.76419382  0.93946590  0.72688616  1
  O  O342  1  0.06960115  0.09890872  0.23158306  1
  O  O343  1  0.07518673  0.09543112  0.73179404  1
  O  O344  1  0.09036143  0.42394862  0.22074728  1
  O  O345  1  0.06676859  0.42218617  0.73316448  1
  O  O346  1  0.07828073  0.75981971  0.23225615  1
  O  O347  1  0.07005792  0.77191523  0.73107349  1
  O  O348  1  0.41269118  0.09564195  0.23268676  1
  O  O349  1  0.39714733  0.09512403  0.72939716  1
  O  O350  1  0.39756436  0.43956936  0.23357356  1
  O  O351  1  0.41225485  0.41655820  0.71489365  1
  O  O352  1  0.39899094  0.76232829  0.22429599  1
  O  O353  1  0.40784519  0.75614888  0.73973834  1
  O  O354  1  0.73806011  0.08576455  0.23343406  1
  O  O355  1  0.73550889  0.09847083  0.73859243  1
  O  O356  1  0.73671365  0.41952015  0.23266822  1
  O  O357  1  0.74023339  0.41695564  0.72843961  1
  O  O358  1  0.73796712  0.76093349  0.23657336  1
  O  O359  1  0.73066251  0.77631851  0.72357158  1
