# generated using pymatgen
data_BaLaInIrO6
_symmetry_space_group_name_H-M   'P 1'
_cell_length_a   17.53574120
_cell_length_b   17.57234163
_cell_length_c   16.50416505
_cell_angle_alpha   90.03741711
_cell_angle_beta   89.99573916
_cell_angle_gamma   89.93436905
_symmetry_Int_Tables_number   1
_chemical_formula_structural   BaLaInIrO6
_chemical_formula_sum   'Ba36 La36 In36 Ir36 O216'
_cell_volume   5085.65558070
_cell_formula_units_Z   36
loop_
 _symmetry_equiv_pos_site_id
 _symmetry_equiv_pos_as_xyz
  1  'x, y, z'
loop_
 _atom_site_type_symbol
 _atom_site_label
 _atom_site_symmetry_multiplicity
 _atom_site_fract_x
 _atom_site_fract_y
 _atom_site_fract_z
 _atom_site_occupancy
  Ba  Ba0  1  0.00182273  0.82120671  0.87160676  1
  Ba  Ba1  1  0.49966715  0.00832539  0.12125506  1
  Ba  Ba2  1  0.32744940  0.82326219  0.87617312  1
  Ba  Ba3  1  -0.00300282  0.49633744  0.87935924  1
  Ba  Ba4  1  0.82708593  0.35003954  0.12888861  1
  Ba  Ba5  1  0.66353775  0.49542382  0.87542467  1
  Ba  Ba6  1  0.33242092  0.49404490  0.37625806  1
  Ba  Ba7  1  0.83230998  0.32604257  0.37477363  1
  Ba  Ba8  1  0.99809738  0.83995816  0.12277475  1
  Ba  Ba9  1  0.16688444  0.65935120  0.87680973  1
  Ba  Ba10  1  0.33072841  0.49566489  0.87644953  1
  Ba  Ba11  1  0.33466571  0.17843997  0.12792922  1
  Ba  Ba12  1  0.49567288  0.34597188  0.12897610  1
  Ba  Ba13  1  0.16926027  0.32780747  0.37515279  1
  Ba  Ba14  1  0.16433798  0.00462004  0.62188417  1
  Ba  Ba15  1  0.33572770  0.17568104  0.62240314  1
  Ba  Ba16  1  0.66943580  0.84153789  0.62419983  1
  Ba  Ba17  1  0.99813360  0.84352295  0.62600355  1
  Ba  Ba18  1  0.83283362  0.66236632  0.87043488  1
  Ba  Ba19  1  0.32928173  0.82691647  0.37239922  1
  Ba  Ba20  1  0.16760401  0.66046233  0.37319421  1
  Ba  Ba21  1  0.66876990  0.17452989  0.62788145  1
  Ba  Ba22  1  0.66581944  0.50815297  0.62240448  1
  Ba  Ba23  1  0.33126413  0.51032485  0.62371548  1
  Ba  Ba24  1  0.67104897  0.83831626  0.12528026  1
  Ba  Ba25  1  0.16974394  0.34006816  0.62642971  1
  Ba  Ba26  1  0.00086916  0.15551093  0.87785229  1
  Ba  Ba27  1  0.16525890  0.99328596  0.37432566  1
  Ba  Ba28  1  0.00036659  0.82576133  0.37844290  1
  Ba  Ba29  1  0.16676996  0.33981634  0.12472855  1
  Ba  Ba30  1  0.17022280  0.67168773  0.12324274  1
  Ba  Ba31  1  1.00668886  0.17391139  0.62494047  1
  Ba  Ba32  1  0.66822809  0.51666745  0.12886922  1
  Ba  Ba33  1  0.49744621  0.67063826  0.12262891  1
  Ba  Ba34  1  0.49820067  0.98967646  0.87320237  1
  Ba  Ba35  1  0.32878992  0.15740463  0.87619022  1
  La  La36  1  0.16964621  0.98055162  0.87064771  1
  La  La37  1  0.83862526  0.98607933  0.87461077  1
  La  La38  1  0.83792815  0.65222679  0.37248324  1
  La  La39  1  0.33880878  0.84627868  0.12405103  1
  La  La40  1  0.66213523  0.15240082  0.87635723  1
  La  La41  1  -0.00307592  0.48604727  0.37180613  1
  La  La42  1  0.67180735  0.18386729  0.12538366  1
  La  La43  1  0.49326058  0.68191175  0.62970667  1
  La  La44  1  0.83800367  0.98644309  0.37881444  1
  La  La45  1  0.49400073  0.01276478  0.62433636  1
  La  La46  1  0.83212435  0.01405516  0.62697789  1
  La  La47  1  0.50686083  0.98356773  0.37278413  1
  La  La48  1  0.83469198  0.34916905  0.62761339  1
  La  La49  1  0.83690155  0.67191702  0.11778667  1
  La  La50  1  1.01001114  0.51474657  0.62417185  1
  La  La51  1  0.49870622  0.65285551  0.87333185  1
  La  La52  1  0.49189917  0.35181055  0.62676318  1
  La  La53  1  0.66466827  0.14792227  0.37491563  1
  La  La54  1  0.16366881  0.67934652  0.62555300  1
  La  La55  1  0.16873686  0.31929223  0.86978533  1
  La  La56  1  0.66438045  0.48182730  0.37329812  1
  La  La57  1  0.50459951  0.31673908  0.87517239  1
  La  La58  1  0.33197770  0.84703040  0.62647280  1
  La  La59  1  0.82639714  0.01433311  0.12732421  1
  La  La60  1  1.00470066  0.18041790  0.13027947  1
  La  La61  1  -0.00302479  0.14572829  0.37553595  1
  La  La62  1  0.65862791  0.81278802  0.87623587  1
  La  La63  1  0.32717708  0.50386992  0.13305178  1
  La  La64  1  0.50785805  0.31612213  0.37793080  1
  La  La65  1  0.66246902  0.81364122  0.37309391  1
  La  La66  1  0.33600266  0.15690766  0.37219696  1
  La  La67  1  0.16370607  0.00289141  0.11728236  1
  La  La68  1  1.00367632  0.51485217  0.12575666  1
  La  La69  1  0.50390382  0.64777094  0.37603903  1
  La  La70  1  0.83966057  0.32329190  0.87399984  1
  La  La71  1  0.83871372  0.67960829  0.62064111  1
  In  In72  1  0.16718055  0.50028785  0.49739839  1
  In  In73  1  0.33703680  0.33582361  0.75143063  1
  In  In74  1  0.83423456  0.16766032  0.25260426  1
  In  In75  1  0.83189076  0.83398187  0.74963452  1
  In  In76  1  0.16590494  0.83156485  0.49822242  1
  In  In77  1  0.50437125  0.16674115  0.24762730  1
  In  In78  1  0.50073856  0.82990027  0.24642187  1
  In  In79  1  0.66775433  0.33675262  -0.00073857  1
  In  In80  1  0.50194654  0.16636163  0.74925937  1
  In  In81  1  0.33407932  0.66697731  0.25228034  1
  In  In82  1  0.33705820  -0.00013502  0.49655779  1
  In  In83  1  0.00135209  0.33737400  0.75070747  1
  In  In84  1  0.66726869  -0.00358745  0.74951360  1
  In  In85  1  0.50061084  0.83150967  0.50035631  1
  In  In86  1  0.66840599  -0.00304769  0.00235543  1
  In  In87  1  0.16380213  0.16326339  0.00137535  1
  In  In88  1  0.83330191  0.16678686  0.00255565  1
  In  In89  1  0.16628737  0.16668225  0.25301522  1
  In  In90  1  0.16749388  0.16864634  0.49596702  1
  In  In91  1  0.83201899  0.50234547  -0.00175742  1
  In  In92  1  0.83479303  0.50237723  0.50137310  1
  In  In93  1  0.83444735  0.17032061  0.50078163  1
  In  In94  1  0.33126557  0.00063093  -0.00200493  1
  In  In95  1  0.83113151  0.83223979  0.25079664  1
  In  In96  1  0.66589491  0.33134843  0.50542517  1
  In  In97  1  0.33472814  0.00170657  0.24856264  1
  In  In98  1  0.00069254  0.66795730  0.25122743  1
  In  In99  1  0.66880428  0.33572806  0.75058654  1
  In  In100  1  0.33423199  0.66562888  -0.00026858  1
  In  In101  1  0.66656111  0.66359298  0.49921454  1
  In  In102  1  0.33374682  0.33531852  -0.00028795  1
  In  In103  1  0.16794174  0.16369323  0.74938393  1
  In  In104  1  0.16319434  0.49623264  -0.00267564  1
  In  In105  1  0.83419126  0.16895919  0.75066234  1
  In  In106  1  0.49822814  0.49921770  0.00187930  1
  In  In107  1  0.66621432  0.66446382  0.74564764  1
  Ir  Ir108  1  0.66557544  0.33437254  0.25358095  1
  Ir  Ir109  1  0.83273595  0.83363713  -0.00035522  1
  Ir  Ir110  1  0.66699622  -0.00107396  0.49635993  1
  Ir  Ir111  1  0.00112209  -0.00431026  0.75514600  1
  Ir  Ir112  1  0.83893274  0.50328085  0.74603941  1
  Ir  Ir113  1  0.67019781  0.66480679  0.25165697  1
  Ir  Ir114  1  0.16388505  0.83189423  0.00148961  1
  Ir  Ir115  1  -0.00527136  -0.00282484  0.24788119  1
  Ir  Ir116  1  0.16772119  0.82835565  0.74905475  1
  Ir  Ir117  1  0.33346637  -0.00621800  0.74897591  1
  Ir  Ir118  1  0.50351048  0.16724058  -0.00139794  1
  Ir  Ir119  1  0.33835712  0.33927073  0.25680793  1
  Ir  Ir120  1  -0.00000504  0.66463443  0.74670562  1
  Ir  Ir121  1  0.66611343  0.67128533  0.00196305  1
  Ir  Ir122  1  0.50393639  0.16488014  0.49704429  1
  Ir  Ir123  1  0.67042166  -0.00030288  0.25290306  1
  Ir  Ir124  1  -0.00523988  -0.00533379  0.00255602  1
  Ir  Ir125  1  0.16516108  0.83560749  0.24512675  1
  Ir  Ir126  1  -0.00181592  0.66611826  0.50004482  1
  Ir  Ir127  1  0.49936153  0.83088846  -0.00329277  1
  Ir  Ir128  1  -0.00123523  0.33461890  0.49541554  1
  Ir  Ir129  1  0.49747259  0.82973819  0.75311981  1
  Ir  Ir130  1  0.33157746  0.66786355  0.74401775  1
  Ir  Ir131  1  0.34286455  0.33473887  0.49649106  1
  Ir  Ir132  1  0.33540033  0.66745923  0.50386137  1
  Ir  Ir133  1  0.83358510  0.50336805  0.25138680  1
  Ir  Ir134  1  0.49819176  0.50285196  0.74633945  1
  Ir  Ir135  1  0.16518609  0.50440209  0.74768919  1
  Ir  Ir136  1  -0.00604387  -0.00290598  0.49927330  1
  Ir  Ir137  1  0.50012775  0.49937660  0.49871012  1
  Ir  Ir138  1  0.16393324  0.49695965  0.24899156  1
  Ir  Ir139  1  0.82793565  0.83617961  0.49780488  1
  Ir  Ir140  1  -0.00274176  0.66910748  -0.00172835  1
  Ir  Ir141  1  0.50295564  0.50003477  0.25711884  1
  Ir  Ir142  1  -0.00160072  0.33467767  0.24987244  1
  Ir  Ir143  1  -0.00278134  0.33371226  0.00490862  1
  O  O144  1  0.31924677  0.33765904  0.13661898  1
  O  O145  1  0.32465698  0.33158679  0.61671365  1
  O  O146  1  0.32598442  0.64095568  0.12737933  1
  O  O147  1  0.30185918  0.66474749  0.62336367  1
  O  O148  1  0.30174005  0.99181322  0.12263081  1
  O  O149  1  0.31906573  0.99400818  0.62906563  1
  O  O150  1  0.64467858  0.32657469  0.13413977  1
  O  O151  1  0.62729128  0.33403550  0.62716189  1
  O  O152  1  0.64938418  0.67655139  0.12828899  1
  O  O153  1  0.63116164  0.66968402  0.62234188  1
  O  O154  1  0.64704141  0.99134595  0.13458461  1
  O  O155  1  0.63064694  0.99342601  0.61465209  1
  O  O156  1  0.97181364  0.31878786  0.12860985  1
  O  O157  1  0.97049702  0.32945505  0.61608848  1
  O  O158  1  0.97299546  0.66288039  0.12129239  1
  O  O159  1  0.97087313  0.65496930  0.62264158  1
  O  O160  1  0.96117975  0.99226346  0.12505349  1
  O  O161  1  0.96784259  0.99693824  0.62662592  1
  O  O162  1  0.18104071  0.14511954  0.12844574  1
  O  O163  1  0.18154444  0.16273121  0.62163666  1
  O  O164  1  0.19025831  0.49464627  0.12949239  1
  O  O165  1  0.17972764  0.50182877  0.62780285  1
  O  O166  1  0.19479010  0.83747849  0.12250472  1
  O  O167  1  0.19266594  0.81995234  0.62895827  1
  O  O168  1  0.53521472  0.16674595  0.11960380  1
  O  O169  1  0.52117935  0.15139692  0.61791815  1
  O  O170  1  0.51813122  0.50235625  0.13694487  1
  O  O171  1  0.51944037  0.48954131  0.62151729  1
  O  O172  1  0.52347996  0.82966773  0.11461814  1
  O  O173  1  0.52076871  0.82066289  0.63318140  1
  O  O174  1  0.86959777  0.15187298  0.12888716  1
  O  O175  1  0.85987288  0.14863915  0.62365840  1
  O  O176  1  0.86465232  0.50764713  0.13147786  1
  O  O177  1  0.87126923  0.49067888  0.62687358  1
  O  O178  1  0.84425743  0.81138965  0.12110471  1
  O  O179  1  0.84579583  0.81813032  0.61790947  1
  O  O180  1  0.12889248  0.17287011  0.37432440  1
  O  O181  1  0.14883345  0.18004133  0.87598687  1
  O  O182  1  0.13521146  0.50090103  0.37002243  1
  O  O183  1  0.14596843  0.50639354  0.86566490  1
  O  O184  1  0.14962939  0.83437365  0.36719554  1
  O  O185  1  0.14817067  0.84251422  0.87551929  1
  O  O186  1  0.47616468  0.17566944  0.37872685  1
  O  O187  1  0.47890273  0.17415743  0.87964814  1
  O  O188  1  0.47989862  0.51015372  0.37939976  1
  O  O189  1  0.48297043  0.51521338  0.86580180  1
  O  O190  1  0.47992547  0.84661318  0.37369587  1
  O  O191  1  0.47545381  0.82951224  0.87475569  1
  O  O192  1  0.79948687  0.16802397  0.37621154  1
  O  O193  1  0.79810791  0.17976277  0.87779594  1
  O  O194  1  0.80282983  0.51284027  0.37108021  1
  O  O195  1  0.81573589  0.50973703  0.86571304  1
  O  O196  1  0.80016012  0.85071475  0.37809722  1
  O  O197  1  0.80497112  0.84891188  0.87973095  1
  O  O198  1  0.01790834  0.00474309  0.37260435  1
  O  O199  1  0.03130643  -0.00485457  0.87920608  1
  O  O200  1  0.02203473  0.35190951  0.37192300  1
  O  O201  1  0.03186218  0.34190809  0.88745354  1
  O  O202  1  0.01820438  0.66941484  0.38074399  1
  O  O203  1  0.01906815  0.66687715  0.87165439  1
  O  O204  1  0.37263353  0.00070231  0.37370859  1
  O  O205  1  0.34610816  -0.01055667  0.86903507  1
  O  O206  1  0.37163472  0.34076377  0.37768475  1
  O  O207  1  0.37164953  0.33941900  0.87578789  1
  O  O208  1  0.36544950  0.67238258  0.38382141  1
  O  O209  1  0.35905330  0.67000119  0.86367817  1
  O  O210  1  0.70195783  0.01094920  0.37393852  1
  O  O211  1  0.70207009  0.01154831  0.87797854  1
  O  O212  1  0.68082547  0.34204959  0.37410471  1
  O  O213  1  0.70511306  0.34218009  0.87409768  1
  O  O214  1  0.69919659  0.66367967  0.37032652  1
  O  O215  1  0.67832409  0.66747412  0.87960670  1
  O  O216  1  0.05989662  0.08600069  0.03018247  1
  O  O217  1  0.06575199  0.08670806  0.50662869  1
  O  O218  1  0.06066058  0.42744681  0.03154780  1
  O  O219  1  0.06268357  0.43211871  0.51563873  1
  O  O220  1  0.07318910  0.75736219  0.01483412  1
  O  O221  1  0.07301236  0.75206967  0.52325133  1
  O  O222  1  0.41223020  0.09551162  0.01547332  1
  O  O223  1  0.41545432  0.09579370  0.51576451  1
  O  O224  1  0.39522432  0.43828605  0.02757798  1
  O  O225  1  0.41063723  0.42779572  0.52177638  1
  O  O226  1  0.40404991  0.76727625  0.02259929  1
  O  O227  1  0.40242226  0.75832428  0.53237479  1
  O  O228  1  0.73909960  0.09253790  0.03728453  1
  O  O229  1  0.73440691  0.08880265  0.51612177  1
  O  O230  1  0.73813171  0.43344629  0.01986466  1
  O  O231  1  0.73999786  0.42897815  0.51222193  1
  O  O232  1  0.73306042  0.76948034  0.00038002  1
  O  O233  1  0.73662599  0.76809342  0.50428059  1
  O  O234  1  0.08022109  0.25532219  0.02631941  1
  O  O235  1  0.08924080  0.26844031  0.51323003  1
  O  O236  1  0.07989475  0.58956671  0.02022251  1
  O  O237  1  0.08995120  0.59764330  0.52605872  1
  O  O238  1  0.09375776  0.92958051  0.02132317  1
  O  O239  1  0.08304753  0.92339845  0.51358229  1
  O  O240  1  0.43558563  0.25777345  0.01473065  1
  O  O241  1  0.44455752  0.26750646  0.51567438  1
  O  O242  1  0.43660688  0.60174560  -0.00460727  1
  O  O243  1  0.43764853  0.60248849  0.52054124  1
  O  O244  1  0.42408548  0.91817110  0.01770767  1
  O  O245  1  0.43647677  0.93057828  0.52750432  1
  O  O246  1  0.75331317  0.25463766  0.03166434  1
  O  O247  1  0.76850768  0.26873509  0.52910970  1
  O  O248  1  0.76139900  0.60690987  0.02203207  1
  O  O249  1  0.77039316  0.60429849  0.52336848  1
  O  O250  1  0.77318888  0.92928891  0.02453489  1
  O  O251  1  0.76736391  0.93666521  0.52123786  1
  O  O252  1  0.25008582  0.08392459  0.28186405  1
  O  O253  1  0.23862307  0.05883421  0.77154639  1
  O  O254  1  0.24082986  0.40838498  0.26818680  1
  O  O255  1  0.23123988  0.40931672  0.76922261  1
  O  O256  1  0.23620440  0.74527597  0.25972868  1
  O  O257  1  0.23306347  0.73048017  0.75852128  1
  O  O258  1  0.57827547  0.06691304  0.28049840  1
  O  O259  1  0.57686184  0.07341235  0.76786599  1
  O  O260  1  0.56983376  0.40407631  0.28076129  1
  O  O261  1  0.56216794  0.40754702  0.77019021  1
  O  O262  1  0.57479882  0.73036466  0.27960009  1
  O  O263  1  0.56302306  0.73661744  0.77482331  1
  O  O264  1  0.90181497  0.06353478  0.27649359  1
  O  O265  1  0.90806479  0.06295684  0.77599864  1
  O  O266  1  0.90679813  0.41186096  0.27432625  1
  O  O267  1  0.89996904  0.40709817  0.77120886  1
  O  O268  1  0.89781543  0.73187335  0.27060444  1
  O  O269  1  0.90766569  0.73539692  0.75437359  1
  O  O270  1  0.27133237  0.24445059  0.27636209  1
  O  O271  1  0.25935848  0.24577406  0.76716311  1
  O  O272  1  0.25391631  0.56970441  0.26434161  1
  O  O273  1  0.26113482  0.57397273  0.76476020  1
  O  O274  1  0.25163171  0.90708533  0.26022205  1
  O  O275  1  0.26542847  0.89575165  0.75644100  1
  O  O276  1  0.60140299  0.23761262  0.27645891  1
  O  O277  1  0.60035378  0.23692611  0.78285991  1
  O  O278  1  0.60120918  0.56632940  0.27950492  1
  O  O279  1  0.58671794  0.57353705  0.76248329  1
  O  O280  1  0.60400934  0.90605682  0.27888278  1
  O  O281  1  0.59382991  0.89414882  0.77566582  1
  O  O282  1  0.93678761  0.23674447  0.27345169  1
  O  O283  1  0.92293202  0.24798658  0.77869773  1
  O  O284  1  0.92682048  0.56843456  0.27532852  1
  O  O285  1  0.93524686  0.56871446  0.75761251  1
  O  O286  1  0.92666773  0.90719075  0.26854997  1
  O  O287  1  0.92678153  0.90972359  0.77061803  1
  O  O288  1  0.27651463  0.24252703  0.47306561  1
  O  O289  1  0.25678111  0.24201995  0.98954804  1
  O  O290  1  0.26205990  0.58017543  0.48377059  1
  O  O291  1  0.25541078  0.57362890  0.99132932  1
  O  O292  1  0.26261774  0.90368559  0.49731134  1
  O  O293  1  0.24864586  0.90399017  0.98575227  1
  O  O294  1  0.59810457  0.22993726  0.47178315  1
  O  O295  1  0.59619822  0.23458974  0.97408709  1
  O  O296  1  0.59484562  0.56462472  0.47171474  1
  O  O297  1  0.59770464  0.58015464  0.99247662  1
  O  O298  1  0.60300525  0.90662753  0.46931206  1
  O  O299  1  0.59481811  0.89828379  0.97428037  1
  O  O300  1  0.93782992  0.23754125  0.47031363  1
  O  O301  1  0.92521606  0.24708095  0.98001725  1
  O  O302  1  0.93163418  0.57402141  0.47298059  1
  O  O303  1  0.92375728  0.58273640  0.99024807  1
  O  O304  1  0.91864494  0.90661097  0.48049330  1
  O  O305  1  0.92503222  0.90237538  0.97739110  1
  O  O306  1  0.25202586  0.08318214  0.47196165  1
  O  O307  1  0.22611548  0.06032330  0.97706294  1
  O  O308  1  0.24922960  0.40481502  0.48566735  1
  O  O309  1  0.22823944  0.39772173  0.97259453  1
  O  O310  1  0.24368039  0.73446537  0.48804875  1
  O  O311  1  0.23763776  0.74453884  0.98870957  1
  O  O312  1  0.56957379  0.06615414  0.46985711  1
  O  O313  1  0.57627142  0.07918041  0.97733811  1
  O  O314  1  0.56511766  0.40520208  0.47619692  1
  O  O315  1  0.56412851  0.40066765  0.97549161  1
  O  O316  1  0.57211616  0.73688252  0.46795627  1
  O  O317  1  0.56960410  0.73828714  0.97058668  1
  O  O318  1  0.90427067  0.06792025  0.47449290  1
  O  O319  1  0.90036114  0.05969415  0.97813525  1
  O  O320  1  0.91095949  0.40624518  0.47858657  1
  O  O321  1  0.90532383  0.40224871  0.97915942  1
  O  O322  1  0.89426147  0.73288266  0.47898591  1
  O  O323  1  0.90074004  0.74001641  0.98326241  1
  O  O324  1  0.08619763  0.26148584  0.22875892  1
  O  O325  1  0.09479616  0.26471761  0.74074804  1
  O  O326  1  0.08832352  0.58284472  0.22662247  1
  O  O327  1  0.09635783  0.59862117  0.72135908  1
  O  O328  1  0.09412276  0.93287427  0.22219100  1
  O  O329  1  0.10006903  0.92514880  0.73844872  1
  O  O330  1  0.43139731  0.27156496  0.24804578  1
  O  O331  1  0.43926714  0.26779993  0.72946265  1
  O  O332  1  0.43879781  0.59488996  0.25132809  1
  O  O333  1  0.43268164  0.60439147  0.72697515  1
  O  O334  1  0.42346725  0.92171907  0.22258570  1
  O  O335  1  0.42971465  0.92460041  0.72215553  1
  O  O336  1  0.75396085  0.26047811  0.23088424  1
  O  O337  1  0.76936638  0.27140692  0.72026465  1
  O  O338  1  0.77151677  0.60345870  0.22734131  1
  O  O339  1  0.77238274  0.59768976  0.71922161  1
  O  O340  1  0.76707508  0.93793153  0.23192109  1
  O  O341  1  0.76725653  0.93272744  0.72242248  1
  O  O342  1  0.05835422  0.09225273  0.23326224  1
  O  O343  1  0.07198842  0.08249031  0.73922807  1
  O  O344  1  0.06310474  0.43198531  0.22817692  1
  O  O345  1  0.06983288  0.44012523  0.72733825  1
  O  O346  1  0.07749841  0.76254239  0.23268669  1
  O  O347  1  0.07445813  0.75600513  0.72643939  1
  O  O348  1  0.41039569  0.09743643  0.23424743  1
  O  O349  1  0.40605821  0.08334566  0.73518439  1
  O  O350  1  0.40346631  0.43818521  0.23442987  1
  O  O351  1  0.40960550  0.43389976  0.73019253  1
  O  O352  1  0.40050473  0.76415166  0.22249645  1
  O  O353  1  0.39982651  0.76203067  0.72099145  1
  O  O354  1  0.73239859  0.09567549  0.22658134  1
  O  O355  1  0.74468962  0.08988163  0.72935441  1
  O  O356  1  0.73375294  0.43367946  0.24204755  1
  O  O357  1  0.75033086  0.43416549  0.72442755  1
  O  O358  1  0.72991106  0.76289521  0.24853524  1
  O  O359  1  0.73429184  0.76239788  0.74857597  1
