# generated using pymatgen
data_BaLaInIrO6
_symmetry_space_group_name_H-M   'P 1'
_cell_length_a   17.51831324
_cell_length_b   17.54365551
_cell_length_c   16.49403701
_cell_angle_alpha   89.99707258
_cell_angle_beta   90.02544543
_cell_angle_gamma   90.00758680
_symmetry_Int_Tables_number   1
_chemical_formula_structural   BaLaInIrO6
_chemical_formula_sum   'Ba36 La36 In36 Ir36 O216'
_cell_volume   5069.19848079
_cell_formula_units_Z   36
loop_
 _symmetry_equiv_pos_site_id
 _symmetry_equiv_pos_as_xyz
  1  'x, y, z'
loop_
 _atom_site_type_symbol
 _atom_site_label
 _atom_site_symmetry_multiplicity
 _atom_site_fract_x
 _atom_site_fract_y
 _atom_site_fract_z
 _atom_site_occupancy
  Ba  Ba0  1  0.00232614  0.82171827  0.87307364  1
  Ba  Ba1  1  0.50167146  0.67622756  0.12266758  1
  Ba  Ba2  1  0.66571397  0.49387840  0.87581009  1
  Ba  Ba3  1  0.16678558  0.65592572  0.37746056  1
  Ba  Ba4  1  0.32766542  0.82039355  0.37801730  1
  Ba  Ba5  1  -0.00054654  0.49220232  0.87567167  1
  Ba  Ba6  1  0.16911957  0.65752966  0.87848279  1
  Ba  Ba7  1  0.83602414  0.31403864  0.37644312  1
  Ba  Ba8  1  0.16692782  0.34118746  0.13148768  1
  Ba  Ba9  1  0.49915735  0.32664724  0.87202705  1
  Ba  Ba10  1  0.82900573  0.34386894  0.62579220  1
  Ba  Ba11  1  0.16371587  0.32706669  0.37643580  1
  Ba  Ba12  1  0.16221393  0.68190324  0.62417120  1
  Ba  Ba13  1  0.84001659  0.65997000  0.87369533  1
  Ba  Ba14  1  0.66616957  0.15806419  0.37547344  1
  Ba  Ba15  1  0.33196807  0.18049032  0.62040340  1
  Ba  Ba16  1  1.00750927  0.84795496  0.62295884  1
  Ba  Ba17  1  0.32960416  0.16203968  0.37174459  1
  Ba  Ba18  1  0.33429364  0.15749176  0.87392892  1
  Ba  Ba19  1  0.83047847  0.33861316  0.12741488  1
  Ba  Ba20  1  0.83855960  0.65893931  0.37311966  1
  Ba  Ba21  1  0.49917801  0.34205281  0.62249515  1
  Ba  Ba22  1  0.83670344  0.67970966  0.62218907  1
  Ba  Ba23  1  0.66980281  0.84481208  0.12030520  1
  Ba  Ba24  1  0.49454091  0.34048882  0.12461433  1
  Ba  Ba25  1  0.16608797  0.99182092  0.37542196  1
  Ba  Ba26  1  0.83367103  0.32647997  0.87523339  1
  Ba  Ba27  1  0.16474472  0.00871125  0.62126200  1
  Ba  Ba28  1  0.50124187  0.65948258  0.87760642  1
  Ba  Ba29  1  -0.00238914  0.49022019  0.38267471  1
  Ba  Ba30  1  0.32937918  0.17449956  0.12282472  1
  Ba  Ba31  1  1.00344450  0.84187460  0.12618355  1
  Ba  Ba32  1  0.83597725  0.00654074  0.12280680  1
  Ba  Ba33  1  0.33655260  0.83903980  0.12566625  1
  Ba  Ba34  1  0.66923847  0.82548963  0.87497066  1
  Ba  Ba35  1  0.49916816  0.99662207  0.87712385  1
  La  La36  1  0.67038867  0.17956957  0.62551142  1
  La  La37  1  0.50071558  0.65221057  0.36941976  1
  La  La38  1  0.17560918  0.98160742  0.86913038  1
  La  La39  1  0.66481211  0.82527384  0.37501446  1
  La  La40  1  0.32940067  0.48353100  0.87712266  1
  La  La41  1  0.33750145  0.50814309  0.12662226  1
  La  La42  1  -0.00375950  0.14774271  0.87498796  1
  La  La43  1  0.66274838  0.16571705  0.88011412  1
  La  La44  1  0.32612083  0.48593787  0.37841017  1
  La  La45  1  0.67390455  0.51981512  0.63071943  1
  La  La46  1  0.15535888  0.01417505  0.12525136  1
  La  La47  1  0.49527662  0.01880008  0.62501019  1
  La  La48  1  0.16097241  0.34513712  0.62439701  1
  La  La49  1  0.83786607  0.98195005  0.87390576  1
  La  La50  1  -0.00315800  0.15722752  0.37097181  1
  La  La51  1  0.49743422  0.00824591  0.12729803  1
  La  La52  1  0.67044383  0.17638346  0.12573517  1
  La  La53  1  0.65993741  0.48455443  0.37432872  1
  La  La54  1  0.33383974  0.84961937  0.62559969  1
  La  La55  1  0.82779782  0.68321352  0.11905775  1
  La  La56  1  0.33032104  0.81781422  0.87677630  1
  La  La57  1  0.17246913  0.31825810  0.87514229  1
  La  La58  1  0.33388782  0.51359995  0.62321293  1
  La  La59  1  1.00230975  0.51207960  0.12603888  1
  La  La60  1  0.83450130  0.01005428  0.62647254  1
  La  La61  1  0.66852032  0.51498120  0.12181734  1
  La  La62  1  0.83836855  0.99081295  0.37608008  1
  La  La63  1  0.16931007  0.68227415  0.13003856  1
  La  La64  1  0.49544128  0.68018677  0.62211786  1
  La  La65  1  1.00414777  0.18239938  0.12635859  1
  La  La66  1  1.00054475  0.51829614  0.62876988  1
  La  La67  1  0.66839733  0.84540715  0.63098036  1
  La  La68  1  -0.00180806  0.82045593  0.37655630  1
  La  La69  1  0.49863605  0.98794000  0.37382785  1
  La  La70  1  0.50023035  0.31323293  0.37613412  1
  La  La71  1  1.00245148  0.17332232  0.62323993  1
  In  In72  1  0.83519587  0.16692625  0.00100712  1
  In  In73  1  0.83341451  0.83770114  0.25128255  1
  In  In74  1  0.00241611  0.66422429  0.00280483  1
  In  In75  1  -0.00233070  0.33772611  0.25021569  1
  In  In76  1  0.83648572  0.49724539  0.00217938  1
  In  In77  1  0.66818371  0.66694804  -0.00298689  1
  In  In78  1  0.66587432  0.33504228  0.75047686  1
  In  In79  1  0.49925896  0.49997363  0.49708096  1
  In  In80  1  0.33531630  0.33431303  0.25112861  1
  In  In81  1  0.16743238  0.83357185  0.00210480  1
  In  In82  1  0.50027628  0.83674079  -0.00079714  1
  In  In83  1  0.16417680  0.16757631  0.25226176  1
  In  In84  1  0.66930303  0.66606828  0.25262333  1
  In  In85  1  0.66473312  0.67029269  0.49836168  1
  In  In86  1  0.66547721  0.33509739  0.24831794  1
  In  In87  1  -0.00364230  0.33063030  0.50263860  1
  In  In88  1  0.82866761  0.50053559  0.49892949  1
  In  In89  1  0.33052194  -0.00059435  0.24798271  1
  In  In90  1  0.33357357  0.00252001  0.49855986  1
  In  In91  1  0.49977567  0.83616844  0.74792529  1
  In  In92  1  0.16584642  0.16515166  0.75008279  1
  In  In93  1  0.66453455  0.33416651  0.49878788  1
  In  In94  1  0.50026404  0.50149837  0.74706409  1
  In  In95  1  0.66967902  0.00479855  -0.00150558  1
  In  In96  1  0.00112145  0.33242338  0.75148445  1
  In  In97  1  -0.00090576  0.66477797  0.24961187  1
  In  In98  1  0.83332817  0.16456030  0.75174283  1
  In  In99  1  0.16700951  0.49864670  0.75211811  1
  In  In100  1  0.49873028  0.16900736  0.00149196  1
  In  In101  1  0.00142193  0.66803890  0.49993357  1
  In  In102  1  0.66671748  0.00307853  0.74815984  1
  In  In103  1  0.32948263  -0.00008879  0.00173331  1
  In  In104  1  0.33350851  0.66613345  0.74626792  1
  In  In105  1  0.49939356  0.83232582  0.25254934  1
  In  In106  1  0.66470394  -0.00061636  0.49919073  1
  In  In107  1  0.33368596  0.66108801  0.00244153  1
  Ir  Ir108  1  0.83569477  0.50390691  0.74885559  1
  Ir  Ir109  1  0.50335624  0.16304842  0.25236854  1
  Ir  Ir110  1  0.00326943  0.00207914  -0.00214588  1
  Ir  Ir111  1  0.49842506  0.49498914  0.00459338  1
  Ir  Ir112  1  0.49640342  0.50031205  0.25165564  1
  Ir  Ir113  1  0.33382374  -0.00048275  0.74783248  1
  Ir  Ir114  1  0.17030829  0.50245282  0.25014811  1
  Ir  Ir115  1  0.83184764  0.49964759  0.24816335  1
  Ir  Ir116  1  0.83503270  0.15704956  0.50009798  1
  Ir  Ir117  1  0.83270730  0.84155419  0.50300826  1
  Ir  Ir118  1  0.16714049  0.83533957  0.49853179  1
  Ir  Ir119  1  0.17152421  0.49788462  0.50088636  1
  Ir  Ir120  1  0.32969608  0.33304893  0.74882801  1
  Ir  Ir121  1  0.16851593  0.83579400  0.74829447  1
  Ir  Ir122  1  0.16662054  0.83294610  0.25250491  1
  Ir  Ir123  1  0.15937670  0.16715068  -0.00313620  1
  Ir  Ir124  1  0.00247602  0.66915454  0.74937298  1
  Ir  Ir125  1  0.33128293  0.33552166  0.50374731  1
  Ir  Ir126  1  0.66687092  0.00210918  0.25374684  1
  Ir  Ir127  1  -0.00163566  0.00077037  0.49875444  1
  Ir  Ir128  1  0.32826795  0.33420522  -0.00233569  1
  Ir  Ir129  1  0.33358363  0.66828514  0.50003269  1
  Ir  Ir130  1  0.66378444  0.33538350  0.00288215  1
  Ir  Ir131  1  0.00601556  0.33167114  0.00045557  1
  Ir  Ir132  1  0.83359479  0.15829743  0.25067757  1
  Ir  Ir133  1  0.33264931  0.66157044  0.25423928  1
  Ir  Ir134  1  0.66813228  0.66858308  0.74738825  1
  Ir  Ir135  1  0.49932369  0.83141632  0.49979095  1
  Ir  Ir136  1  0.16928072  0.49485964  0.00674680  1
  Ir  Ir137  1  0.83997382  0.83638019  -0.00391438  1
  Ir  Ir138  1  0.00057117  -0.00050015  0.75150012  1
  Ir  Ir139  1  0.16411311  0.16921518  0.50177843  1
  Ir  Ir140  1  0.49789215  0.16625423  0.74613353  1
  Ir  Ir141  1  0.00042967  0.00001375  0.25078475  1
  Ir  Ir142  1  0.49843687  0.16566780  0.49853194  1
  Ir  Ir143  1  0.83869711  0.83537073  0.74462955  1
  O  O144  1  0.31686494  0.33490917  0.11902814  1
  O  O145  1  0.29807827  0.33304062  0.62689497  1
  O  O146  1  0.30383772  0.64747430  0.13476741  1
  O  O147  1  0.30818639  0.65279349  0.61766462  1
  O  O148  1  0.29037278  0.99653700  0.12397253  1
  O  O149  1  0.31501234  0.99306709  0.62789649  1
  O  O150  1  0.64477762  0.32143949  0.12297132  1
  O  O151  1  0.64858134  0.31556147  0.62321586  1
  O  O152  1  0.65008037  0.65373940  0.12697387  1
  O  O153  1  0.63523335  0.66383361  0.62645296  1
  O  O154  1  0.63557789  1.00175663  0.13506201  1
  O  O155  1  0.63160859  0.98314473  0.62123987  1
  O  O156  1  0.98044620  0.32208340  0.12037756  1
  O  O157  1  0.97604798  0.30820541  0.62662181  1
  O  O158  1  0.96527240  0.65564443  0.12807408  1
  O  O159  1  0.98965865  0.66333750  0.62848902  1
  O  O160  1  0.98335316  0.99357313  0.12440077  1
  O  O161  1  0.97083529  1.00028319  0.62608946  1
  O  O162  1  0.17813184  0.15534421  0.11653647  1
  O  O163  1  0.18220440  0.16394219  0.62103468  1
  O  O164  1  0.20177463  0.49481279  0.12899611  1
  O  O165  1  0.20067278  0.48965061  0.61999455  1
  O  O166  1  0.18538519  0.82858244  0.13301069  1
  O  O167  1  0.19618395  0.83770064  0.62361172  1
  O  O168  1  0.53333542  0.15501079  0.13286274  1
  O  O169  1  0.52944688  0.16036808  0.62114800  1
  O  O170  1  0.53107160  0.49303293  0.13012108  1
  O  O171  1  0.53654064  0.50049005  0.61966442  1
  O  O172  1  0.52134941  0.83264925  0.12873887  1
  O  O173  1  0.53293672  0.81773770  0.61650278  1
  O  O174  1  0.86576041  0.16507150  0.13076631  1
  O  O175  1  0.86632709  0.15417581  0.61950734  1
  O  O176  1  0.86585666  0.49113706  0.13152959  1
  O  O177  1  0.86200696  0.50098874  0.63139175  1
  O  O178  1  0.85366574  0.83453300  0.11779445  1
  O  O179  1  0.86024593  0.84052529  0.62320678  1
  O  O180  1  0.13360705  0.17025337  0.38264523  1
  O  O181  1  0.13114836  0.17885494  0.87787335  1
  O  O182  1  0.14626044  0.50081321  0.37463847  1
  O  O183  1  0.14970389  0.49797356  0.88602169  1
  O  O184  1  0.13614597  0.83392270  0.37500593  1
  O  O185  1  0.15212689  0.84009024  0.86945891  1
  O  O186  1  0.47634371  0.17258793  0.37548639  1
  O  O187  1  0.48240931  0.16797853  0.86584876  1
  O  O188  1  0.46113189  0.51213684  0.36910819  1
  O  O189  1  0.46762551  0.50102153  0.88272467  1
  O  O190  1  0.47499081  0.84956230  0.38242268  1
  O  O191  1  0.46196566  0.83904780  0.87012939  1
  O  O192  1  0.81363991  0.14684159  0.37583196  1
  O  O193  1  0.80027609  0.16845524  0.87744227  1
  O  O194  1  0.79665656  0.50619349  0.36667781  1
  O  O195  1  0.81838780  0.50323196  0.86968710  1
  O  O196  1  0.80207298  0.84970037  0.38369551  1
  O  O197  1  0.81869208  0.84227167  0.86864164  1
  O  O198  1  0.01908779  0.01940888  0.37477105  1
  O  O199  1  0.03537434  0.00994462  0.87521840  1
  O  O200  1  0.01261514  0.32553197  0.37655260  1
  O  O201  1  0.03598602  0.33892476  0.88113439  1
  O  O202  1  0.01645417  0.67525350  0.37486445  1
  O  O203  1  0.01646056  0.66459099  0.87095185  1
  O  O204  1  0.36370155  0.00291478  0.37528768  1
  O  O205  1  0.34718225  -0.00004181  0.86717660  1
  O  O206  1  0.36341007  0.34530363  0.38181559  1
  O  O207  1  0.34970214  0.34628481  0.87256170  1
  O  O208  1  0.36380913  0.66913182  0.37742532  1
  O  O209  1  0.34695869  0.67622413  0.87310673  1
  O  O210  1  0.69899693  0.00156666  0.37385993  1
  O  O211  1  0.70273265  0.02407259  0.87010081  1
  O  O212  1  0.68858562  0.34351954  0.37247062  1
  O  O213  1  0.68248828  0.33262191  0.88249436  1
  O  O214  1  0.69410000  0.69008240  0.37645347  1
  O  O215  1  0.69098374  0.66563575  0.86652899  1
  O  O216  1  0.06417798  0.10035850  0.02316977  1
  O  O217  1  0.06465024  0.10109651  0.52047641  1
  O  O218  1  0.07031003  0.43020045  0.02957295  1
  O  O219  1  0.08003707  0.42689954  0.52747113  1
  O  O220  1  0.07840415  0.75439072  0.02081143  1
  O  O221  1  0.07527030  0.76663073  0.50794869  1
  O  O222  1  0.40954429  0.09089671  0.01977543  1
  O  O223  1  0.41370871  0.09242219  0.52335789  1
  O  O224  1  0.39555168  0.42987453  0.01895698  1
  O  O225  1  0.39510355  0.43192819  0.52417149  1
  O  O226  1  0.40402198  0.75861160  0.00968743  1
  O  O227  1  0.40123876  0.76580431  0.52859375  1
  O  O228  1  0.73940882  0.09943589  0.03444247  1
  O  O229  1  0.73934091  0.09516223  0.52736542  1
  O  O230  1  0.73222702  0.42901222  0.02488998  1
  O  O231  1  0.72491037  0.43730876  0.52225805  1
  O  O232  1  0.75411968  0.75984950  0.01562288  1
  O  O233  1  0.73495168  0.77860563  0.52262175  1
  O  O234  1  0.09463031  0.26080152  0.02256425  1
  O  O235  1  0.09675711  0.25887817  0.52803496  1
  O  O236  1  0.10495682  0.58758480  0.03435587  1
  O  O237  1  0.09551179  0.58235380  0.52104169  1
  O  O238  1  0.10112758  0.93906881  0.01580390  1
  O  O239  1  0.09418940  0.93198066  0.51107012  1
  O  O240  1  0.41826895  0.26230587  0.01032416  1
  O  O241  1  0.42837754  0.26505895  0.51050685  1
  O  O242  1  0.42563651  0.58024933  0.02792965  1
  O  O243  1  0.42798283  0.60324615  0.52063897  1
  O  O244  1  0.43011840  0.93510603  0.02837626  1
  O  O245  1  0.43621037  0.92549031  0.52770933  1
  O  O246  1  0.75179439  0.26207233  0.01871767  1
  O  O247  1  0.76288526  0.24676989  0.51561276  1
  O  O248  1  0.76360857  0.59348098  0.02596413  1
  O  O249  1  0.75200445  0.59291096  0.52631235  1
  O  O250  1  0.76995441  0.92764037  0.00129456  1
  O  O251  1  0.76725327  0.93280732  0.52802746  1
  O  O252  1  0.23857109  0.07602426  0.26395935  1
  O  O253  1  0.23618099  0.06492894  0.77074029  1
  O  O254  1  0.24286142  0.41628798  0.27343997  1
  O  O255  1  0.23489142  0.39578620  0.77205897  1
  O  O256  1  0.23376834  0.73015065  0.26220820  1
  O  O257  1  0.23937596  0.74658126  0.76525216  1
  O  O258  1  0.56880830  0.06586899  0.27699950  1
  O  O259  1  0.56415161  0.07458138  0.75529769  1
  O  O260  1  0.56193811  0.40805167  0.27853482  1
  O  O261  1  0.57327236  0.40903500  0.76499016  1
  O  O262  1  0.57212555  0.73936032  0.28248740  1
  O  O263  1  0.57714595  0.73609522  0.76212522  1
  O  O264  1  0.90408329  0.06537980  0.27466220  1
  O  O265  1  0.90433197  0.06212757  0.77400099  1
  O  O266  1  0.89604974  0.40661898  0.26910491  1
  O  O267  1  0.90462558  0.41173865  0.76478172  1
  O  O268  1  0.91598178  0.75263782  0.27193915  1
  O  O269  1  0.90871991  0.74139692  0.76287318  1
  O  O270  1  0.25389073  0.24856671  0.26157597  1
  O  O271  1  0.26223682  0.24247944  0.77030608  1
  O  O272  1  0.26790292  0.56633488  0.27519085  1
  O  O273  1  0.27010289  0.56043358  0.76714760  1
  O  O274  1  0.25522953  0.90076909  0.26958420  1
  O  O275  1  0.26866695  0.90060326  0.76867111  1
  O  O276  1  0.58743670  0.23925487  0.26976944  1
  O  O277  1  0.59498608  0.22687402  0.76532716  1
  O  O278  1  0.59240966  0.56546050  0.27506321  1
  O  O279  1  0.60005391  0.57814946  0.76321127  1
  O  O280  1  0.59963245  0.91120834  0.28224453  1
  O  O281  1  0.59886464  0.90372387  0.76188865  1
  O  O282  1  0.92594069  0.22541138  0.26853761  1
  O  O283  1  0.93569766  0.22906155  0.77645139  1
  O  O284  1  0.92599304  0.56322913  0.26732969  1
  O  O285  1  0.93547920  0.57098144  0.75717289  1
  O  O286  1  0.93187092  0.91110673  0.28223250  1
  O  O287  1  0.92969350  0.90758181  0.77095722  1
  O  O288  1  0.25668886  0.24097700  0.48106502  1
  O  O289  1  0.25184916  0.24127078  0.97254702  1
  O  O290  1  0.27054935  0.56701004  0.47877558  1
  O  O291  1  0.26662176  0.55510448  0.98479885  1
  O  O292  1  0.25998830  0.90398395  0.49146469  1
  O  O293  1  0.26405171  0.90079313  0.96922296  1
  O  O294  1  0.58540083  0.23815653  0.48028066  1
  O  O295  1  0.59736756  0.24280719  0.98381530  1
  O  O296  1  0.59024021  0.57558886  0.45869894  1
  O  O297  1  0.58945753  0.56464948  0.99228238  1
  O  O298  1  0.59567014  0.89436200  0.47552993  1
  O  O299  1  0.59463121  0.91442920  0.97985755  1
  O  O300  1  0.93173091  0.21755819  0.47995754  1
  O  O301  1  0.94189935  0.23455299  0.98006325  1
  O  O302  1  0.92506736  0.57561528  0.49347915  1
  O  O303  1  0.93567368  0.56504444  0.99496027  1
  O  O304  1  0.93036047  0.90673313  0.47038461  1
  O  O305  1  0.93009469  0.91261112  0.97291551  1
  O  O306  1  0.23782287  0.08170117  0.48341750  1
  O  O307  1  0.22261570  0.07209009  0.97356414  1
  O  O308  1  0.24223336  0.40694498  0.47981412  1
  O  O309  1  0.23354382  0.40072080  0.97640822  1
  O  O310  1  0.23687607  0.73935669  0.48489663  1
  O  O311  1  0.23616313  0.73259932  1.00031220  1
  O  O312  1  0.56192022  0.06839749  0.47985873  1
  O  O313  1  0.58399183  0.08816942  0.97399369  1
  O  O314  1  0.56427310  0.40248800  0.46451159  1
  O  O315  1  0.57039590  0.40530900  0.98613162  1
  O  O316  1  0.55786772  0.73554794  0.47361065  1
  O  O317  1  0.57867282  0.74316496  0.98198183  1
  O  O318  1  0.89653108  0.05731776  0.48681895  1
  O  O319  1  0.90945530  0.06843865  0.96907987  1
  O  O320  1  0.90086881  0.40339334  0.48770350  1
  O  O321  1  0.91418717  0.39751403  0.98604225  1
  O  O322  1  0.90589009  0.75475084  0.48001857  1
  O  O323  1  0.90720144  0.74452563  0.99090369  1
  O  O324  1  0.08197892  0.25275648  0.22976907  1
  O  O325  1  0.10579033  0.26977812  0.73177246  1
  O  O326  1  0.10068983  0.59187983  0.22152676  1
  O  O327  1  0.09037727  0.59435262  0.73363983  1
  O  O328  1  0.10038160  0.93223100  0.23101099  1
  O  O329  1  0.10056228  0.93542732  0.74010824  1
  O  O330  1  0.43254116  0.25568675  0.24168608  1
  O  O331  1  0.42572145  0.26243529  0.73058548  1
  O  O332  1  0.42820373  0.59488440  0.23130979  1
  O  O333  1  0.43153625  0.59653582  0.71757151  1
  O  O334  1  0.43407166  0.93462860  0.23324656  1
  O  O335  1  0.42643893  0.93358102  0.71714314  1
  O  O336  1  0.75830529  0.24633898  0.23303676  1
  O  O337  1  0.75529800  0.25465222  0.73179956  1
  O  O338  1  0.77008598  0.59272079  0.22040045  1
  O  O339  1  0.76076448  0.59569644  0.72469405  1
  O  O340  1  0.75808978  0.93469327  0.23593756  1
  O  O341  1  0.76943160  0.92733575  0.72715203  1
  O  O342  1  0.06492338  0.09228182  0.22521152  1
  O  O343  1  0.05972431  0.09891549  0.73446808  1
  O  O344  1  0.07398334  0.43679590  0.23014760  1
  O  O345  1  0.07214374  0.43002876  0.71551968  1
  O  O346  1  0.08136859  0.75905465  0.23388433  1
  O  O347  1  0.07249035  0.76490130  0.73402852  1
  O  O348  1  0.41745535  0.09225021  0.22553034  1
  O  O349  1  0.40416308  0.09321838  0.72430610  1
  O  O350  1  0.40314083  0.43524504  0.22922034  1
  O  O351  1  0.39262408  0.43003933  0.72916122  1
  O  O352  1  0.40153334  0.75112765  0.23881561  1
  O  O353  1  0.40536449  0.76296795  0.71431331  1
  O  O354  1  0.73390267  0.09520607  0.22673529  1
  O  O355  1  0.74211087  0.09088406  0.70793844  1
  O  O356  1  0.73205032  0.43919657  0.22651480  1
  O  O357  1  0.74123523  0.43769324  0.72897282  1
  O  O358  1  0.74801596  0.75704304  0.22550387  1
  O  O359  1  0.73911947  0.76698243  0.72333749  1
