# generated using pymatgen
data_BaLaInIrO6
_symmetry_space_group_name_H-M   'P 1'
_cell_length_a   17.51674303
_cell_length_b   17.55001592
_cell_length_c   16.48288197
_cell_angle_alpha   89.99837794
_cell_angle_beta   89.97936849
_cell_angle_gamma   89.99943302
_symmetry_Int_Tables_number   1
_chemical_formula_structural   BaLaInIrO6
_chemical_formula_sum   'Ba36 La36 In36 Ir36 O216'
_cell_volume   5067.15272204
_cell_formula_units_Z   36
loop_
 _symmetry_equiv_pos_site_id
 _symmetry_equiv_pos_as_xyz
  1  'x, y, z'
loop_
 _atom_site_type_symbol
 _atom_site_label
 _atom_site_symmetry_multiplicity
 _atom_site_fract_x
 _atom_site_fract_y
 _atom_site_fract_z
 _atom_site_occupancy
  Ba  Ba0  1  0.50169295  0.01522551  0.12596363  1
  Ba  Ba1  1  0.82935876  0.67219218  0.62654736  1
  Ba  Ba2  1  0.16296100  0.34098748  0.12659437  1
  Ba  Ba3  1  0.83046112  0.34237329  0.62423017  1
  Ba  Ba4  1  0.16182828  0.67872989  0.62265672  1
  Ba  Ba5  1  0.50132470  0.65631287  0.37260799  1
  Ba  Ba6  1  0.83147415  0.00641139  0.12630719  1
  Ba  Ba7  1  0.99825167  0.84519306  0.12579645  1
  Ba  Ba8  1  0.49530837  0.34527823  0.62070585  1
  Ba  Ba9  1  0.50223748  0.32623581  0.37205832  1
  Ba  Ba10  1  0.33437535  0.82688181  0.87229700  1
  Ba  Ba11  1  0.33632132  0.50936427  0.62450072  1
  Ba  Ba12  1  0.66709516  0.48823258  0.87244634  1
  Ba  Ba13  1  0.50458905  0.99620844  0.37816952  1
  Ba  Ba14  1  0.16815148  0.67420418  0.12356886  1
  Ba  Ba15  1  0.33797464  0.15431542  0.37665628  1
  Ba  Ba16  1  0.66341330  0.48734157  0.37453285  1
  Ba  Ba17  1  0.49927848  0.33845499  0.12450244  1
  Ba  Ba18  1  -0.00455331  0.49471043  0.87655313  1
  Ba  Ba19  1  0.66354804  0.50880267  0.12452039  1
  Ba  Ba20  1  0.83389522  0.98944380  0.87883846  1
  Ba  Ba21  1  0.82799927  0.34060203  0.12502788  1
  Ba  Ba22  1  -0.00153454  0.82812022  0.37146214  1
  Ba  Ba23  1  0.49856675  0.01193737  0.62938276  1
  Ba  Ba24  1  0.99750291  0.17400965  0.12613176  1
  Ba  Ba25  1  0.16400344  0.00656408  0.62867843  1
  Ba  Ba26  1  0.50402178  0.99037359  0.87693886  1
  Ba  Ba27  1  0.66593134  0.84264752  0.12743867  1
  Ba  Ba28  1  0.66944427  0.15228876  0.87401972  1
  Ba  Ba29  1  0.83385946  0.99073142  0.37014839  1
  Ba  Ba30  1  0.83431122  0.00886462  0.62171317  1
  Ba  Ba31  1  0.16840247  0.65788466  0.37272677  1
  Ba  Ba32  1  0.00162691  0.49574886  0.37658966  1
  Ba  Ba33  1  0.33727190  0.17725855  0.62819988  1
  Ba  Ba34  1  0.67067893  0.17239047  0.12441538  1
  Ba  Ba35  1  0.66380289  0.50565204  0.62276262  1
  La  La36  1  0.66759372  0.18216194  0.62338641  1
  La  La37  1  0.83168433  0.65303782  0.87724374  1
  La  La38  1  0.67223714  0.84590845  0.62503163  1
  La  La39  1  0.32675063  0.48112014  0.87276084  1
  La  La40  1  0.16995104  0.98464114  0.37488176  1
  La  La41  1  0.65922073  0.16010133  0.37584615  1
  La  La42  1  0.16353298  0.01026965  0.12742261  1
  La  La43  1  0.17233627  0.64934864  0.87347077  1
  La  La44  1  1.00847826  0.18176977  0.62742966  1
  La  La45  1  0.50716034  0.31259218  0.87197440  1
  La  La46  1  0.16464501  0.34446451  0.62110108  1
  La  La47  1  1.00177909  0.51494753  0.12723718  1
  La  La48  1  0.82809886  0.68075244  0.12164563  1
  La  La49  1  -0.00516719  0.15255857  0.87541674  1
  La  La50  1  0.66482269  0.81589406  0.37579489  1
  La  La51  1  0.50527007  0.65404472  0.87666835  1
  La  La52  1  0.34303660  0.51322871  0.12961723  1
  La  La53  1  0.33696607  0.15069267  0.88041934  1
  La  La54  1  0.49535192  0.68192452  0.12263480  1
  La  La55  1  -0.00370735  0.15761624  0.37496700  1
  La  La56  1  0.33584331  0.84824417  0.62082035  1
  La  La57  1  0.83763097  0.65425984  0.37312474  1
  La  La58  1  0.17268337  0.31705656  0.37549521  1
  La  La59  1  -0.00245926  0.82052933  0.87760439  1
  La  La60  1  0.32742779  0.48167088  0.37787271  1
  La  La61  1  0.83242907  0.32160973  0.37464618  1
  La  La62  1  0.17533245  0.98742169  0.88065452  1
  La  La63  1  0.34188233  0.85246715  0.12695731  1
  La  La64  1  0.83465248  0.31822796  0.87624055  1
  La  La65  1  1.00077740  0.84686882  0.62868780  1
  La  La66  1  1.00104000  0.51906663  0.62399382  1
  La  La67  1  0.32689729  0.82154182  0.37341105  1
  La  La68  1  0.34138044  0.17714892  0.12751198  1
  La  La69  1  0.49748887  0.67204473  0.61974543  1
  La  La70  1  0.16641162  0.31496555  0.87454370  1
  La  La71  1  0.65835150  0.82457608  0.87718475  1
  In  In72  1  0.83474158  0.16485169  0.00051132  1
  In  In73  1  0.16771983  0.49710860  0.00089886  1
  In  In74  1  0.83290513  0.49674647  0.74801323  1
  In  In75  1  -0.00039323  0.33511560  0.00096649  1
  In  In76  1  0.83430289  0.16494257  0.74476029  1
  In  In77  1  0.16559893  0.83041825  0.75194424  1
  In  In78  1  0.16631023  0.83188164  0.24687058  1
  In  In79  1  0.49920577  0.83613983  0.25371387  1
  In  In80  1  0.16484061  0.49679991  0.74935844  1
  In  In81  1  -0.00098815  0.33707384  0.49953720  1
  In  In82  1  0.16762640  0.16386212  0.50060577  1
  In  In83  1  0.50185104  0.49949697  0.25010502  1
  In  In84  1  0.50121065  0.83190912  0.49921096  1
  In  In85  1  0.66567962  0.66742537  0.74978083  1
  In  In86  1  0.33511343  0.66679064  -0.00651457  1
  In  In87  1  0.66855355  -0.00038570  0.25141956  1
  In  In88  1  0.49895618  0.16838669  0.50257915  1
  In  In89  1  0.83334590  0.83094447  0.49935375  1
  In  In90  1  -0.00021369  0.00218155  0.49735309  1
  In  In91  1  0.33525250  0.66604661  0.25028455  1
  In  In92  1  -0.00007258  -0.00103256  0.75289771  1
  In  In93  1  0.50039945  0.82958815  0.74825129  1
  In  In94  1  0.49665636  0.49913084  0.75108668  1
  In  In95  1  0.16736012  0.83111436  0.00052417  1
  In  In96  1  0.33432537  0.00041694  0.75137426  1
  In  In97  1  -0.00102373  0.33639402  0.25189535  1
  In  In98  1  0.66903157  0.00106445  0.50100051  1
  In  In99  1  0.16808982  0.16647676  0.75222731  1
  In  In100  1  0.16636906  0.50190807  0.50143083  1
  In  In101  1  0.16854665  0.16610449  0.00283262  1
  In  In102  1  -0.00079318  0.66869656  0.00046334  1
  In  In103  1  0.49762365  0.49936544  -0.00289043  1
  In  In104  1  0.83095679  0.49738838  0.00240892  1
  In  In105  1  0.16910518  0.49849281  0.24824356  1
  In  In106  1  -0.00124366  0.67300522  0.49874569  1
  In  In107  1  0.33251598  0.33185380  -0.00030299  1
  Ir  Ir108  1  0.83300623  0.16870272  0.25656087  1
  Ir  Ir109  1  0.16904927  0.16276406  0.25206404  1
  Ir  Ir110  1  0.49976908  0.16906095  0.24819932  1
  Ir  Ir111  1  0.83291782  0.17077112  0.49729923  1
  Ir  Ir112  1  0.66869458  0.33419678  0.49908356  1
  Ir  Ir113  1  0.82993315  0.49950482  0.49563997  1
  Ir  Ir114  1  0.49717731  0.50171055  0.49820176  1
  Ir  Ir115  1  0.66646689  0.67246036  0.00240527  1
  Ir  Ir116  1  0.00383481  0.00476797  0.24674550  1
  Ir  Ir117  1  0.33428744  0.00071294  0.00479037  1
  Ir  Ir118  1  0.00211892  0.33459947  0.74948677  1
  Ir  Ir119  1  0.33079319  0.00235454  0.25220413  1
  Ir  Ir120  1  0.66434464  0.32998898  0.74985380  1
  Ir  Ir121  1  0.50340897  0.16742378  0.75370958  1
  Ir  Ir122  1  0.82875219  0.83289062  -0.00477071  1
  Ir  Ir123  1  0.66425288  0.33088065  -0.00332618  1
  Ir  Ir124  1  0.33389835  0.66908737  0.50429412  1
  Ir  Ir125  1  0.66548768  0.66325831  0.49733373  1
  Ir  Ir126  1  0.33492990  0.66773621  0.74627999  1
  Ir  Ir127  1  0.83243816  0.83029561  0.24655117  1
  Ir  Ir128  1  0.32931928  0.32741815  0.25369605  1
  Ir  Ir129  1  0.33108751  0.33325811  0.49959353  1
  Ir  Ir130  1  0.50163539  0.16614532  0.00126242  1
  Ir  Ir131  1  0.83134757  0.83170222  0.75491587  1
  Ir  Ir132  1  0.83183730  0.50082894  0.25209438  1
  Ir  Ir133  1  0.66780205  -0.00366633  0.75051355  1
  Ir  Ir134  1  -0.00602737  0.66648208  0.24878394  1
  Ir  Ir135  1  0.33607571  0.32957055  0.75385423  1
  Ir  Ir136  1  0.66647111  -0.00357693  -0.00202282  1
  Ir  Ir137  1  0.17114520  0.83595413  0.50050089  1
  Ir  Ir138  1  0.33279008  -0.00376346  0.49715791  1
  Ir  Ir139  1  0.00600551  -0.00061298  0.00310750  1
  Ir  Ir140  1  0.67163054  0.66645822  0.24858095  1
  Ir  Ir141  1  -0.00305030  0.67005702  0.75036387  1
  Ir  Ir142  1  0.49857199  0.83474666  0.00191316  1
  Ir  Ir143  1  0.67046943  0.33142769  0.25006391  1
  O  O144  1  0.31315636  0.31358473  0.13178646  1
  O  O145  1  0.30243969  0.32811538  0.62619435  1
  O  O146  1  0.31557255  0.64845540  0.12114895  1
  O  O147  1  0.30782234  0.66100949  0.62528245  1
  O  O148  1  0.30196102  0.99552865  0.12942212  1
  O  O149  1  0.31298100  0.99323234  0.61834082  1
  O  O150  1  0.64598611  0.32775010  0.12197959  1
  O  O151  1  0.64217683  0.32126061  0.62500695  1
  O  O152  1  0.63472457  0.66728260  0.12549009  1
  O  O153  1  0.63541986  0.66194743  0.61747980  1
  O  O154  1  0.65288325  1.00082308  0.11925867  1
  O  O155  1  0.64724559  0.98601700  0.63211951  1
  O  O156  1  0.97692810  0.32481421  0.12872382  1
  O  O157  1  0.97788190  0.31780005  0.63091105  1
  O  O158  1  0.96509798  0.66101164  0.13032742  1
  O  O159  1  0.97787527  0.66447182  0.62942315  1
  O  O160  1  0.97880303  1.00029772  0.12486222  1
  O  O161  1  0.98252128  0.98445841  0.62372717  1
  O  O162  1  0.20379439  0.15304746  0.13260839  1
  O  O163  1  0.18874675  0.16400187  0.62669134  1
  O  O164  1  0.20934547  0.49608682  0.12519030  1
  O  O165  1  0.18907192  0.48454547  0.62691835  1
  O  O166  1  0.20382320  0.83309297  0.12414139  1
  O  O167  1  0.19837535  0.83402361  0.62082257  1
  O  O168  1  0.52004858  0.17264789  0.12396747  1
  O  O169  1  0.52939062  0.17028012  0.63276968  1
  O  O170  1  0.51164830  0.49285492  0.12299872  1
  O  O171  1  0.51356720  0.50550622  0.61991037  1
  O  O172  1  0.51689185  0.82739345  0.12159236  1
  O  O173  1  0.53586577  0.81422861  0.62367370  1
  O  O174  1  0.84816946  0.16789098  0.13345273  1
  O  O175  1  0.86966692  0.16914800  0.61647077  1
  O  O176  1  0.86290451  0.49520397  0.13307517  1
  O  O177  1  0.86138619  0.49583817  0.61757384  1
  O  O178  1  0.85468272  0.82044479  0.12010111  1
  O  O179  1  0.86426546  0.82830275  0.63577419  1
  O  O180  1  0.13645596  0.17236986  0.37133540  1
  O  O181  1  0.13204510  0.17575485  0.87568094  1
  O  O182  1  0.15436969  0.49737926  0.37524878  1
  O  O183  1  0.14502066  0.51264526  0.87132050  1
  O  O184  1  0.15239123  0.84194867  0.37843171  1
  O  O185  1  0.13396230  0.85121688  0.87689742  1
  O  O186  1  0.48965444  0.16682417  0.36950834  1
  O  O187  1  0.47340974  0.16910799  0.87830633  1
  O  O188  1  0.46834634  0.49973044  0.37701139  1
  O  O189  1  0.46191503  0.51430409  0.87414072  1
  O  O190  1  0.46259841  0.83001491  0.37685896  1
  O  O191  1  0.48392660  0.83579121  0.88186766  1
  O  O192  1  0.79758869  0.17599647  0.37839283  1
  O  O193  1  0.81843677  0.17855736  0.87159007  1
  O  O194  1  0.80754276  0.51655464  0.37354838  1
  O  O195  1  0.81608701  0.51471073  0.87494576  1
  O  O196  1  0.80163870  0.83022218  0.36643066  1
  O  O197  1  0.79534855  0.83463996  0.87435394  1
  O  O198  1  0.03308439  0.01390297  0.36681475  1
  O  O199  1  0.03693826  0.00793334  0.88358365  1
  O  O200  1  0.03680773  0.33609722  0.37488969  1
  O  O201  1  0.03393792  0.34333119  0.86608762  1
  O  O202  1  0.01553270  0.66690080  0.36789754  1
  O  O203  1  0.02923872  0.67718240  0.86826698  1
  O  O204  1  0.35657997  -0.00358268  0.37397854  1
  O  O205  1  0.35646162  0.00857470  0.88505929  1
  O  O206  1  0.35330951  0.34417608  0.37663195  1
  O  O207  1  0.36944821  0.33959073  0.87087482  1
  O  O208  1  0.35404618  0.68347959  0.38498751  1
  O  O209  1  0.36947271  0.67557507  0.86277790  1
  O  O210  1  0.68511061  0.02370922  0.37585481  1
  O  O211  1  0.68356119  -0.00985251  0.87364403  1
  O  O212  1  0.69748311  0.33189822  0.37486975  1
  O  O213  1  0.69501069  0.33177383  0.87307260  1
  O  O214  1  0.70113695  0.67439906  0.37232984  1
  O  O215  1  0.69758432  0.68280241  0.88343188  1
  O  O216  1  0.07806652  0.08614678  0.02617025  1
  O  O217  1  0.05998450  0.10602774  0.51608762  1
  O  O218  1  0.06270014  0.43712602  0.02806949  1
  O  O219  1  0.06590274  0.43219025  0.53272392  1
  O  O220  1  0.06358248  0.76833350  0.00977529  1
  O  O221  1  0.07139711  0.77517192  0.52308615  1
  O  O222  1  0.40184905  0.09973535  0.02411505  1
  O  O223  1  0.40303705  0.08732996  0.51390008  1
  O  O224  1  0.38923673  0.43830309  0.01598530  1
  O  O225  1  0.40016611  0.43139402  0.51098343  1
  O  O226  1  0.40382131  0.77055225  0.02504459  1
  O  O227  1  0.40319314  0.75812217  0.53365803  1
  O  O228  1  0.74164274  0.08393322  0.00804423  1
  O  O229  1  0.74112655  0.10540898  0.52660868  1
  O  O230  1  0.73094962  0.42312770  0.01284646  1
  O  O231  1  0.73889821  0.42699310  0.51409801  1
  O  O232  1  0.73837778  0.76222326  0.02256376  1
  O  O233  1  0.72904848  0.75796411  0.51922313  1
  O  O234  1  0.10089970  0.26515569  0.00938136  1
  O  O235  1  0.09696150  0.26500373  0.52607088  1
  O  O236  1  0.09174910  0.59344237  0.01980329  1
  O  O237  1  0.08505889  0.59227948  0.51879000  1
  O  O238  1  0.09898576  0.93566095  0.02576513  1
  O  O239  1  0.10602309  0.93058214  0.50601755  1
  O  O240  1  0.43088368  0.25554330  0.01092643  1
  O  O241  1  0.42148604  0.26189207  0.51235502  1
  O  O242  1  0.44235842  0.61019452  0.01503839  1
  O  O243  1  0.43103730  0.60158098  0.52000401  1
  O  O244  1  0.42524378  0.92615761  0.02860460  1
  O  O245  1  0.42066993  0.92427737  0.52386825  1
  O  O246  1  0.75563369  0.26207552  0.00823408  1
  O  O247  1  0.75920859  0.26084717  0.52012142  1
  O  O248  1  0.75907075  0.60474681  0.02295111  1
  O  O249  1  0.75702246  0.59315048  0.51423171  1
  O  O250  1  0.75799371  0.92481055  0.01658337  1
  O  O251  1  0.75566432  0.91906303  0.52247272  1
  O  O252  1  0.23425495  0.06703026  0.27621294  1
  O  O253  1  0.24160260  0.07384662  0.78563948  1
  O  O254  1  0.23787520  0.39282681  0.27740650  1
  O  O255  1  0.24051775  0.39442241  0.77515900  1
  O  O256  1  0.24597943  0.74507861  0.27167869  1
  O  O257  1  0.23594620  0.72885950  0.77271149  1
  O  O258  1  0.57492101  0.08329162  0.26191346  1
  O  O259  1  0.57400006  0.06831742  0.76734085  1
  O  O260  1  0.57990882  0.40233838  0.26100160  1
  O  O261  1  0.57099819  0.39845224  0.77176792  1
  O  O262  1  0.58629797  0.74236349  0.27033613  1
  O  O263  1  0.57275607  0.73892552  0.78378713  1
  O  O264  1  0.91555185  0.08448007  0.27744459  1
  O  O265  1  0.90954205  0.07502378  0.77407309  1
  O  O266  1  0.89530882  0.40793031  0.28064649  1
  O  O267  1  0.90385708  0.39472039  0.77306948  1
  O  O268  1  0.89949196  0.73493874  0.27037215  1
  O  O269  1  0.90040356  0.73806255  0.78327337  1
  O  O270  1  0.25677411  0.23575205  0.27857114  1
  O  O271  1  0.27097072  0.23794131  0.78352428  1
  O  O272  1  0.27345306  0.56280248  0.27329061  1
  O  O273  1  0.26901675  0.57363334  0.77470325  1
  O  O274  1  0.26364580  0.91076444  0.27475612  1
  O  O275  1  0.25291774  0.91268561  0.77140895  1
  O  O276  1  0.60112949  0.23651030  0.27124518  1
  O  O277  1  0.59362345  0.23916619  0.77306518  1
  O  O278  1  0.59955677  0.57963022  0.26602487  1
  O  O279  1  0.58534858  0.57845561  0.77494350  1
  O  O280  1  0.59705988  0.90372916  0.27811116  1
  O  O281  1  0.60404525  0.89922697  0.76618190  1
  O  O282  1  0.92060589  0.24048879  0.28518682  1
  O  O283  1  0.94116603  0.23850121  0.77287947  1
  O  O284  1  0.92102571  0.57476711  0.27255882  1
  O  O285  1  0.92809133  0.57957355  0.76265019  1
  O  O286  1  0.92451556  0.91100095  0.26721579  1
  O  O287  1  0.92567533  0.89530228  0.77863242  1
  O  O288  1  0.25953708  0.24533437  0.47737777  1
  O  O289  1  0.26963166  0.23010257  0.97533810  1
  O  O290  1  0.26964082  0.57450472  0.47850806  1
  O  O291  1  0.26604074  0.56872403  0.96454568  1
  O  O292  1  0.26986605  0.89781574  0.47778393  1
  O  O293  1  0.26330147  0.91259233  0.98223511  1
  O  O294  1  0.60255782  0.24050055  0.48342107  1
  O  O295  1  0.59076620  0.23958047  0.97265587  1
  O  O296  1  0.59144881  0.57119595  0.47908524  1
  O  O297  1  0.59757602  0.58381165  0.97744693  1
  O  O298  1  0.59959459  0.89963670  0.47465661  1
  O  O299  1  0.59725768  0.89995630  0.98047149  1
  O  O300  1  0.92339200  0.24049664  0.46855218  1
  O  O301  1  0.93036339  0.23683890  0.97047262  1
  O  O302  1  0.91731972  0.57213938  0.48499745  1
  O  O303  1  0.91857779  0.58111015  0.98592954  1
  O  O304  1  0.92663660  0.90740044  0.48325079  1
  O  O305  1  0.93108289  0.90237696  0.97518692  1
  O  O306  1  0.23684603  0.06139250  0.47379575  1
  O  O307  1  0.24152287  0.06718065  0.97990971  1
  O  O308  1  0.23784511  0.39900029  0.48104507  1
  O  O309  1  0.23286282  0.39637803  0.96594598  1
  O  O310  1  0.24187809  0.74181887  0.48173631  1
  O  O311  1  0.23345588  0.73193834  0.96873593  1
  O  O312  1  0.57900517  0.08106328  0.49121962  1
  O  O313  1  0.57473665  0.07091476  0.98478695  1
  O  O314  1  0.57028723  0.40672830  0.48266265  1
  O  O315  1  0.56913205  0.39750323  0.97294807  1
  O  O316  1  0.57992786  0.73480289  0.47496059  1
  O  O317  1  0.56905235  0.74053437  0.97725698  1
  O  O318  1  0.90329811  0.08472479  0.47190349  1
  O  O319  1  0.91984472  0.07303017  0.98159723  1
  O  O320  1  0.89592139  0.40673963  0.47340533  1
  O  O321  1  0.89600146  0.39789030  0.97280515  1
  O  O322  1  0.89769606  0.73296449  0.47523287  1
  O  O323  1  0.89674030  0.74276404  0.97103325  1
  O  O324  1  0.09900798  0.25114486  0.23610195  1
  O  O325  1  0.10140313  0.27503944  0.72848218  1
  O  O326  1  0.08248672  0.59385775  0.22684297  1
  O  O327  1  0.08536657  0.59705862  0.72943278  1
  O  O328  1  0.09668235  0.93383144  0.23050931  1
  O  O329  1  0.08501300  0.91805322  0.72680646  1
  O  O330  1  0.42147460  0.25522988  0.23143772  1
  O  O331  1  0.43562493  0.26373950  0.73889859  1
  O  O332  1  0.43544644  0.59884823  0.22337885  1
  O  O333  1  0.43001320  0.60701679  0.72482177  1
  O  O334  1  0.41894088  0.93132426  0.22896790  1
  O  O335  1  0.42135400  0.91862483  0.72952120  1
  O  O336  1  0.76531135  0.26297863  0.24223481  1
  O  O337  1  0.75184588  0.25616291  0.72831592  1
  O  O338  1  0.76735879  0.59783338  0.22471151  1
  O  O339  1  0.75928357  0.59415137  0.74088279  1
  O  O340  1  0.76203179  0.91904538  0.23284357  1
  O  O341  1  0.76152985  0.92462082  0.72730907  1
  O  O342  1  0.08239151  0.08897759  0.22041084  1
  O  O343  1  0.06472454  0.10310577  0.72982986  1
  O  O344  1  0.06688442  0.43513552  0.22320294  1
  O  O345  1  0.05991627  0.43046123  0.72049747  1
  O  O346  1  0.06816018  0.75425670  0.23209775  1
  O  O347  1  0.06003530  0.76412105  0.73074528  1
  O  O348  1  0.40027430  0.09943637  0.22727236  1
  O  O349  1  0.41092205  0.09832144  0.74242227  1
  O  O350  1  0.39285900  0.42437159  0.23594318  1
  O  O351  1  0.39886150  0.42408882  0.73628304  1
  O  O352  1  0.40674913  0.76316359  0.22027888  1
  O  O353  1  0.39762605  0.76051739  0.71763130  1
  O  O354  1  0.74804538  0.09550658  0.23945083  1
  O  O355  1  0.73236235  0.09202013  0.72425227  1
  O  O356  1  0.74082160  0.42958562  0.23188146  1
  O  O357  1  0.73502060  0.41879122  0.73353220  1
  O  O358  1  0.74757359  0.75266681  0.22175490  1
  O  O359  1  0.73575604  0.76992786  0.72792886  1
