# generated using pymatgen
data_BaLaInIrO6
_symmetry_space_group_name_H-M   'P 1'
_cell_length_a   17.50352536
_cell_length_b   17.53051272
_cell_length_c   16.48503419
_cell_angle_alpha   89.91856752
_cell_angle_beta   90.00230921
_cell_angle_gamma   89.95295504
_symmetry_Int_Tables_number   1
_chemical_formula_structural   BaLaInIrO6
_chemical_formula_sum   'Ba36 La36 In36 Ir36 O216'
_cell_volume   5058.35625504
_cell_formula_units_Z   36
loop_
 _symmetry_equiv_pos_site_id
 _symmetry_equiv_pos_as_xyz
  1  'x, y, z'
loop_
 _atom_site_type_symbol
 _atom_site_label
 _atom_site_symmetry_multiplicity
 _atom_site_fract_x
 _atom_site_fract_y
 _atom_site_fract_z
 _atom_site_occupancy
  Ba  Ba0  1  0.50068081  0.34573754  0.62246828  1
  Ba  Ba1  1  -0.00493583  0.82482105  0.87783782  1
  Ba  Ba2  1  0.66269073  0.49063651  0.37961921  1
  Ba  Ba3  1  0.83546478  0.32283396  0.37703449  1
  Ba  Ba4  1  0.33129485  0.82485160  0.87136351  1
  Ba  Ba5  1  0.83612811  0.00649096  0.12504361  1
  Ba  Ba6  1  0.66960038  0.49083536  0.87822910  1
  Ba  Ba7  1  0.66641009  0.84603099  0.62077591  1
  Ba  Ba8  1  1.00056889  0.17553803  0.62582193  1
  Ba  Ba9  1  0.50169513  0.34394595  0.12694426  1
  Ba  Ba10  1  0.33357414  0.48935285  0.37792900  1
  Ba  Ba11  1  0.33068251  0.82070472  0.37570500  1
  Ba  Ba12  1  0.66824941  0.16076032  0.87151664  1
  Ba  Ba13  1  0.49927257  0.01176347  0.62177947  1
  Ba  Ba14  1  0.16321756  0.65711538  0.37506215  1
  Ba  Ba15  1  -0.00265161  0.82684780  0.37469435  1
  Ba  Ba16  1  0.16869445  0.98938183  0.37378623  1
  Ba  Ba17  1  0.66927983  0.51293029  0.12768663  1
  Ba  Ba18  1  0.82920295  0.00696769  0.62279406  1
  Ba  Ba19  1  0.16961046  0.32757894  0.87447542  1
  Ba  Ba20  1  -0.00153132  0.49068534  0.87596737  1
  Ba  Ba21  1  0.33368989  0.50725022  0.12840920  1
  Ba  Ba22  1  0.16849150  0.32472473  0.37334067  1
  Ba  Ba23  1  0.66650763  0.15708861  0.37348256  1
  Ba  Ba24  1  0.50353719  0.98871860  0.37690857  1
  Ba  Ba25  1  0.66963164  0.17151112  0.62297021  1
  Ba  Ba26  1  0.16643216  0.65625291  0.87848439  1
  Ba  Ba27  1  0.16484375  0.00902953  0.12498829  1
  Ba  Ba28  1  0.33523227  0.50657491  0.62503957  1
  Ba  Ba29  1  0.82963085  0.33861220  0.62456885  1
  Ba  Ba30  1  0.50019141  0.65794753  0.37910714  1
  Ba  Ba31  1  0.67014578  0.50709567  0.62450725  1
  Ba  Ba32  1  0.83424365  0.98554519  0.37603419  1
  Ba  Ba33  1  0.32980547  0.49174278  0.87915834  1
  Ba  Ba34  1  0.83171215  0.99415910  0.87148585  1
  Ba  Ba35  1  0.83543795  0.32613593  0.87351853  1
  La  La36  1  0.82434317  0.68112778  0.62261509  1
  La  La37  1  1.00228320  0.50899657  0.62488811  1
  La  La38  1  0.50576393  0.32395183  0.37460519  1
  La  La39  1  1.00661592  0.18431068  0.12341588  1
  La  La40  1  0.49954409  0.66951009  0.61925540  1
  La  La41  1  -0.01054435  0.14839109  0.37699054  1
  La  La42  1  0.16621647  0.67879512  0.12558056  1
  La  La43  1  0.16671272  0.34994070  0.62374380  1
  La  La44  1  0.50815613  0.32610182  0.87497153  1
  La  La45  1  0.33629394  0.84265317  0.62309746  1
  La  La46  1  0.49898597  0.67115117  0.12804978  1
  La  La47  1  0.82798612  0.35066718  0.12325794  1
  La  La48  1  0.16606240  0.68054373  0.62575968  1
  La  La49  1  0.16703130  0.35086737  0.12181427  1
  La  La50  1  -0.00677442  0.15537962  0.87613585  1
  La  La51  1  0.33105620  0.15456648  0.87649685  1
  La  La52  1  0.33501389  0.84658027  0.12377289  1
  La  La53  1  0.66937002  0.84603726  0.13010772  1
  La  La54  1  0.33330331  0.15501400  0.37418855  1
  La  La55  1  0.66981844  0.18412150  0.12504860  1
  La  La56  1  0.50451468  0.65073077  0.87476365  1
  La  La57  1  0.33579535  0.18423027  0.12935817  1
  La  La58  1  0.83709385  0.65405664  0.37573074  1
  La  La59  1  0.66000495  0.81867921  0.37794287  1
  La  La60  1  0.84166932  0.65086513  0.87602609  1
  La  La61  1  0.17376294  0.98718258  0.87514808  1
  La  La62  1  -0.00722601  0.48801093  0.37591372  1
  La  La63  1  0.82860985  0.68300234  0.12578718  1
  La  La64  1  1.00719631  0.51464897  0.12537773  1
  La  La65  1  1.00106406  0.84642267  0.12575021  1
  La  La66  1  0.34187949  0.18589019  0.62039967  1
  La  La67  1  0.16204076  0.01407509  0.61903692  1
  La  La68  1  0.50903283  0.98334634  0.87410024  1
  La  La69  1  0.99996220  0.85294397  0.61894689  1
  La  La70  1  0.49428862  0.01782974  0.12800253  1
  La  La71  1  0.66254833  0.82463084  0.87162598  1
  In  In72  1  -0.00353128  0.66933516  0.74591866  1
  In  In73  1  0.50091795  0.83195601  0.24674585  1
  In  In74  1  0.83501847  0.50011918  0.74641433  1
  In  In75  1  0.16282699  0.83379404  0.74711477  1
  In  In76  1  0.49688169  0.16762348  0.74852041  1
  In  In77  1  0.00346582  0.33125572  0.50131809  1
  In  In78  1  0.16571914  0.83169280  0.00006001  1
  In  In79  1  0.83550251  0.16623483  0.74851627  1
  In  In80  1  0.00009480  -0.00072951  0.25022864  1
  In  In81  1  0.66600152  0.33438544  0.74891356  1
  In  In82  1  0.49861228  0.82874827  0.74796769  1
  In  In83  1  0.33522000  0.33436289  0.75351139  1
  In  In84  1  0.66373722  -0.00018255  0.00392990  1
  In  In85  1  0.50159011  0.50024061  0.00176769  1
  In  In86  1  0.16635435  0.50203247  0.75050041  1
  In  In87  1  0.16805908  0.16869725  0.75204370  1
  In  In88  1  0.33399803  0.00042345  0.24918409  1
  In  In89  1  0.83180071  0.83338153  0.75220036  1
  In  In90  1  0.16622787  0.50227927  0.25331745  1
  In  In91  1  -0.00222051  0.66957820  0.24898442  1
  In  In92  1  0.66899392  0.66907803  -0.00105413  1
  In  In93  1  0.49891130  0.83040157  0.50030435  1
  In  In94  1  0.33548549  0.66871668  0.00214060  1
  In  In95  1  0.33303845  0.66572845  0.75025562  1
  In  In96  1  0.33181842  0.00119484  0.50128582  1
  In  In97  1  0.16755716  0.16929524  -0.00099761  1
  In  In98  1  0.66919207  0.33571656  0.25091433  1
  In  In99  1  0.16651931  0.16974625  0.24990873  1
  In  In100  1  0.00071710  0.33465693  0.24894023  1
  In  In101  1  0.33265098  0.00198015  0.74919260  1
  In  In102  1  -0.00268477  0.66779636  0.50163081  1
  In  In103  1  0.83585755  0.16573746  0.24675426  1
  In  In104  1  0.49815370  0.16629414  -0.00038549  1
  In  In105  1  0.00138484  0.00064752  -0.00178107  1
  In  In106  1  0.49986803  0.50145962  0.25397154  1
  In  In107  1  0.83448188  0.16698638  0.00196426  1
  Ir  Ir108  1  0.66875358  0.00050030  0.49568573  1
  Ir  Ir109  1  0.67006990  0.66795030  0.25206515  1
  Ir  Ir110  1  0.00283644  0.00011222  0.50286228  1
  Ir  Ir111  1  0.32627698  0.66387220  0.49955546  1
  Ir  Ir112  1  0.82946992  0.83032837  0.00512658  1
  Ir  Ir113  1  0.82978038  0.83132406  0.49652317  1
  Ir  Ir114  1  0.49878168  0.50005068  0.50315798  1
  Ir  Ir115  1  0.50172141  0.16601347  0.24861228  1
  Ir  Ir116  1  0.32961839  0.66889581  0.25029004  1
  Ir  Ir117  1  0.66738006  0.66792892  0.74926554  1
  Ir  Ir118  1  0.16445916  0.49917599  0.00399282  1
  Ir  Ir119  1  -0.00606271  0.66525064  0.00515141  1
  Ir  Ir120  1  0.83371133  0.16403641  0.49744610  1
  Ir  Ir121  1  0.16904926  0.82978019  0.24975702  1
  Ir  Ir122  1  0.66614854  0.33185175  0.49726965  1
  Ir  Ir123  1  0.00350950  0.33507705  0.74997207  1
  Ir  Ir124  1  0.49920372  0.17079497  0.49566920  1
  Ir  Ir125  1  0.16545503  0.50121755  0.50177864  1
  Ir  Ir126  1  0.50216064  0.83281492  0.00143561  1
  Ir  Ir127  1  0.67022530  0.66434326  0.50100073  1
  Ir  Ir128  1  0.66912834  0.33478361  0.00193833  1
  Ir  Ir129  1  0.16922522  0.16798758  0.49908571  1
  Ir  Ir130  1  0.50250636  0.50537824  0.74917241  1
  Ir  Ir131  1  0.16773912  0.83077553  0.49941941  1
  Ir  Ir132  1  0.33648228  0.33054716  0.25167025  1
  Ir  Ir133  1  0.83573974  0.50331537  0.25049645  1
  Ir  Ir134  1  0.00575638  0.00085005  0.74416607  1
  Ir  Ir135  1  0.66260948  -0.00246546  0.24943790  1
  Ir  Ir136  1  0.83391283  0.49937732  0.49535155  1
  Ir  Ir137  1  0.83829019  0.50099242  0.00649188  1
  Ir  Ir138  1  0.33889739  -0.00012675  0.00060995  1
  Ir  Ir139  1  0.33239099  0.33166786  0.49418659  1
  Ir  Ir140  1  0.82684427  0.83035205  0.25017231  1
  Ir  Ir141  1  0.33547689  0.33232509  0.00316982  1
  Ir  Ir142  1  0.66513851  -0.00305907  0.75007362  1
  Ir  Ir143  1  -0.00118677  0.33623925  0.00068131  1
  O  O144  1  0.30357224  0.32252458  0.12699026  1
  O  O145  1  0.30163274  0.32240393  0.61378332  1
  O  O146  1  0.30337678  0.66610241  0.13193050  1
  O  O147  1  0.30025313  0.66048598  0.61705570  1
  O  O148  1  0.31381728  0.98740280  0.11915589  1
  O  O149  1  0.29625155  0.98835558  0.62343125  1
  O  O150  1  0.65186834  0.33255995  0.12120395  1
  O  O151  1  0.65120994  0.33467421  0.61670876  1
  O  O152  1  0.63906673  0.66782027  0.13173797  1
  O  O153  1  0.63679214  0.66187100  0.62549732  1
  O  O154  1  0.62981191  0.98344197  0.13148554  1
  O  O155  1  0.64736157  1.00285959  0.62161176  1
  O  O156  1  0.96638762  0.32605335  0.11895493  1
  O  O157  1  0.98204193  0.33531714  0.62982742  1
  O  O158  1  0.96254582  0.65538719  0.12412281  1
  O  O159  1  0.95807057  0.65005829  0.62054642  1
  O  O160  1  0.98378890  0.98074997  0.12555039  1
  O  O161  1  0.97786033  0.99369792  0.62375811  1
  O  O162  1  0.20297293  0.16634087  0.12232231  1
  O  O163  1  0.20338035  0.15767778  0.61966063  1
  O  O164  1  0.18238433  0.49208396  0.12329072  1
  O  O165  1  0.18624956  0.48980760  0.61887467  1
  O  O166  1  0.19642310  0.82454992  0.13000213  1
  O  O167  1  0.19863691  0.82606360  0.61683972  1
  O  O168  1  0.53287929  0.15653727  0.12793203  1
  O  O169  1  0.51941825  0.16886590  0.61482634  1
  O  O170  1  0.51849745  0.50852202  0.12879592  1
  O  O171  1  0.52066944  0.50780611  0.62521009  1
  O  O172  1  0.53435461  0.81468335  0.12008451  1
  O  O173  1  0.52201570  0.80797513  0.62311264  1
  O  O174  1  0.87300218  0.16346693  0.12313938  1
  O  O175  1  0.84990798  0.16383336  0.61777728  1
  O  O176  1  0.86790984  0.49145348  0.12954060  1
  O  O177  1  0.86349669  0.49685515  0.61447647  1
  O  O178  1  0.86241535  0.82086741  0.12754949  1
  O  O179  1  0.86050915  0.82244076  0.61870798  1
  O  O180  1  0.13016680  0.17235754  0.38154867  1
  O  O181  1  0.12810211  0.17298461  0.87653298  1
  O  O182  1  0.13279504  0.50230455  0.38139753  1
  O  O183  1  0.14911437  0.49822635  0.88290308  1
  O  O184  1  0.14516303  0.82949453  0.37423619  1
  O  O185  1  0.14381154  0.84278506  0.87440961  1
  O  O186  1  0.47026153  0.17825467  0.37126742  1
  O  O187  1  0.46700002  0.18380828  0.87707977  1
  O  O188  1  0.48309422  0.50064089  0.38345004  1
  O  O189  1  0.48169013  0.51231688  0.87009751  1
  O  O190  1  0.48398080  0.82899233  0.37380704  1
  O  O191  1  0.47951100  0.84666883  0.88157580  1
  O  O192  1  0.81793231  0.16659362  0.37832672  1
  O  O193  1  0.82052009  0.16831160  0.87572140  1
  O  O194  1  0.80931830  0.51547939  0.37200153  1
  O  O195  1  0.81850842  0.51124334  0.88540247  1
  O  O196  1  0.79519371  0.83153103  0.37264103  1
  O  O197  1  0.79914543  0.83529658  0.88438963  1
  O  O198  1  0.02018401  0.00475061  0.38125903  1
  O  O199  1  0.03583080  0.00663362  0.86479006  1
  O  O200  1  0.02072645  0.35233358  0.37664551  1
  O  O201  1  0.02359753  0.33868976  0.87645956  1
  O  O202  1  0.01209490  0.66862239  0.37562418  1
  O  O203  1  0.01537329  0.67002056  0.88431449  1
  O  O204  1  0.35470217  0.01187028  0.37574078  1
  O  O205  1  0.37413627  0.01212851  0.88302502  1
  O  O206  1  0.36785673  0.33250804  0.37223473  1
  O  O207  1  0.36888149  0.33668923  0.88399083  1
  O  O208  1  0.35077357  0.66741874  0.37435433  1
  O  O209  1  0.36807924  0.67154597  0.87658131  1
  O  O210  1  0.68760476  0.00326375  0.37170911  1
  O  O211  1  0.67871647  -0.00858600  0.87147768  1
  O  O212  1  0.68515455  0.32984576  0.37840201  1
  O  O213  1  0.68231540  0.33239713  0.88359476  1
  O  O214  1  0.70205179  0.67596256  0.37600817  1
  O  O215  1  0.70254737  0.67853010  0.86937991  1
  O  O216  1  0.06862379  0.10215938  0.02605836  1
  O  O217  1  0.07861480  0.09215512  0.52460295  1
  O  O218  1  0.06623352  0.43078978  0.02910925  1
  O  O219  1  0.07262503  0.43440275  0.52519527  1
  O  O220  1  0.06409072  0.75460080  0.03333595  1
  O  O221  1  0.07354570  0.76452768  0.52773230  1
  O  O222  1  0.39922806  0.09483006  0.03114562  1
  O  O223  1  0.40463376  0.10456222  0.51642074  1
  O  O224  1  0.40420129  0.42239437  0.01943886  1
  O  O225  1  0.40479927  0.42613117  0.51791394  1
  O  O226  1  0.40934226  0.76977528  0.03039551  1
  O  O227  1  0.39658515  0.75260635  0.52395269  1
  O  O228  1  0.72972913  0.09957296  0.02624747  1
  O  O229  1  0.74068247  0.09286831  0.51330475  1
  O  O230  1  0.74640852  0.42616551  0.02615197  1
  O  O231  1  0.74307383  0.42446293  0.51527470  1
  O  O232  1  0.73805425  0.76359365  0.03242811  1
  O  O233  1  0.74137845  0.75670666  0.52204186  1
  O  O234  1  0.09325110  0.27271557  0.02762438  1
  O  O235  1  0.10603027  0.26194075  0.52572260  1
  O  O236  1  0.09237375  0.59598946  0.03058012  1
  O  O237  1  0.09565420  0.59130025  0.52920949  1
  O  O238  1  0.09085894  0.92215781  0.01717223  1
  O  O239  1  0.09713246  0.92650563  0.52660609  1
  O  O240  1  0.41998538  0.25938588  0.02886114  1
  O  O241  1  0.42543925  0.26225135  0.51540906  1
  O  O242  1  0.43505202  0.60372558  0.02234895  1
  O  O243  1  0.42736437  0.59829660  0.52188235  1
  O  O244  1  0.43582748  0.93013575  0.02911235  1
  O  O245  1  0.41837905  0.91791619  0.52602566  1
  O  O246  1  0.76170331  0.26633409  0.02816531  1
  O  O247  1  0.75969650  0.25709634  0.51607073  1
  O  O248  1  0.77217966  0.59721516  0.02418969  1
  O  O249  1  0.76813601  0.59682698  0.51959717  1
  O  O250  1  0.75651877  0.91842827  0.02789557  1
  O  O251  1  0.75960766  0.92682310  0.51401756  1
  O  O252  1  0.24517017  0.07975386  0.27078079  1
  O  O253  1  0.23952973  0.07356167  0.78996941  1
  O  O254  1  0.24302968  0.40033644  0.25864240  1
  O  O255  1  0.23646880  0.40129031  0.75160225  1
  O  O256  1  0.23251250  0.73371084  0.26181086  1
  O  O257  1  0.23059931  0.73429072  0.75505594  1
  O  O258  1  0.56423163  0.06495854  0.26114482  1
  O  O259  1  0.56992685  0.06569057  0.77188050  1
  O  O260  1  0.57056335  0.40294323  0.27329249  1
  O  O261  1  0.56679943  0.41083499  0.77240102  1
  O  O262  1  0.58140846  0.73772267  0.27094446  1
  O  O263  1  0.57659384  0.73620876  0.78260026  1
  O  O264  1  0.90692204  0.07174369  0.27265000  1
  O  O265  1  0.92254743  0.07713084  0.76817651  1
  O  O266  1  0.90354966  0.41323414  0.26926285  1
  O  O267  1  0.91330000  0.40311018  0.76401494  1
  O  O268  1  0.89015970  0.73391329  0.26769119  1
  O  O269  1  0.89559860  0.73483789  0.77428713  1
  O  O270  1  0.27359091  0.23636771  0.27202573  1
  O  O271  1  0.26906608  0.23180075  0.77700158  1
  O  O272  1  0.26177707  0.57707897  0.26770333  1
  O  O273  1  0.26177603  0.57179451  0.76693606  1
  O  O274  1  0.26144219  0.89861349  0.26045355  1
  O  O275  1  0.25128872  0.91433930  0.77431070  1
  O  O276  1  0.59121098  0.23710068  0.26025189  1
  O  O277  1  0.58205634  0.24998220  0.77417067  1
  O  O278  1  0.60001546  0.58015007  0.26955131  1
  O  O279  1  0.59572447  0.57831466  0.77264185  1
  O  O280  1  0.60484331  0.89818868  0.27089604  1
  O  O281  1  0.59504413  0.90513783  0.77055545  1
  O  O282  1  0.93835707  0.23353537  0.27432057  1
  O  O283  1  0.94066424  0.23955485  0.77126714  1
  O  O284  1  0.92805668  0.56812092  0.27303078  1
  O  O285  1  0.92322526  0.57545557  0.77100354  1
  O  O286  1  0.92071983  0.89643128  0.26040565  1
  O  O287  1  0.93151676  0.91107151  0.75948476  1
  O  O288  1  0.26585199  0.23351055  0.47090973  1
  O  O289  1  0.27078387  0.23869584  0.97755206  1
  O  O290  1  0.25640866  0.57107069  0.48052073  1
  O  O291  1  0.25448334  0.57046351  0.99074419  1
  O  O292  1  0.25434870  0.90181954  0.48137480  1
  O  O293  1  0.26767221  0.91094320  0.98248706  1
  O  O294  1  0.58720651  0.24756093  0.46963167  1
  O  O295  1  0.59687059  0.24387399  0.98931289  1
  O  O296  1  0.59401756  0.57492913  0.48538833  1
  O  O297  1  0.59309048  0.58042037  0.97861861  1
  O  O298  1  0.60010977  0.90685003  0.47834935  1
  O  O299  1  0.59638845  0.89554037  0.97779623  1
  O  O300  1  0.92934522  0.23245578  0.47973815  1
  O  O301  1  0.94104296  0.23937254  0.97975462  1
  O  O302  1  0.92402375  0.56721266  0.47124616  1
  O  O303  1  0.92768062  0.57211924  0.98359994  1
  O  O304  1  0.93014430  0.90246414  0.48887980  1
  O  O305  1  0.92002246  0.89873315  0.98980937  1
  O  O306  1  0.23787926  0.08047879  0.47675346  1
  O  O307  1  0.24604856  0.06742822  0.97132101  1
  O  O308  1  0.23612558  0.40424846  0.48246723  1
  O  O309  1  0.23426245  0.40144422  0.99252419  1
  O  O310  1  0.22959408  0.73119202  0.48654668  1
  O  O311  1  0.23728760  0.73703663  0.99168648  1
  O  O312  1  0.57183187  0.07765278  0.47843560  1
  O  O313  1  0.55849612  0.06043878  0.98244521  1
  O  O314  1  0.56955669  0.40151168  0.47706189  1
  O  O315  1  0.57342976  0.40113783  0.97853396  1
  O  O316  1  0.58424165  0.73868907  0.48005314  1
  O  O317  1  0.56772297  0.74169114  0.97010417  1
  O  O318  1  0.91080995  0.07577542  0.47633768  1
  O  O319  1  0.91136827  0.07441098  0.97409380  1
  O  O320  1  0.90823635  0.41411558  0.47725828  1
  O  O321  1  0.90205983  0.40253083  0.98920473  1
  O  O322  1  0.89385122  0.73724717  0.47704361  1
  O  O323  1  0.89424489  0.72948104  0.98384949  1
  O  O324  1  0.10084050  0.26874310  0.21698857  1
  O  O325  1  0.09901534  0.27114243  0.72477750  1
  O  O326  1  0.09334507  0.59794782  0.21916239  1
  O  O327  1  0.09182608  0.59554284  0.71815249  1
  O  O328  1  0.09580686  0.91695965  0.23409369  1
  O  O329  1  0.09130589  0.92993447  0.71299665  1
  O  O330  1  0.43089908  0.25912658  0.23111147  1
  O  O331  1  0.42095596  0.25999423  0.71854737  1
  O  O332  1  0.42592503  0.60476374  0.23231453  1
  O  O333  1  0.44189831  0.60302066  0.73067800  1
  O  O334  1  0.43070996  0.92813185  0.21999186  1
  O  O335  1  0.42376519  0.92316672  0.73056015  1
  O  O336  1  0.76207629  0.26032339  0.22046694  1
  O  O337  1  0.75562330  0.25448205  0.73690091  1
  O  O338  1  0.76962036  0.60284857  0.22979977  1
  O  O339  1  0.76140535  0.60294770  0.72578069  1
  O  O340  1  0.75516950  0.92517231  0.22574375  1
  O  O341  1  0.75397976  0.92453153  0.73397477  1
  O  O342  1  0.06758629  0.10068520  0.22764151  1
  O  O343  1  0.08213769  0.08477823  0.72083245  1
  O  O344  1  0.06716389  0.43472614  0.22504103  1
  O  O345  1  0.06724449  0.43023547  0.72544199  1
  O  O346  1  0.07400658  0.76382864  0.22193671  1
  O  O347  1  0.06352419  0.76588167  0.71374652  1
  O  O348  1  0.40871124  0.09982998  0.22365172  1
  O  O349  1  0.39716152  0.10153472  0.72315323  1
  O  O350  1  0.40486568  0.42080550  0.23647444  1
  O  O351  1  0.41358178  0.43413652  0.73780248  1
  O  O352  1  0.39975115  0.75992204  0.22167548  1
  O  O353  1  0.39951329  0.76201322  0.71983230  1
  O  O354  1  0.72611917  0.09422649  0.22260933  1
  O  O355  1  0.73983929  0.08260108  0.74039793  1
  O  O356  1  0.74899608  0.42979834  0.23100599  1
  O  O357  1  0.74190498  0.42785045  0.74132570  1
  O  O358  1  0.73342868  0.76347394  0.22620304  1
  O  O359  1  0.73473233  0.75679726  0.72723013  1
