# generated using pymatgen
data_BaLaInIrO6
_symmetry_space_group_name_H-M   'P 1'
_cell_length_a   17.50887895
_cell_length_b   17.53952204
_cell_length_c   16.49139361
_cell_angle_alpha   90.05968247
_cell_angle_beta   90.02081576
_cell_angle_gamma   89.94780013
_symmetry_Int_Tables_number   1
_chemical_formula_structural   BaLaInIrO6
_chemical_formula_sum   'Ba36 La36 In36 Ir36 O216'
_cell_volume   5064.45839497
_cell_formula_units_Z   36
loop_
 _symmetry_equiv_pos_site_id
 _symmetry_equiv_pos_as_xyz
  1  'x, y, z'
loop_
 _atom_site_type_symbol
 _atom_site_label
 _atom_site_symmetry_multiplicity
 _atom_site_fract_x
 _atom_site_fract_y
 _atom_site_fract_z
 _atom_site_occupancy
  Ba  Ba0  1  0.67147654  0.82715046  0.37590306  1
  Ba  Ba1  1  0.16389968  0.66058303  0.37292408  1
  Ba  Ba2  1  0.66583844  0.15761500  0.87524163  1
  Ba  Ba3  1  0.83469895  0.99484753  0.87338829  1
  Ba  Ba4  1  0.49979245  0.99299682  0.87454398  1
  Ba  Ba5  1  0.67169165  0.17370782  0.62805972  1
  Ba  Ba6  1  0.16390921  0.34114131  0.62353865  1
  Ba  Ba7  1  0.50211858  0.33947444  0.62507715  1
  Ba  Ba8  1  1.00368772  0.17147630  0.62552495  1
  Ba  Ba9  1  0.33335474  0.48482088  0.37169738  1
  Ba  Ba10  1  1.00153785  0.51430834  0.12232836  1
  Ba  Ba11  1  0.33236991  0.48569451  0.87475500  1
  Ba  Ba12  1  -0.00318480  0.82675416  0.37769787  1
  Ba  Ba13  1  0.16929297  0.32254611  0.87157808  1
  Ba  Ba14  1  0.33145239  0.17658674  0.12255091  1
  Ba  Ba15  1  0.83197758  0.67309470  0.62384026  1
  Ba  Ba16  1  0.83163841  0.68177208  0.12434678  1
  Ba  Ba17  1  0.16257778  0.67261254  0.62383043  1
  Ba  Ba18  1  0.33819006  0.84465712  0.13031383  1
  Ba  Ba19  1  0.00296602  0.83152362  0.87217509  1
  Ba  Ba20  1  0.16822235  0.32650018  0.37191715  1
  Ba  Ba21  1  0.17189007  0.99388319  0.87365344  1
  Ba  Ba22  1  0.50038896  0.32268165  0.87494208  1
  Ba  Ba23  1  0.33037535  0.50439622  0.62124181  1
  Ba  Ba24  1  0.66169556  0.49378506  0.87841320  1
  Ba  Ba25  1  1.00539667  0.50640756  0.62313708  1
  Ba  Ba26  1  0.66577344  0.48935210  0.37359137  1
  Ba  Ba27  1  0.82926676  0.34371711  0.62611006  1
  Ba  Ba28  1  0.16786835  0.00670331  0.62321440  1
  Ba  Ba29  1  0.50221511  0.31963944  0.37778706  1
  Ba  Ba30  1  0.00118508  0.15535442  0.87558566  1
  Ba  Ba31  1  0.83581539  0.32162401  0.37214941  1
  Ba  Ba32  1  0.66636989  0.15819876  0.37847407  1
  Ba  Ba33  1  0.66555613  0.84628481  0.12590918  1
  Ba  Ba34  1  0.16749953  0.98961321  0.37656639  1
  Ba  Ba35  1  0.49740649  0.65910849  0.88036650  1
  La  La36  1  0.83337174  0.65606241  0.87810674  1
  La  La37  1  1.00484314  0.85156772  0.12663880  1
  La  La38  1  0.84133675  0.65063586  0.37139545  1
  La  La39  1  1.00190348  0.84421070  0.62338910  1
  La  La40  1  0.32540391  0.81846961  0.37513320  1
  La  La41  1  0.50376136  0.65170530  0.37533654  1
  La  La42  1  0.33318189  0.50848474  0.12758551  1
  La  La43  1  0.83388349  0.00830672  0.62574963  1
  La  La44  1  0.15984023  0.68844884  0.12457765  1
  La  La45  1  0.33740345  0.17885404  0.62389230  1
  La  La46  1  1.00800377  0.18463479  0.12647638  1
  La  La47  1  0.50352384  0.99257274  0.36978484  1
  La  La48  1  0.33280377  0.16023745  0.86880030  1
  La  La49  1  0.66852954  0.51785905  0.12574624  1
  La  La50  1  0.49543913  0.02164205  0.12561125  1
  La  La51  1  -0.00576058  0.48408388  0.37857781  1
  La  La52  1  0.83203458  0.99785613  0.37886729  1
  La  La53  1  0.17238920  0.64796266  0.87710019  1
  La  La54  1  0.49731490  0.34509940  0.12394673  1
  La  La55  1  -0.00050739  0.15064061  0.37136746  1
  La  La56  1  0.66384546  0.18084697  0.12714597  1
  La  La57  1  0.83207862  0.00946687  0.12551644  1
  La  La58  1  0.49651961  0.67739223  0.12731799  1
  La  La59  1  0.16488985  0.34898683  0.12126914  1
  La  La60  1  0.32310555  0.81347582  0.87577968  1
  La  La61  1  0.66845292  0.84647172  0.62181651  1
  La  La62  1  -0.00547066  0.48687156  0.87666830  1
  La  La63  1  0.16436308  0.02005806  0.12771139  1
  La  La64  1  0.82752965  0.35141362  0.12689684  1
  La  La65  1  0.33917143  0.84798807  0.62822654  1
  La  La66  1  0.49467822  0.67712389  0.62570018  1
  La  La67  1  0.66242850  0.82386411  0.87752563  1
  La  La68  1  0.49618218  0.01577915  0.62384359  1
  La  La69  1  0.67153263  0.51334209  0.62576754  1
  La  La70  1  0.84035984  0.31629496  0.87208133  1
  La  La71  1  0.32925062  0.15869824  0.37162919  1
  In  In72  1  0.83580886  0.16438871  0.49832870  1
  In  In73  1  -0.00052806  0.66897365  0.75408138  1
  In  In74  1  0.16499137  0.50246378  0.49554149  1
  In  In75  1  0.00303281  -0.00368658  0.49966273  1
  In  In76  1  0.49716359  0.83676883  -0.00070276  1
  In  In77  1  0.49723756  0.49892861  0.00062565  1
  In  In78  1  0.66788812  0.33490728  0.00182923  1
  In  In79  1  0.83287425  0.50192948  0.75364052  1
  In  In80  1  0.49862221  0.83440803  0.25312072  1
  In  In81  1  0.82987483  0.83121405  0.75022696  1
  In  In82  1  0.83448837  0.16745495  0.00735373  1
  In  In83  1  0.66794955  0.33639500  0.75242696  1
  In  In84  1  0.33571919  -0.00176196  0.49757354  1
  In  In85  1  0.66669398  0.33343868  0.50064190  1
  In  In86  1  0.83308785  0.50113304  0.50160749  1
  In  In87  1  0.66454522  -0.00401234  0.75058854  1
  In  In88  1  0.50085372  0.50071069  0.50134164  1
  In  In89  1  0.00059544  0.32883881  0.49770615  1
  In  In90  1  0.49940656  0.83385288  0.49918859  1
  In  In91  1  0.33301642  0.33118468  0.49706951  1
  In  In92  1  0.33317043  0.66333113  0.74882750  1
  In  In93  1  0.16573854  0.16817143  -0.00150180  1
  In  In94  1  0.66588291  0.67048975  -0.00090773  1
  In  In95  1  0.16811284  0.83962988  0.00174972  1
  In  In96  1  0.66695791  0.66948085  0.25413685  1
  In  In97  1  0.16737972  0.83097031  0.74760187  1
  In  In98  1  -0.00047007  0.66967758  0.24855489  1
  In  In99  1  0.83416041  0.16666800  0.24654382  1
  In  In100  1  0.83406152  0.83698774  0.25046603  1
  In  In101  1  0.33452389  0.33451909  0.74942011  1
  In  In102  1  0.83504995  0.16444359  0.75129715  1
  In  In103  1  0.16502265  0.50238675  0.24610088  1
  In  In104  1  0.00039864  0.67319987  -0.00186247  1
  In  In105  1  0.33376028  -0.00033142  0.00100907  1
  In  In106  1  0.33260349  0.66401907  0.25067563  1
  In  In107  1  0.00182635  0.33143946  0.75170367  1
  Ir  Ir108  1  0.66460054  0.00471887  0.24832667  1
  Ir  Ir109  1  0.83246083  0.83982012  -0.00115385  1
  Ir  Ir110  1  0.17195229  0.15929368  0.74568151  1
  Ir  Ir111  1  0.49767043  0.16309723  0.74901802  1
  Ir  Ir112  1  0.16939588  0.16382620  0.49613028  1
  Ir  Ir113  1  0.17080569  0.82944987  0.49828190  1
  Ir  Ir114  1  0.83258893  0.83321464  0.50227186  1
  Ir  Ir115  1  0.16995040  0.84058448  0.25231828  1
  Ir  Ir116  1  0.49899238  0.83238938  0.74965229  1
  Ir  Ir117  1  0.66234396  0.33242137  0.24604210  1
  Ir  Ir118  1  0.66499818  0.00176480  0.00569605  1
  Ir  Ir119  1  0.16960883  0.49859026  0.00048444  1
  Ir  Ir120  1  0.00229526  -0.00224898  0.75179643  1
  Ir  Ir121  1  -0.00250368  0.67058270  0.49799992  1
  Ir  Ir122  1  0.32744197  0.66171408  0.00401551  1
  Ir  Ir123  1  0.33468405  0.00548507  0.25207354  1
  Ir  Ir124  1  0.33245596  0.33012541  0.00226947  1
  Ir  Ir125  1  0.50342911  0.50431713  0.74876631  1
  Ir  Ir126  1  0.66474003  -0.00317510  0.49786845  1
  Ir  Ir127  1  0.66526803  0.67033952  0.49997199  1
  Ir  Ir128  1  0.50044253  0.16663153  0.00135568  1
  Ir  Ir129  1  0.49821802  0.16071293  0.49998525  1
  Ir  Ir130  1  0.65938220  0.67176723  0.74640571  1
  Ir  Ir131  1  0.33502843  0.67069066  0.50117117  1
  Ir  Ir132  1  0.16511719  0.16820285  0.25199416  1
  Ir  Ir133  1  -0.00244690  -0.00018917  0.00408425  1
  Ir  Ir134  1  0.50245985  0.49639144  0.24635076  1
  Ir  Ir135  1  0.33835692  -0.00100164  0.74826328  1
  Ir  Ir136  1  0.83330099  0.49709268  0.24598190  1
  Ir  Ir137  1  0.00079549  0.33275679  0.24273847  1
  Ir  Ir138  1  -0.00124874  0.33839290  0.00369023  1
  Ir  Ir139  1  0.49916039  0.16678803  0.25043912  1
  Ir  Ir140  1  0.16431729  0.50044162  0.75410974  1
  Ir  Ir141  1  0.33426603  0.32832129  0.24367946  1
  Ir  Ir142  1  0.00104332  0.00012365  0.24636775  1
  Ir  Ir143  1  0.83263604  0.50144056  0.00300149  1
  O  O144  1  0.30337378  0.32985966  0.12241542  1
  O  O145  1  0.31549095  0.31668140  0.62499176  1
  O  O146  1  0.29599686  0.65445822  0.12156664  1
  O  O147  1  0.31406762  0.66591792  0.61956658  1
  O  O148  1  0.30138113  1.00068434  0.13500132  1
  O  O149  1  0.31712920  0.98775547  0.62902310  1
  O  O150  1  0.63339531  0.32350582  0.12905169  1
  O  O151  1  0.65015054  0.32705246  0.62742058  1
  O  O152  1  0.63630207  0.66293064  0.12725411  1
  O  O153  1  0.63025259  0.66132769  0.62294996  1
  O  O154  1  0.63128043  1.00044230  0.12807676  1
  O  O155  1  0.63161134  0.98620723  0.61742613  1
  O  O156  1  0.96742528  0.32320362  0.12344684  1
  O  O157  1  0.98419853  0.33205963  0.62570386  1
  O  O158  1  0.98022565  0.67118547  0.12254343  1
  O  O159  1  0.98194908  0.66607575  0.61709332  1
  O  O160  1  0.96996840  0.99130266  0.12490492  1
  O  O161  1  0.97689358  0.99291668  0.63055015  1
  O  O162  1  0.18000802  0.16086465  0.13147904  1
  O  O163  1  0.20125785  0.16121123  0.61923515  1
  O  O164  1  0.19853755  0.48705111  0.11909841  1
  O  O165  1  0.17721786  0.50139753  0.63219691  1
  O  O166  1  0.18992186  0.83394529  0.13303206  1
  O  O167  1  0.20179692  0.83028539  0.61813178  1
  O  O168  1  0.52856709  0.16059420  0.12636982  1
  O  O169  1  0.52299175  0.15347664  0.62386474  1
  O  O170  1  0.53121518  0.48559407  0.12964125  1
  O  O171  1  0.53294209  0.50827775  0.62966146  1
  O  O172  1  0.51726926  0.81413930  0.12631222  1
  O  O173  1  0.53156854  0.82042280  0.62950867  1
  O  O174  1  0.87319488  0.14952602  0.12773423  1
  O  O175  1  0.85317532  0.14729618  0.62396880  1
  O  O176  1  0.85654570  0.48776460  0.12394676  1
  O  O177  1  0.85600898  0.50799281  0.62767365  1
  O  O178  1  0.86349047  0.83876636  0.11874833  1
  O  O179  1  0.86253123  0.82436821  0.62085215  1
  O  O180  1  0.13609418  0.16833593  0.37429915  1
  O  O181  1  0.15508529  0.15964628  0.86818868  1
  O  O182  1  0.13182126  0.50388887  0.36788634  1
  O  O183  1  0.13696451  0.50793682  0.87953455  1
  O  O184  1  0.14785437  0.83316075  0.37413231  1
  O  O185  1  0.15504579  0.83940715  0.87497376  1
  O  O186  1  0.46802654  0.16090763  0.37585577  1
  O  O187  1  0.46875203  0.16626006  0.87418584  1
  O  O188  1  0.48107544  0.51378893  0.36580445  1
  O  O189  1  0.48061068  0.50471906  0.86993123  1
  O  O190  1  0.46068865  0.85356707  0.37578483  1
  O  O191  1  0.46063479  0.83736800  0.86911837  1
  O  O192  1  0.81803696  0.15252573  0.36972548  1
  O  O193  1  0.81723377  0.17259023  0.88285702  1
  O  O194  1  0.81577178  0.50883367  0.36665028  1
  O  O195  1  0.80881122  0.51513459  0.88551320  1
  O  O196  1  0.81915612  0.85691544  0.38176741  1
  O  O197  1  0.79847037  0.84432807  0.87925271  1
  O  O198  1  0.01859734  0.00749395  0.36751406  1
  O  O199  1  0.02352361  -0.00108013  0.87985293  1
  O  O200  1  0.01902094  0.34512701  0.36122241  1
  O  O201  1  0.02198044  0.34680291  0.88546288  1
  O  O202  1  0.01487573  0.67237879  0.37905305  1
  O  O203  1  0.04003138  0.67903428  0.87866330  1
  O  O204  1  0.36687734  0.01537688  0.37108430  1
  O  O205  1  0.34982609  0.01955086  0.86933584  1
  O  O206  1  0.35216298  0.32233401  0.36386496  1
  O  O207  1  0.34977560  0.32686911  0.88013352  1
  O  O208  1  0.36592049  0.67822560  0.38088013  1
  O  O209  1  0.34825011  0.67077016  0.88238584  1
  O  O210  1  0.69656946  0.00459516  0.37281650  1
  O  O211  1  0.68366491  0.00183416  0.88463890  1
  O  O212  1  0.68374571  0.33132065  0.36424475  1
  O  O213  1  0.70172576  0.33665752  0.87977274  1
  O  O214  1  0.70224702  0.67041893  0.38251704  1
  O  O215  1  0.69383983  0.68134838  0.86719602  1
  O  O216  1  0.06403066  0.09471829  0.02857161  1
  O  O217  1  0.07809271  0.09311411  0.50900023  1
  O  O218  1  0.07630574  0.42750798  0.02343742  1
  O  O219  1  0.06989469  0.42788421  0.50152633  1
  O  O220  1  0.07377234  0.76902021  0.03273737  1
  O  O221  1  0.06921930  0.76497175  0.52257496  1
  O  O222  1  0.40924846  0.09787745  0.01505505  1
  O  O223  1  0.40814972  0.09344544  0.52646213  1
  O  O224  1  0.39796396  0.42441664  0.02763622  1
  O  O225  1  0.40971917  0.42385720  0.51197704  1
  O  O226  1  0.40179115  0.74846516  0.01985443  1
  O  O227  1  0.40117595  0.76323436  0.52709280  1
  O  O228  1  0.73271157  0.09248775  0.03418701  1
  O  O229  1  0.73992963  0.07832861  0.51922678  1
  O  O230  1  0.74067197  0.43345009  0.03383630  1
  O  O231  1  0.73449864  0.43558324  0.52265040  1
  O  O232  1  0.74262771  0.77030298  0.01364934  1
  O  O233  1  0.73264417  0.76719791  0.52431157  1
  O  O234  1  0.09069138  0.26564159  0.02672932  1
  O  O235  1  0.10127658  0.25234268  0.51192071  1
  O  O236  1  0.10977956  0.59737881  0.01996355  1
  O  O237  1  0.08753561  0.60029693  0.51072868  1
  O  O238  1  0.09365341  0.93754831  0.03130941  1
  O  O239  1  0.09417133  0.91507243  0.51968357  1
  O  O240  1  0.43325137  0.26656160  0.02291223  1
  O  O241  1  0.42507079  0.24702595  0.51995064  1
  O  O242  1  0.41929676  0.59202660  0.03522848  1
  O  O243  1  0.43156224  0.60624577  0.51871607  1
  O  O244  1  0.43493279  0.93647355  0.02899570  1
  O  O245  1  0.43001529  0.92803335  0.53278177  1
  O  O246  1  0.76089708  0.26131814  0.03926327  1
  O  O247  1  0.76015324  0.25660469  0.50905350  1
  O  O248  1  0.76045973  0.59129046  0.02237182  1
  O  O249  1  0.75046124  0.59772402  0.51900798  1
  O  O250  1  0.76468944  0.93721766  0.02619664  1
  O  O251  1  0.76250859  0.92885245  0.52648576  1
  O  O252  1  0.23966812  0.07747434  0.27619224  1
  O  O253  1  0.24548235  0.07009950  0.76444240  1
  O  O254  1  0.24251040  0.39720259  0.25470749  1
  O  O255  1  0.23706529  0.41014033  0.76325470  1
  O  O256  1  0.24124921  0.74947024  0.26802169  1
  O  O257  1  0.23914080  0.73516538  0.77771043  1
  O  O258  1  0.56475743  0.06894547  0.26928508  1
  O  O259  1  0.56676329  0.07122587  0.75752106  1
  O  O260  1  0.56578008  0.39908023  0.26403010  1
  O  O261  1  0.56997899  0.41412779  0.76777454  1
  O  O262  1  0.56662489  0.73420802  0.28211602  1
  O  O263  1  0.56528050  0.73895095  0.77086294  1
  O  O264  1  0.90413585  0.05949322  0.26944958  1
  O  O265  1  0.91694893  0.07025224  0.76486917  1
  O  O266  1  0.90431784  0.40142285  0.26037224  1
  O  O267  1  0.90521341  0.40716440  0.78555990  1
  O  O268  1  0.89920292  0.73500340  0.27472222  1
  O  O269  1  0.89424084  0.73326323  0.77777184  1
  O  O270  1  0.26540096  0.23215315  0.26961563  1
  O  O271  1  0.26560636  0.22591497  0.76284360  1
  O  O272  1  0.26867465  0.56492280  0.25903258  1
  O  O273  1  0.25459207  0.57054727  0.76994895  1
  O  O274  1  0.26957195  0.90805699  0.27854094  1
  O  O275  1  0.27824864  0.89947205  0.76657839  1
  O  O276  1  0.59818595  0.23206481  0.26140077  1
  O  O277  1  0.58545160  0.23540565  0.76742617  1
  O  O278  1  0.59146220  0.56788901  0.26175462  1
  O  O279  1  0.59421810  0.57672395  0.76776185  1
  O  O280  1  0.59236443  0.91669966  0.27266318  1
  O  O281  1  0.59496459  0.89527514  0.77328104  1
  O  O282  1  0.94065764  0.23391041  0.26557082  1
  O  O283  1  0.92537661  0.24329322  0.77665671  1
  O  O284  1  0.92732440  0.56465183  0.27113445  1
  O  O285  1  0.92692207  0.57560855  0.78783285  1
  O  O286  1  0.93891575  0.90423569  0.25594768  1
  O  O287  1  0.92825040  0.90967256  0.76013718  1
  O  O288  1  0.26351392  0.22895495  0.47617053  1
  O  O289  1  0.26854164  0.23425635  0.97808307  1
  O  O290  1  0.26490491  0.58157318  0.47928079  1
  O  O291  1  0.26144377  0.56801227  0.97891382  1
  O  O292  1  0.26651705  0.89665950  0.47772664  1
  O  O293  1  0.27477036  0.89547960  0.97876775  1
  O  O294  1  0.58495361  0.23165983  0.48690755  1
  O  O295  1  0.59469138  0.23095444  0.99235862  1
  O  O296  1  0.59327876  0.58396119  0.47584299  1
  O  O297  1  0.59075364  0.57543115  0.99441774  1
  O  O298  1  0.59196679  0.91121735  0.47576094  1
  O  O299  1  0.60175797  0.90830479  0.98032770  1
  O  O300  1  0.93824688  0.22833478  0.46968451  1
  O  O301  1  0.92824176  0.25040743  0.98438778  1
  O  O302  1  0.92707475  0.58038184  0.47031146  1
  O  O303  1  0.92584942  0.57125864  0.97622130  1
  O  O304  1  0.92569706  0.89960247  0.49494998  1
  O  O305  1  0.93125044  0.90315956  0.98719884  1
  O  O306  1  0.24382077  0.07721835  0.47734997  1
  O  O307  1  0.23282775  0.06773961  1.00025770  1
  O  O308  1  0.24195702  0.40948725  0.48538560  1
  O  O309  1  0.23387268  0.39554191  0.98832528  1
  O  O310  1  0.24593571  0.74289401  0.47244807  1
  O  O311  1  0.23477368  0.72953809  0.98233003  1
  O  O312  1  0.56653696  0.06300858  0.47612360  1
  O  O313  1  0.56627649  0.06675331  0.99138020  1
  O  O314  1  0.57471243  0.40898732  0.48209397  1
  O  O315  1  0.56744266  0.40086650  0.99182035  1
  O  O316  1  0.57024245  0.73513198  0.47635785  1
  O  O317  1  0.57916534  0.75145733  0.97240365  1
  O  O318  1  0.90337610  0.06119267  0.48106967  1
  O  O319  1  0.90527069  0.06459306  0.99051242  1
  O  O320  1  0.90979667  0.41096195  0.47366859  1
  O  O321  1  0.90231442  0.40674776  0.97786572  1
  O  O322  1  0.89608363  0.73643450  0.47495040  1
  O  O323  1  0.89573004  0.74404494  0.97201917  1
  O  O324  1  0.09615027  0.26321841  0.21903520  1
  O  O325  1  0.10084530  0.24839104  0.73517482  1
  O  O326  1  0.10159780  0.60527634  0.22105195  1
  O  O327  1  0.09762073  0.59255273  0.74492854  1
  O  O328  1  0.09985983  0.93639679  0.22310429  1
  O  O329  1  0.08795665  0.92481079  0.72893022  1
  O  O330  1  0.43334319  0.26316014  0.22443777  1
  O  O331  1  0.42430721  0.24916807  0.73302690  1
  O  O332  1  0.43565941  0.58936076  0.22204379  1
  O  O333  1  0.43506889  0.59794225  0.72716362  1
  O  O334  1  0.42987702  0.94153273  0.22829483  1
  O  O335  1  0.43459324  0.93049623  0.72199672  1
  O  O336  1  0.75860272  0.26592759  0.22156184  1
  O  O337  1  0.76512662  0.26290668  0.74499213  1
  O  O338  1  0.75987732  0.58547306  0.22795617  1
  O  O339  1  0.74915985  0.60275440  0.73384931  1
  O  O340  1  0.76256502  0.94145647  0.23134154  1
  O  O341  1  0.75724643  0.92190662  0.71246066  1
  O  O342  1  0.06497946  0.10176748  0.22950393  1
  O  O343  1  0.07775400  0.08844913  0.73213604  1
  O  O344  1  0.07394994  0.41924178  0.21847785  1
  O  O345  1  0.07322832  0.43210402  0.74815625  1
  O  O346  1  0.07603637  0.77324459  0.22806761  1
  O  O347  1  0.06617232  0.76639180  0.72124970  1
  O  O348  1  0.40549774  0.09799925  0.22845437  1
  O  O349  1  0.40213780  0.09515412  0.72262547  1
  O  O350  1  0.40450275  0.42481379  0.21843300  1
  O  O351  1  0.41425065  0.43131574  0.73220263  1
  O  O352  1  0.40925130  0.75204328  0.23240951  1
  O  O353  1  0.40502549  0.76678848  0.72528692  1
  O  O354  1  0.73292111  0.09453821  0.21890545  1
  O  O355  1  0.74735312  0.08020907  0.73396791  1
  O  O356  1  0.73247444  0.42682558  0.21920678  1
  O  O357  1  0.73242399  0.43971275  0.72787501  1
  O  O358  1  0.73952946  0.76449568  0.23513979  1
  O  O359  1  0.72062152  0.76683659  0.72630619  1
