# generated using pymatgen
data_BaLaInIrO6
_symmetry_space_group_name_H-M   'P 1'
_cell_length_a   17.53859209
_cell_length_b   17.58012758
_cell_length_c   16.49961134
_cell_angle_alpha   89.96415208
_cell_angle_beta   90.01787586
_cell_angle_gamma   90.01668608
_symmetry_Int_Tables_number   1
_chemical_formula_structural   BaLaInIrO6
_chemical_formula_sum   'Ba36 La36 In36 Ir36 O216'
_cell_volume   5087.33503349
_cell_formula_units_Z   36
loop_
 _symmetry_equiv_pos_site_id
 _symmetry_equiv_pos_as_xyz
  1  'x, y, z'
loop_
 _atom_site_type_symbol
 _atom_site_label
 _atom_site_symmetry_multiplicity
 _atom_site_fract_x
 _atom_site_fract_y
 _atom_site_fract_z
 _atom_site_occupancy
  Ba  Ba0  1  0.16706040  0.34269980  0.62498093  1
  Ba  Ba1  1  0.66657679  0.82772144  0.87409125  1
  Ba  Ba2  1  0.49667784  0.67369139  0.12269282  1
  Ba  Ba3  1  1.00474909  0.84391933  0.12579727  1
  Ba  Ba4  1  0.99750643  0.50403493  0.12438959  1
  Ba  Ba5  1  0.66600184  0.84042447  0.12333249  1
  Ba  Ba6  1  0.49841790  0.65766946  0.87483772  1
  Ba  Ba7  1  0.33432979  0.17735136  0.11952649  1
  Ba  Ba8  1  -0.00260343  0.82382057  0.87236829  1
  Ba  Ba9  1  0.66959031  0.16005423  0.87618867  1
  Ba  Ba10  1  1.00136199  0.17753497  0.62306438  1
  Ba  Ba11  1  0.50005937  0.99381505  0.87550045  1
  Ba  Ba12  1  1.00342905  0.17620603  0.12604429  1
  Ba  Ba13  1  0.66973357  0.17355794  0.62634500  1
  Ba  Ba14  1  0.16816826  0.65890060  0.87750099  1
  Ba  Ba15  1  0.16938255  0.32792611  0.37424044  1
  Ba  Ba16  1  0.83390092  0.00930840  0.12656966  1
  Ba  Ba17  1  0.00076451  0.16057115  0.87563237  1
  Ba  Ba18  1  0.83131002  0.99456057  0.37436019  1
  Ba  Ba19  1  0.33745816  0.84180720  0.12300731  1
  Ba  Ba20  1  0.33303287  0.15832515  0.37378036  1
  Ba  Ba21  1  0.33788089  0.49250579  0.37432723  1
  Ba  Ba22  1  1.00121207  0.84352819  0.62419003  1
  Ba  Ba23  1  0.83248490  0.32302723  0.37199656  1
  Ba  Ba24  1  0.67020110  0.17417847  0.12328036  1
  Ba  Ba25  1  0.99861147  0.50766478  0.62243670  1
  Ba  Ba26  1  0.16853754  0.33863746  0.12703301  1
  Ba  Ba27  1  0.33524884  0.50981275  0.13106739  1
  Ba  Ba28  1  -0.00025014  0.49221181  0.87489861  1
  Ba  Ba29  1  0.83480686  0.00743709  0.62501773  1
  Ba  Ba30  1  0.16817150  0.00942144  0.12399804  1
  Ba  Ba31  1  0.49959989  0.67845612  0.62150015  1
  Ba  Ba32  1  0.83622591  0.33731937  0.62639924  1
  Ba  Ba33  1  0.83319485  0.33963206  0.12388680  1
  Ba  Ba34  1  0.49660302  0.00980919  0.62950473  1
  Ba  Ba35  1  0.32856725  0.14933448  0.87658951  1
  La  La36  1  -0.00211175  0.15457753  0.37047816  1
  La  La37  1  0.16274708  0.99217777  0.37176131  1
  La  La38  1  0.49062782  0.34845112  0.62902314  1
  La  La39  1  0.66962670  0.84896971  0.62683875  1
  La  La40  1  0.16329326  0.67999321  0.12522256  1
  La  La41  1  0.33864432  0.51546533  0.62135873  1
  La  La42  1  0.50766642  0.31425320  0.37251990  1
  La  La43  1  0.66776103  0.51118849  0.62233471  1
  La  La44  1  0.83815602  0.31816211  0.87211395  1
  La  La45  1  0.49089191  0.01522711  0.12013471  1
  La  La46  1  0.17194864  0.65095628  0.37216782  1
  La  La47  1  0.33372186  0.82197291  0.87790394  1
  La  La48  1  0.33474132  0.84686144  0.62559015  1
  La  La49  1  0.49305968  0.35205982  0.12289191  1
  La  La50  1  0.65683959  0.48093569  0.37353103  1
  La  La51  1  0.16068100  0.67882284  0.62785207  1
  La  La52  1  0.83753979  0.98995229  0.87968403  1
  La  La53  1  0.15814875  0.01431297  0.62464087  1
  La  La54  1  0.82734609  0.67679863  0.12068425  1
  La  La55  1  0.16935771  0.31566506  0.88007452  1
  La  La56  1  0.50935067  0.98228549  0.37470306  1
  La  La57  1  0.50167386  0.31698359  0.87999919  1
  La  La58  1  0.84071492  0.65271774  0.87447074  1
  La  La59  1  0.33241956  0.81534618  0.37844735  1
  La  La60  1  0.50285365  0.64988508  0.37186603  1
  La  La61  1  0.65929030  0.48751992  0.87466453  1
  La  La62  1  0.32491783  0.48628142  0.88070841  1
  La  La63  1  0.83064184  0.67625560  0.62945656  1
  La  La64  1  0.17205927  0.97982506  0.87869066  1
  La  La65  1  0.83743986  0.65412036  0.37628418  1
  La  La66  1  0.66346331  0.81864944  0.38022765  1
  La  La67  1  0.66412760  0.14941155  0.37485582  1
  La  La68  1  0.33586839  0.18293827  0.62759128  1
  La  La69  1  0.66914438  0.51493459  0.12312694  1
  La  La70  1  0.00019403  0.48265923  0.37288168  1
  La  La71  1  -0.00410490  0.82223859  0.37354681  1
  In  In72  1  0.66478305  -0.00438555  0.24889761  1
  In  In73  1  0.82828421  0.49883249  0.74948835  1
  In  In74  1  0.83335941  0.83188376  0.74848384  1
  In  In75  1  0.16746739  0.16553689  0.25019655  1
  In  In76  1  0.83437026  0.83343240  0.00183880  1
  In  In77  1  0.66464282  0.00007128  0.00146556  1
  In  In78  1  0.66194450  0.33554946  0.75038620  1
  In  In79  1  0.33850757  -0.00185368  0.25484788  1
  In  In80  1  0.49894138  0.83049921  0.25110668  1
  In  In81  1  0.66488250  0.66681955  0.75182824  1
  In  In82  1  0.00342274  -0.00030011  0.75336444  1
  In  In83  1  0.49962985  0.16566029  0.50174585  1
  In  In84  1  0.83545741  0.16504082  0.75121886  1
  In  In85  1  0.49977677  0.16721421  0.75237595  1
  In  In86  1  -0.00094157  0.66393451  0.00005755  1
  In  In87  1  0.33745113  0.33544563  0.49849269  1
  In  In88  1  0.33191811  0.66567847  0.74743394  1
  In  In89  1  0.82947890  0.49577136  -0.00213221  1
  In  In90  1  0.33157219  0.33625467  0.75314783  1
  In  In91  1  0.33751442  0.33392985  0.25011647  1
  In  In92  1  0.83389360  0.83262795  0.49667482  1
  In  In93  1  0.66289686  0.33192091  0.50183090  1
  In  In94  1  -0.00112083  0.66406429  0.25136498  1
  In  In95  1  0.83614647  0.16702928  0.00398604  1
  In  In96  1  0.83410135  0.16768617  0.49831148  1
  In  In97  1  0.16744807  0.83312200  0.49897392  1
  In  In98  1  0.16772191  0.50170847  0.50187629  1
  In  In99  1  0.33353941  -0.00064711  0.49919959  1
  In  In100  1  0.49772710  0.83379757  0.74828055  1
  In  In101  1  0.83006110  0.50038144  0.25060808  1
  In  In102  1  0.16724262  0.83354409  0.25280662  1
  In  In103  1  0.33254443  0.66404598  0.00223535  1
  In  In104  1  0.00451315  0.33568610  0.75066079  1
  In  In105  1  0.66831737  0.66674049  0.25218857  1
  In  In106  1  0.16829240  0.16549150  0.49782991  1
  In  In107  1  0.82991745  0.50114717  0.49720003  1
  Ir  Ir108  1  0.50269638  0.50307639  0.50058832  1
  Ir  Ir109  1  0.49913175  0.83309473  -0.00085245  1
  Ir  Ir110  1  0.00184453  0.33464233  0.49390823  1
  Ir  Ir111  1  0.49837850  0.83052227  0.50093464  1
  Ir  Ir112  1  0.00070773  0.33469673  0.24981158  1
  Ir  Ir113  1  0.16786447  0.83312748  -0.00117862  1
  Ir  Ir114  1  0.66257723  -0.00355240  0.49991436  1
  Ir  Ir115  1  0.83319471  0.83250634  0.25358368  1
  Ir  Ir116  1  0.16591758  0.50249526  0.24608681  1
  Ir  Ir117  1  0.00369308  0.00093127  0.49711420  1
  Ir  Ir118  1  0.16792089  0.49654452  0.00087779  1
  Ir  Ir119  1  0.83127356  0.16975338  0.25235947  1
  Ir  Ir120  1  0.33621060  0.33553676  -0.00098944  1
  Ir  Ir121  1  0.66637191  0.66813179  0.49825924  1
  Ir  Ir122  1  0.66737656  -0.00044376  0.74783102  1
  Ir  Ir123  1  0.33385815  -0.00294420  -0.00360240  1
  Ir  Ir124  1  0.16880410  0.83021516  0.74971200  1
  Ir  Ir125  1  0.49632659  0.49965099  0.75184534  1
  Ir  Ir126  1  0.66540122  0.66577313  0.00048961  1
  Ir  Ir127  1  0.50338311  0.16813659  0.24735712  1
  Ir  Ir128  1  0.32377815  -0.00458015  0.75079094  1
  Ir  Ir129  1  0.50489352  0.49886630  0.25013651  1
  Ir  Ir130  1  0.00573624  0.33401026  0.00033611  1
  Ir  Ir131  1  0.49950903  0.16983118  0.00290882  1
  Ir  Ir132  1  0.66083317  0.33690626  0.00250923  1
  Ir  Ir133  1  0.50016810  0.49819621  -0.00404170  1
  Ir  Ir134  1  0.33341667  0.66618805  0.49751699  1
  Ir  Ir135  1  -0.00103883  0.00118249  0.24998467  1
  Ir  Ir136  1  0.16767034  0.16477156  -0.00368488  1
  Ir  Ir137  1  0.66142285  0.33207520  0.24591577  1
  Ir  Ir138  1  0.00725678  -0.00012599  0.00055305  1
  Ir  Ir139  1  0.00149920  0.66417712  0.74671969  1
  Ir  Ir140  1  0.17008826  0.50044772  0.75552537  1
  Ir  Ir141  1  0.00319440  0.66713243  0.49894712  1
  Ir  Ir142  1  0.17085942  0.16203773  0.75229190  1
  Ir  Ir143  1  0.33249050  0.66444303  0.25482821  1
  O  O144  1  0.32203247  0.33521788  0.11894723  1
  O  O145  1  0.31921518  0.32624753  0.62709077  1
  O  O146  1  0.30137542  0.66569542  0.13200832  1
  O  O147  1  0.29995076  0.65472889  0.61808922  1
  O  O148  1  0.32132477  0.99914352  0.11764802  1
  O  O149  1  0.29383518  0.98481960  0.63183513  1
  O  O150  1  0.62856603  0.32802178  0.12373074  1
  O  O151  1  0.62480812  0.33236254  0.62493864  1
  O  O152  1  0.64340070  0.65716128  0.12156979  1
  O  O153  1  0.64471050  0.64866645  0.61566209  1
  O  O154  1  0.62859399  0.99743970  0.12716319  1
  O  O155  1  0.64343506  0.99001698  0.62208360  1
  O  O156  1  0.98250722  0.33640316  0.12527356  1
  O  O157  1  0.98740105  0.33677228  0.61508330  1
  O  O158  1  0.96415258  0.66178381  0.12662231  1
  O  O159  1  0.96978594  0.66269172  0.62148973  1
  O  O160  1  0.98070153  0.99961090  0.12611365  1
  O  O161  1  0.98758108  1.00034722  0.61791214  1
  O  O162  1  0.18261555  0.16420932  0.11744835  1
  O  O163  1  0.19886618  0.15028243  0.63213452  1
  O  O164  1  0.18912588  0.49228277  0.12214806  1
  O  O165  1  0.19945039  0.50022929  0.63534133  1
  O  O166  1  0.18729907  0.82393286  0.12127198  1
  O  O167  1  0.19671480  0.82094522  0.62830292  1
  O  O168  1  0.52301248  0.15495926  0.12520542  1
  O  O169  1  0.52016641  0.16557917  0.62761180  1
  O  O170  1  0.53360885  0.48980734  0.12237061  1
  O  O171  1  0.53133275  0.49046515  0.62805315  1
  O  O172  1  0.51657733  0.82725798  0.12036877  1
  O  O173  1  0.53222331  0.82995079  0.61813139  1
  O  O174  1  0.85170621  0.17179329  0.13269817  1
  O  O175  1  0.85039968  0.16214800  0.62349520  1
  O  O176  1  0.84486445  0.49806896  0.12423385  1
  O  O177  1  0.84666662  0.49812167  0.62178657  1
  O  O178  1  0.85653697  0.81712550  0.13369150  1
  O  O179  1  0.85371754  0.81558745  0.61953924  1
  O  O180  1  0.13485337  0.16627081  0.37457605  1
  O  O181  1  0.15008487  0.17585454  0.87421280  1
  O  O182  1  0.13823684  0.51470771  0.36740782  1
  O  O183  1  0.14678913  0.50386149  0.87941630  1
  O  O184  1  0.13009947  0.84891970  0.37701412  1
  O  O185  1  0.14519416  0.84167110  0.87365614  1
  O  O186  1  0.48040154  0.17837826  0.36657151  1
  O  O187  1  0.47496923  0.17585284  0.88373898  1
  O  O188  1  0.48396163  0.51518358  0.37534305  1
  O  O189  1  0.46283140  0.50359463  0.87334551  1
  O  O190  1  0.46708778  0.84061669  0.38240392  1
  O  O191  1  0.46939079  0.83742649  0.87791391  1
  O  O192  1  0.80289096  0.16787857  0.37111668  1
  O  O193  1  0.82169235  0.18263259  0.87971920  1
  O  O194  1  0.79300412  0.51353003  0.37394660  1
  O  O195  1  0.79509672  0.51494592  0.87568860  1
  O  O196  1  0.80127817  0.83687749  0.37283683  1
  O  O197  1  0.81768575  0.85151634  0.87415988  1
  O  O198  1  0.02868957  0.00874261  0.37381661  1
  O  O199  1  0.03646555  -0.00066076  0.88201637  1
  O  O200  1  0.02252267  0.34432299  0.37124158  1
  O  O201  1  0.03323291  0.33401603  0.88172080  1
  O  O202  1  0.03650939  0.67926287  0.38111233  1
  O  O203  1  0.02034188  0.66613483  0.86670185  1
  O  O204  1  0.37734866  0.00480983  0.37846615  1
  O  O205  1  0.35006699  -0.00873888  0.87332983  1
  O  O206  1  0.37157694  0.33574658  0.37347363  1
  O  O207  1  0.36318512  0.34548102  0.87953129  1
  O  O208  1  0.36735002  0.67296035  0.37727179  1
  O  O209  1  0.34646650  0.68080318  0.87478916  1
  O  O210  1  0.67853702  0.00494424  0.38016294  1
  O  O211  1  0.69621370  -0.00233969  0.86712765  1
  O  O212  1  0.68005805  0.34426863  0.36543708  1
  O  O213  1  0.69460074  0.35140507  0.88481549  1
  O  O214  1  0.69864687  0.67986900  0.38065551  1
  O  O215  1  0.69877692  0.66821818  0.88240446  1
  O  O216  1  0.07628679  0.09286160  0.01750904  1
  O  O217  1  0.07174902  0.09007322  0.51756760  1
  O  O218  1  0.07550833  0.42605438  0.01734686  1
  O  O219  1  0.06870901  0.42967257  0.50351752  1
  O  O220  1  0.08254557  0.75521620  0.01989419  1
  O  O221  1  0.07472296  0.75403592  0.52351753  1
  O  O222  1  0.41066888  0.09046465  0.02118721  1
  O  O223  1  0.39552628  0.10203982  0.52879852  1
  O  O224  1  0.40796673  0.42729898  0.02157433  1
  O  O225  1  0.41135441  0.43777969  0.53138966  1
  O  O226  1  0.40932266  0.76203225  0.01076962  1
  O  O227  1  0.39887409  0.76469029  0.52270469  1
  O  O228  1  0.74497662  0.08976626  0.01357106  1
  O  O229  1  0.73046971  0.08889142  0.50731701  1
  O  O230  1  0.72242632  0.43124934  0.02470672  1
  O  O231  1  0.72229766  0.43994919  0.51199397  1
  O  O232  1  0.73981636  0.74949726  0.02351586  1
  O  O233  1  0.72517960  0.76454013  0.52063176  1
  O  O234  1  0.10281110  0.26496461  0.01074805  1
  O  O235  1  0.09165603  0.26450515  0.51293079  1
  O  O236  1  0.10213368  0.59177534  0.02571101  1
  O  O237  1  0.09712668  0.60138182  0.52350888  1
  O  O238  1  0.10052427  0.92658844  0.01461799  1
  O  O239  1  0.09864205  0.93532853  0.51993422  1
  O  O240  1  0.43442447  0.26959480  0.02066137  1
  O  O241  1  0.44287816  0.27428478  0.51842698  1
  O  O242  1  0.42868663  0.58643379  0.01586422  1
  O  O243  1  0.42550105  0.59349741  0.52129587  1
  O  O244  1  0.43185492  0.92893876  0.02081883  1
  O  O245  1  0.42810240  0.91765804  0.52825986  1
  O  O246  1  0.75115623  0.26836465  0.01330990  1
  O  O247  1  0.76111387  0.26393913  0.51353557  1
  O  O248  1  0.75237804  0.59584364  0.02717139  1
  O  O249  1  0.76664864  0.61170874  0.51685227  1
  O  O250  1  0.75841826  0.92406845  0.01765327  1
  O  O251  1  0.75166160  0.92478845  0.51898707  1
  O  O252  1  0.23716243  0.06470987  0.27373891  1
  O  O253  1  0.22867930  0.06025920  0.77378816  1
  O  O254  1  0.24039102  0.41643819  0.26450519  1
  O  O255  1  0.23476347  0.40686407  0.78451094  1
  O  O256  1  0.23999160  0.73191778  0.27921573  1
  O  O257  1  0.23230451  0.73751862  0.76084302  1
  O  O258  1  0.56838382  0.07499571  0.27805775  1
  O  O259  1  0.58017495  0.07304132  0.76728335  1
  O  O260  1  0.56553436  0.39748980  0.26916894  1
  O  O261  1  0.55766229  0.40809238  0.78104670  1
  O  O262  1  0.57170012  0.73504479  0.28035855  1
  O  O263  1  0.57182656  0.74013755  0.76494662  1
  O  O264  1  0.90784151  0.08129906  0.27469757  1
  O  O265  1  0.90414533  0.06633786  0.77996733  1
  O  O266  1  0.91274477  0.40849558  0.26755568  1
  O  O267  1  0.90072775  0.40389180  0.77602453  1
  O  O268  1  0.90334842  0.74310363  0.28440476  1
  O  O269  1  0.90421078  0.72766584  0.76650236  1
  O  O270  1  0.25989769  0.24311386  0.26174319  1
  O  O271  1  0.25966861  0.23407083  0.76548232  1
  O  O272  1  0.25678000  0.57590628  0.27308628  1
  O  O273  1  0.26588806  0.56236758  0.77469785  1
  O  O274  1  0.26644615  0.89919960  0.28087042  1
  O  O275  1  0.26285517  0.89526860  0.77675429  1
  O  O276  1  0.59935428  0.23399375  0.27308814  1
  O  O277  1  0.58491949  0.24944004  0.78465872  1
  O  O278  1  0.59987689  0.56460455  0.27066385  1
  O  O279  1  0.59321422  0.56289034  0.77212312  1
  O  O280  1  0.59630529  0.89901555  0.28450445  1
  O  O281  1  0.59270878  0.91233963  0.75940066  1
  O  O282  1  0.93246094  0.23883106  0.27310341  1
  O  O283  1  0.92740631  0.24656798  0.76621664  1
  O  O284  1  0.92701672  0.57305250  0.28828587  1
  O  O285  1  0.92711826  0.57943405  0.76666523  1
  O  O286  1  0.93022014  0.90068103  0.27417175  1
  O  O287  1  0.92603076  0.90887243  0.76168520  1
  O  O288  1  0.26828993  0.23289345  0.49670419  1
  O  O289  1  0.25963811  0.24451781  0.97367836  1
  O  O290  1  0.26172518  0.57934226  0.47550309  1
  O  O291  1  0.26171084  0.56312770  0.98144031  1
  O  O292  1  0.27108100  0.89384378  0.47947908  1
  O  O293  1  0.26330543  0.90372536  0.97173089  1
  O  O294  1  0.59796289  0.23359093  0.46540254  1
  O  O295  1  0.58775948  0.24620262  0.97712785  1
  O  O296  1  0.59965577  0.57188483  0.47110867  1
  O  O297  1  0.59691246  0.56654575  0.97671441  1
  O  O298  1  0.59441072  0.89751654  0.47546373  1
  O  O299  1  0.58542050  0.90456626  0.98193215  1
  O  O300  1  0.93641296  0.24030537  0.47301587  1
  O  O301  1  0.93124871  0.24898188  0.98553149  1
  O  O302  1  0.93321203  0.57832019  0.46950301  1
  O  O303  1  0.91683441  0.57745301  0.97407379  1
  O  O304  1  0.93697088  0.90544172  0.47402089  1
  O  O305  1  0.93306489  0.91456495  0.98373556  1
  O  O306  1  0.22804189  0.05769155  0.47824170  1
  O  O307  1  0.23413824  0.06465698  0.97591905  1
  O  O308  1  0.24473759  0.41255411  0.48426825  1
  O  O309  1  0.23985285  0.40298840  0.97182758  1
  O  O310  1  0.24159321  0.73333088  0.46849074  1
  O  O311  1  0.24116570  0.74743300  0.98468667  1
  O  O312  1  0.56864938  0.06335198  0.47687462  1
  O  O313  1  0.56883282  0.08000885  0.98564557  1
  O  O314  1  0.56374816  0.40940014  0.47017810  1
  O  O315  1  0.56730187  0.40438833  0.97344202  1
  O  O316  1  0.56875483  0.73448302  0.46966000  1
  O  O317  1  0.57275337  0.74010344  0.97949726  1
  O  O318  1  0.91669817  0.07447166  0.47535129  1
  O  O319  1  0.91431430  0.06689318  0.98019929  1
  O  O320  1  0.91300216  0.40954455  0.47392024  1
  O  O321  1  0.90827471  0.39872853  0.97632436  1
  O  O322  1  0.91103816  0.73516770  0.46964486  1
  O  O323  1  0.90130363  0.73597637  0.97491435  1
  O  O324  1  0.08736872  0.26245216  0.23698916  1
  O  O325  1  0.10466772  0.25614178  0.73923590  1
  O  O326  1  0.10241383  0.59648121  0.22484180  1
  O  O327  1  0.10174039  0.59772302  0.72619927  1
  O  O328  1  0.09038836  0.93245234  0.23738948  1
  O  O329  1  0.10695312  0.92713187  0.73179126  1
  O  O330  1  0.44371629  0.26515078  0.22572035  1
  O  O331  1  0.42704751  0.26416476  0.73080202  1
  O  O332  1  0.43549328  0.59708088  0.24074927  1
  O  O333  1  0.42708183  0.58834322  0.72404435  1
  O  O334  1  0.44083339  0.93585323  0.23079389  1
  O  O335  1  0.41327191  0.92576796  0.72804240  1
  O  O336  1  0.75743314  0.26385199  0.23176287  1
  O  O337  1  0.76029377  0.26515274  0.74550732  1
  O  O338  1  0.76817818  0.60440661  0.22689529  1
  O  O339  1  0.76405534  0.60178204  0.72574479  1
  O  O340  1  0.76411258  0.92179269  0.23261515  1
  O  O341  1  0.75048233  0.92352732  0.72429609  1
  O  O342  1  0.06652208  0.09171524  0.23943195  1
  O  O343  1  0.08122271  0.09318532  0.73001659  1
  O  O344  1  0.06795653  0.43562536  0.24112987  1
  O  O345  1  0.07915240  0.43326962  0.73562288  1
  O  O346  1  0.07794393  0.75426196  0.23195348  1
  O  O347  1  0.07704053  0.75540204  0.72307834  1
  O  O348  1  0.41339955  0.09999031  0.22829596  1
  O  O349  1  0.38881423  0.09125913  0.72990435  1
  O  O350  1  0.41708892  0.42801155  0.22954692  1
  O  O351  1  0.40182244  0.43708298  0.72512857  1
  O  O352  1  0.39915087  0.75717570  0.24212863  1
  O  O353  1  0.39683581  0.76655814  0.72514884  1
  O  O354  1  0.74070749  0.09645986  0.24128287  1
  O  O355  1  0.73928414  0.08586758  0.73477851  1
  O  O356  1  0.72122415  0.43163374  0.22878338  1
  O  O357  1  0.71878239  0.44148467  0.73278286  1
  O  O358  1  0.74390296  0.76385612  0.23524599  1
  O  O359  1  0.73635788  0.76178647  0.71883111  1
