# generated using pymatgen
data_BaLaInIrO6
_symmetry_space_group_name_H-M   'P 1'
_cell_length_a   17.50811331
_cell_length_b   17.53080956
_cell_length_c   16.47508918
_cell_angle_alpha   90.00416597
_cell_angle_beta   90.00282873
_cell_angle_gamma   89.98639553
_symmetry_Int_Tables_number   1
_chemical_formula_structural   BaLaInIrO6
_chemical_formula_sum   'Ba36 La36 In36 Ir36 O216'
_cell_volume   5056.72202816
_cell_formula_units_Z   36
loop_
 _symmetry_equiv_pos_site_id
 _symmetry_equiv_pos_as_xyz
  1  'x, y, z'
loop_
 _atom_site_type_symbol
 _atom_site_label
 _atom_site_symmetry_multiplicity
 _atom_site_fract_x
 _atom_site_fract_y
 _atom_site_fract_z
 _atom_site_occupancy
  Ba  Ba0  1  1.00245084  0.50727402  0.12698580  1
  Ba  Ba1  1  0.66222525  0.83750625  0.12860469  1
  Ba  Ba2  1  0.50012061  0.98389446  0.38107218  1
  Ba  Ba3  1  0.50191973  0.66014590  0.87705565  1
  Ba  Ba4  1  0.16467887  0.32626839  0.37135444  1
  Ba  Ba5  1  -0.00205686  0.49202113  0.87816848  1
  Ba  Ba6  1  0.99934829  0.17678335  0.62525173  1
  Ba  Ba7  1  0.83403797  0.00969969  0.62075045  1
  Ba  Ba8  1  0.83704779  0.32842275  0.37265260  1
  Ba  Ba9  1  0.50119717  0.00714702  0.62520901  1
  Ba  Ba10  1  0.16603004  0.67351212  0.12099213  1
  Ba  Ba11  1  0.66639016  0.51109028  0.62503084  1
  Ba  Ba12  1  0.49969711  0.67629873  0.62355124  1
  Ba  Ba13  1  0.83634217  0.65901628  0.87582389  1
  Ba  Ba14  1  0.33440628  0.82389294  0.87415081  1
  Ba  Ba15  1  0.66336851  0.82068075  0.37978680  1
  Ba  Ba16  1  -0.00305670  0.82370368  0.37660972  1
  Ba  Ba17  1  0.83403890  0.32762126  0.87312032  1
  Ba  Ba18  1  0.49682024  0.00326160  0.12617765  1
  Ba  Ba19  1  0.16948730  0.65795296  0.87314639  1
  Ba  Ba20  1  0.50369892  0.65905496  0.37583545  1
  Ba  Ba21  1  0.83490646  0.65988121  0.37762905  1
  Ba  Ba22  1  0.67040024  0.17651479  0.61785846  1
  Ba  Ba23  1  0.83130299  0.98865064  0.38023790  1
  Ba  Ba24  1  0.66285948  0.82654039  0.87742709  1
  Ba  Ba25  1  0.33070939  0.49362922  0.87499801  1
  Ba  Ba26  1  0.50058654  0.34007195  0.62610784  1
  Ba  Ba27  1  0.50165066  0.34224578  0.12400266  1
  Ba  Ba28  1  0.66587568  0.50973844  0.12773513  1
  Ba  Ba29  1  0.34181646  0.51086814  0.62068226  1
  Ba  Ba30  1  0.66304619  0.15975803  0.87231941  1
  Ba  Ba31  1  0.49756106  0.67522397  0.12688759  1
  Ba  Ba32  1  0.33333036  0.82186470  0.37386432  1
  Ba  Ba33  1  0.33683851  0.83894131  0.12488678  1
  Ba  Ba34  1  -0.00205531  0.49134257  0.37398114  1
  Ba  Ba35  1  0.33641909  0.51207228  0.12716543  1
  La  La36  1  1.00099346  0.84072583  0.12798807  1
  La  La37  1  1.00464127  0.84830363  0.62311948  1
  La  La38  1  0.66284382  0.14940225  0.37331018  1
  La  La39  1  0.16333175  0.01736333  0.62771943  1
  La  La40  1  0.50379562  0.32395757  0.37501902  1
  La  La41  1  0.16944826  0.68312718  0.62459484  1
  La  La42  1  0.17341947  0.65143395  0.37455313  1
  La  La43  1  0.83574641  0.98707848  0.87024674  1
  La  La44  1  0.16579518  0.34707279  0.12458283  1
  La  La45  1  0.33240160  0.15195620  0.87400151  1
  La  La46  1  0.33178406  0.14947670  0.37642719  1
  La  La47  1  0.33346707  0.48693598  0.37296466  1
  La  La48  1  0.66562637  0.49450917  0.37737237  1
  La  La49  1  0.66905459  0.17915870  0.12803958  1
  La  La50  1  0.65928833  0.48931048  0.87478890  1
  La  La51  1  0.50318202  0.98508942  0.87405652  1
  La  La52  1  -0.00948479  0.15693399  0.37756923  1
  La  La53  1  0.33741838  0.18007516  0.12819237  1
  La  La54  1  0.34048947  0.17775427  0.62214810  1
  La  La55  1  0.16809905  0.31725908  0.87772365  1
  La  La56  1  0.82300934  0.01171809  0.13210529  1
  La  La57  1  -0.00653398  0.15506575  0.87160049  1
  La  La58  1  0.82732758  0.35157748  0.62193568  1
  La  La59  1  0.82778005  0.35446567  0.12484510  1
  La  La60  1  -0.00630885  0.81844706  0.87335547  1
  La  La61  1  0.83013163  0.68108612  0.62263340  1
  La  La62  1  0.16845709  0.98124921  0.87308314  1
  La  La63  1  0.34140851  0.84668881  0.62451401  1
  La  La64  1  0.82705410  0.67962383  0.12835193  1
  La  La65  1  0.99817886  0.51131792  0.62474593  1
  La  La66  1  0.16374918  0.35160846  0.62729292  1
  La  La67  1  0.50548938  0.33116743  0.87319448  1
  La  La68  1  1.00409908  0.17789389  0.12310664  1
  La  La69  1  0.66710345  0.84235679  0.62574064  1
  La  La70  1  0.16290555  0.00617810  0.12132629  1
  La  La71  1  0.17639612  0.98495976  0.38195558  1
  In  In72  1  -0.00057665  0.00049518  0.24744869  1
  In  In73  1  0.83535833  0.16597926  0.00036410  1
  In  In74  1  0.00247009  0.00122663  0.75123323  1
  In  In75  1  -0.00188371  0.33052570  0.24761355  1
  In  In76  1  0.00328568  0.66681286  0.49993814  1
  In  In77  1  0.83286280  0.83436868  0.25394703  1
  In  In78  1  0.49693058  0.49905081  0.00170365  1
  In  In79  1  0.16712366  0.49782936  -0.00244883  1
  In  In80  1  0.66682138  -0.00222904  0.50075415  1
  In  In81  1  0.66800957  0.33224714  0.25396501  1
  In  In82  1  0.66633215  0.00409195  -0.00045065  1
  In  In83  1  0.16539313  0.16498406  0.24913114  1
  In  In84  1  0.33102717  0.33198229  0.49736340  1
  In  In85  1  0.66918263  0.33157131  -0.00015731  1
  In  In86  1  0.00188976  0.66748631  0.74555574  1
  In  In87  1  -0.00205742  0.00039868  -0.00182698  1
  In  In88  1  -0.00007417  0.33271729  0.74887248  1
  In  In89  1  0.00343935  0.00120006  0.49841303  1
  In  In90  1  0.32905554  0.33181653  0.75093632  1
  In  In91  1  0.16859968  0.49977303  0.25099518  1
  In  In92  1  0.49810332  0.83428904  0.00092327  1
  In  In93  1  0.49745869  0.16478481  0.75053458  1
  In  In94  1  0.16589301  0.17043336  0.50031274  1
  In  In95  1  0.49810274  0.50110306  0.74917099  1
  In  In96  1  -0.00020058  0.33537621  0.50250944  1
  In  In97  1  0.33173403  -0.00057841  0.24913015  1
  In  In98  1  0.83564379  0.83743115  0.00094858  1
  In  In99  1  0.49637739  0.16436591  -0.00037508  1
  In  In100  1  -0.00078738  0.33010155  0.00015073  1
  In  In101  1  0.33233312  0.66910864  0.74710725  1
  In  In102  1  0.66907657  0.33232812  0.74806430  1
  In  In103  1  0.16556230  0.83043014  0.24991238  1
  In  In104  1  0.67006215  0.66785640  0.74979969  1
  In  In105  1  0.00000470  0.66755515  0.00138497  1
  In  In106  1  0.50038520  0.16700579  0.49804194  1
  In  In107  1  0.66847863  0.66608161  0.00025532  1
  Ir  Ir108  1  0.16979132  0.16355880  -0.00025083  1
  Ir  Ir109  1  0.83213511  0.16496226  0.74680137  1
  Ir  Ir110  1  0.49737833  0.49922026  0.25509100  1
  Ir  Ir111  1  0.33592338  0.66497183  0.25505393  1
  Ir  Ir112  1  0.49932987  0.16656912  0.25116694  1
  Ir  Ir113  1  0.49980984  0.83947017  0.74523889  1
  Ir  Ir114  1  0.16825875  0.83571928  0.74587678  1
  Ir  Ir115  1  0.49885932  0.82962299  0.50333897  1
  Ir  Ir116  1  0.17089171  0.83287707  0.50528551  1
  Ir  Ir117  1  0.83423114  0.16362726  0.25209160  1
  Ir  Ir118  1  0.66950677  -0.00067449  0.75040850  1
  Ir  Ir119  1  0.32708451  -0.00106386  0.75138712  1
  Ir  Ir120  1  0.16985181  0.50380761  0.50303676  1
  Ir  Ir121  1  0.49964227  0.50129044  0.49377346  1
  Ir  Ir122  1  0.16698762  0.83731267  -0.00163635  1
  Ir  Ir123  1  0.32628979  0.00184340  -0.00433142  1
  Ir  Ir124  1  -0.00156889  0.66644322  0.25008578  1
  Ir  Ir125  1  0.83419696  0.83098186  0.50577681  1
  Ir  Ir126  1  0.66685992  0.66379931  0.25390876  1
  Ir  Ir127  1  0.33097596  0.66523788  0.49547538  1
  Ir  Ir128  1  0.32913419  -0.00391113  0.50502820  1
  Ir  Ir129  1  0.83156443  0.17046163  0.49666019  1
  Ir  Ir130  1  0.66197671  0.00327552  0.24975690  1
  Ir  Ir131  1  0.83523465  0.50194438  0.74961730  1
  Ir  Ir132  1  0.66979367  0.33762127  0.49551947  1
  Ir  Ir133  1  0.33166085  0.32635218  0.00117418  1
  Ir  Ir134  1  0.66848499  0.66616578  0.50078373  1
  Ir  Ir135  1  0.16557463  0.49937105  0.74369570  1
  Ir  Ir136  1  0.16932543  0.16634840  0.75629507  1
  Ir  Ir137  1  0.83229224  0.50226774  0.50041867  1
  Ir  Ir138  1  0.83437512  0.83659956  0.74651434  1
  Ir  Ir139  1  0.33082760  0.66954022  0.00209130  1
  Ir  Ir140  1  0.83182478  0.50197312  0.00146378  1
  Ir  Ir141  1  0.83223027  0.50482667  0.25002928  1
  Ir  Ir142  1  0.50147819  0.83200854  0.25534364  1
  Ir  Ir143  1  0.33878774  0.33017346  0.24997360  1
  O  O144  1  0.30044164  0.31861588  0.12576412  1
  O  O145  1  0.29516263  0.31664384  0.62200831  1
  O  O146  1  0.31495514  0.67324015  0.13250000  1
  O  O147  1  0.30374193  0.66739616  0.61466692  1
  O  O148  1  0.29910456  0.99623099  0.11746042  1
  O  O149  1  0.29688842  0.98528966  0.62851812  1
  O  O150  1  0.65273245  0.32215072  0.12965724  1
  O  O151  1  0.65299840  0.33392582  0.61571089  1
  O  O152  1  0.65076280  0.66422991  0.13581562  1
  O  O153  1  0.65140481  0.67121956  0.61995200  1
  O  O154  1  0.64689480  1.00536156  0.13162435  1
  O  O155  1  0.65004223  0.99143648  0.62992439  1
  O  O156  1  0.96056308  0.31520351  0.12484439  1
  O  O157  1  0.96433289  0.33273306  0.62620872  1
  O  O158  1  0.96784965  0.66864848  0.13084372  1
  O  O159  1  0.96856148  0.65334336  0.62348793  1
  O  O160  1  0.95915504  0.98398035  0.12009526  1
  O  O161  1  0.98502970  0.98759894  0.62592938  1
  O  O162  1  0.20511760  0.14770284  0.11682959  1
  O  O163  1  0.20534837  0.15516179  0.63756194  1
  O  O164  1  0.18879295  0.48723500  0.12542447  1
  O  O165  1  0.19408609  0.48847556  0.62323749  1
  O  O166  1  0.18882283  0.83582286  0.11735958  1
  O  O167  1  0.20402143  0.82455362  0.62577604  1
  O  O168  1  0.53169756  0.16062950  0.13252109  1
  O  O169  1  0.51815356  0.16148866  0.62400676  1
  O  O170  1  0.51467993  0.49992139  0.13427311  1
  O  O171  1  0.51656137  0.49939991  0.61278368  1
  O  O172  1  0.50976436  0.83896388  0.13434024  1
  O  O173  1  0.52835773  0.83628588  0.62406238  1
  O  O174  1  0.86646885  0.14601094  0.13300818  1
  O  O175  1  0.85307928  0.16286277  0.62027372  1
  O  O176  1  0.85548790  0.49228542  0.12503402  1
  O  O177  1  0.86331183  0.49180948  0.62567744  1
  O  O178  1  0.86560166  0.82455808  0.12835965  1
  O  O179  1  0.86733196  0.82794488  0.62676680  1
  O  O180  1  0.12591251  0.17347372  0.37403598  1
  O  O181  1  0.13218616  0.17817860  0.87808902  1
  O  O182  1  0.14795294  0.51271385  0.38196712  1
  O  O183  1  0.14781239  0.50034190  0.86428962  1
  O  O184  1  0.14586487  0.84355972  0.38457194  1
  O  O185  1  0.13343293  0.84212763  0.87037930  1
  O  O186  1  0.46665290  0.17701599  0.36953377  1
  O  O187  1  0.46388205  0.18237245  0.87475147  1
  O  O188  1  0.47062293  0.49978514  0.37422856  1
  O  O189  1  0.47907846  0.49273734  0.87674808  1
  O  O190  1  0.48203056  0.82412078  0.38048920  1
  O  O191  1  0.48280869  0.84623876  0.86640993  1
  O  O192  1  0.80039630  0.17502783  0.37366515  1
  O  O193  1  0.81275081  0.17022815  0.86512027  1
  O  O194  1  0.80203842  0.50742284  0.37529840  1
  O  O195  1  0.80082577  0.50496145  0.87496560  1
  O  O196  1  0.81381406  0.82942916  0.38498677  1
  O  O197  1  0.81073491  0.84483359  0.86525119  1
  O  O198  1  0.03833555  0.01223448  0.37444081  1
  O  O199  1  0.03632826  0.01857535  0.87356853  1
  O  O200  1  0.01284484  0.32939235  0.37551513  1
  O  O201  1  0.03022519  0.33169972  0.87309862  1
  O  O202  1  0.03227479  0.66849994  0.37263838  1
  O  O203  1  0.01955410  0.67917003  0.86984957  1
  O  O204  1  0.35027264  0.00772399  0.38411074  1
  O  O205  1  0.36199003  0.01160620  0.87279378  1
  O  O206  1  0.36752866  0.34156087  0.36853986  1
  O  O207  1  0.36442429  0.32928137  0.88343482  1
  O  O208  1  0.35432062  0.66122383  0.37540733  1
  O  O209  1  0.34369172  0.66754142  0.88064934  1
  O  O210  1  0.68209744  0.00522437  0.37007688  1
  O  O211  1  0.69964225  0.00162163  0.86906777  1
  O  O212  1  0.68946758  0.35251096  0.37718784  1
  O  O213  1  0.68826007  0.34708640  0.87416066  1
  O  O214  1  0.68546832  0.65749148  0.37714871  1
  O  O215  1  0.68903604  0.67439311  0.87344267  1
  O  O216  1  0.07570526  0.09821108  0.02745922  1
  O  O217  1  0.08196008  0.08936389  0.53028463  1
  O  O218  1  0.08003000  0.41463732  0.02429476  1
  O  O219  1  0.07429793  0.43781629  0.52711712  1
  O  O220  1  0.07199552  0.77466413  0.02033606  1
  O  O221  1  0.07784347  0.76569015  0.53294850  1
  O  O222  1  0.38925932  0.09625869  0.01914825  1
  O  O223  1  0.39447728  0.09203802  0.51842105  1
  O  O224  1  0.39846832  0.41653023  0.02091618  1
  O  O225  1  0.40722377  0.43193467  0.50398297  1
  O  O226  1  0.40264019  0.75723592  0.00990975  1
  O  O227  1  0.39861607  0.76241103  0.52238259  1
  O  O228  1  0.73392388  0.10274905  0.03022571  1
  O  O229  1  0.74358249  0.09658275  0.50438004  1
  O  O230  1  0.74400739  0.43143139  0.01834561  1
  O  O231  1  0.74041502  0.43058799  0.51950486  1
  O  O232  1  0.75003954  0.75525488  0.02728586  1
  O  O233  1  0.73904703  0.76082785  0.52993163  1
  O  O234  1  0.10800933  0.25674660  0.02740263  1
  O  O235  1  0.10149888  0.27016948  0.53058364  1
  O  O236  1  0.08917407  0.58954198  0.01189656  1
  O  O237  1  0.10554883  0.59869065  0.52575701  1
  O  O238  1  0.10211951  0.93194662  0.01742830  1
  O  O239  1  0.10541462  0.92587292  0.52927282  1
  O  O240  1  0.41552247  0.25440278  0.03142160  1
  O  O241  1  0.42688879  0.26055338  0.51432404  1
  O  O242  1  0.41946373  0.59721384  0.01385639  1
  O  O243  1  0.42901295  0.59662200  0.51341778  1
  O  O244  1  0.41813198  0.93297776  0.00712112  1
  O  O245  1  0.42210504  0.91993789  0.52678833  1
  O  O246  1  0.77156479  0.26528867  0.02717326  1
  O  O247  1  0.76604322  0.27005007  0.51962571  1
  O  O248  1  0.76947199  0.59545594  0.02733086  1
  O  O249  1  0.76616759  0.60057975  0.52390161  1
  O  O250  1  0.77186525  0.94090430  0.01873864  1
  O  O251  1  0.75701684  0.91559817  0.52251344  1
  O  O252  1  0.23868283  0.07424361  0.28541625  1
  O  O253  1  0.23326096  0.06805177  0.78128335  1
  O  O254  1  0.25217389  0.40396861  0.27051948  1
  O  O255  1  0.22398261  0.39838279  0.76704626  1
  O  O256  1  0.23815664  0.73023365  0.27390272  1
  O  O257  1  0.23355732  0.74158645  0.75834577  1
  O  O258  1  0.57178110  0.07790590  0.27940344  1
  O  O259  1  0.57341791  0.06464742  0.77536500  1
  O  O260  1  0.56594577  0.40676917  0.27576056  1
  O  O261  1  0.57608328  0.40884732  0.77142240  1
  O  O262  1  0.57662540  0.73905199  0.26638435  1
  O  O263  1  0.57274301  0.75217690  0.76007866  1
  O  O264  1  0.90309478  0.07640702  0.27784813  1
  O  O265  1  0.90180258  0.07225588  0.77201585  1
  O  O266  1  0.90292846  0.41350400  0.25812096  1
  O  O267  1  0.90399919  0.41123141  0.76603644  1
  O  O268  1  0.91075079  0.73545973  0.26696653  1
  O  O269  1  0.90726115  0.74989269  0.76395193  1
  O  O270  1  0.27440685  0.23434752  0.26886610  1
  O  O271  1  0.25540525  0.23474448  0.78952013  1
  O  O272  1  0.26567292  0.57368407  0.27710424  1
  O  O273  1  0.25379960  0.57013487  0.75760103  1
  O  O274  1  0.25086847  0.91303830  0.27291903  1
  O  O275  1  0.25644854  0.90840642  0.77428999  1
  O  O276  1  0.59244007  0.23463302  0.27846589  1
  O  O277  1  0.58255749  0.24908187  0.77234667  1
  O  O278  1  0.59714145  0.56448290  0.27547557  1
  O  O279  1  0.60024534  0.57045733  0.77043325  1
  O  O280  1  0.59383923  0.90635545  0.27110831  1
  O  O281  1  0.59384041  0.91141046  0.76954330  1
  O  O282  1  0.93126026  0.22499375  0.27013363  1
  O  O283  1  0.92877355  0.22899533  0.76939641  1
  O  O284  1  0.92629792  0.57512872  0.26897600  1
  O  O285  1  0.92769356  0.56811504  0.76233567  1
  O  O286  1  0.92547125  0.90837472  0.27127773  1
  O  O287  1  0.92822473  0.90415181  0.77252458  1
  O  O288  1  0.26754943  0.22877231  0.46980845  1
  O  O289  1  0.26416873  0.23018260  0.97342438  1
  O  O290  1  0.26465156  0.57015978  0.47054242  1
  O  O291  1  0.25886388  0.58165968  0.99165645  1
  O  O292  1  0.26113984  0.90372235  0.48132374  1
  O  O293  1  0.25503232  0.91169084  0.96969692  1
  O  O294  1  0.59989975  0.24697739  0.46603260  1
  O  O295  1  0.58883285  0.24071009  0.98529195  1
  O  O296  1  0.60039209  0.56746241  0.47760843  1
  O  O297  1  0.59989394  0.56621838  0.98041687  1
  O  O298  1  0.59036331  0.90096017  0.49245570  1
  O  O299  1  0.58730649  0.91412544  0.98423839  1
  O  O300  1  0.92556920  0.23473999  0.47949806  1
  O  O301  1  0.94401236  0.22300496  0.98315298  1
  O  O302  1  0.92672377  0.56816040  0.48775476  1
  O  O303  1  0.92032712  0.57126769  0.98679042  1
  O  O304  1  0.92634773  0.90300016  0.49109904  1
  O  O305  1  0.93177663  0.90610493  0.95893609  1
  O  O306  1  0.23634844  0.06325202  0.48368139  1
  O  O307  1  0.23109603  0.06795177  0.96895646  1
  O  O308  1  0.23858989  0.41254557  0.47890074  1
  O  O309  1  0.23868362  0.39200938  0.97681668  1
  O  O310  1  0.23067820  0.72970813  0.47959963  1
  O  O311  1  0.23634524  0.74462433  0.98216648  1
  O  O312  1  0.58113329  0.08078768  0.47706770  1
  O  O313  1  0.56294993  0.06761355  0.97044219  1
  O  O314  1  0.57111400  0.40699316  0.46840444  1
  O  O315  1  0.57171738  0.40360115  0.97748990  1
  O  O316  1  0.57384596  0.73765233  0.48538875  1
  O  O317  1  0.57444348  0.74304637  0.99232874  1
  O  O318  1  0.90822865  0.08256423  0.47727177  1
  O  O319  1  0.90225854  0.06988060  0.96325302  1
  O  O320  1  0.89962318  0.41026899  0.48894556  1
  O  O321  1  0.90097715  0.40774833  0.98919449  1
  O  O322  1  0.90579931  0.74216201  0.49388669  1
  O  O323  1  0.91558741  0.74887221  0.97608811  1
  O  O324  1  0.09581546  0.25724560  0.21039941  1
  O  O325  1  0.10751717  0.26239411  0.72949566  1
  O  O326  1  0.09040404  0.59764431  0.23765722  1
  O  O327  1  0.09944939  0.59306054  0.71456196  1
  O  O328  1  0.09008463  0.92239082  0.21438654  1
  O  O329  1  0.10246780  0.92857440  0.72525451  1
  O  O330  1  0.42989247  0.25814534  0.22669079  1
  O  O331  1  0.41078367  0.24783790  0.72014619  1
  O  O332  1  0.42818539  0.59361126  0.23713533  1
  O  O333  1  0.42553692  0.59764382  0.73599042  1
  O  O334  1  0.42718321  0.92080819  0.24640501  1
  O  O335  1  0.42069822  0.92943924  0.72798518  1
  O  O336  1  0.76787732  0.25485149  0.22406279  1
  O  O337  1  0.76960344  0.26108346  0.72318494  1
  O  O338  1  0.76340785  0.59873889  0.23035063  1
  O  O339  1  0.77317691  0.59719175  0.72366909  1
  O  O340  1  0.75595652  0.93469256  0.22897826  1
  O  O341  1  0.75961686  0.92438597  0.72428041  1
  O  O342  1  0.07409154  0.09015175  0.20882177  1
  O  O343  1  0.08170140  0.09700233  0.72995400  1
  O  O344  1  0.08280633  0.41660811  0.23410744  1
  O  O345  1  0.07239788  0.43313226  0.71909303  1
  O  O346  1  0.06512909  0.75974494  0.22722864  1
  O  O347  1  0.07589373  0.76778041  0.71750337  1
  O  O348  1  0.40381305  0.09960214  0.22864675  1
  O  O349  1  0.39054136  0.09177622  0.72888516  1
  O  O350  1  0.40310101  0.43072862  0.23820646  1
  O  O351  1  0.40570393  0.42116331  0.73272486  1
  O  O352  1  0.40853901  0.75927952  0.23748557  1
  O  O353  1  0.40610832  0.77155255  0.72471793  1
  O  O354  1  0.73131276  0.10017435  0.23064187  1
  O  O355  1  0.73868145  0.09299547  0.72841275  1
  O  O356  1  0.74575730  0.42969444  0.23497427  1
  O  O357  1  0.74844399  0.42987227  0.73087969  1
  O  O358  1  0.74134822  0.75196004  0.23563674  1
  O  O359  1  0.74620074  0.76562579  0.71751512  1
