# generated using pymatgen
data_BaLaInIrO6
_symmetry_space_group_name_H-M   'P 1'
_cell_length_a   17.52428799
_cell_length_b   17.54970979
_cell_length_c   16.49799553
_cell_angle_alpha   89.97032197
_cell_angle_beta   90.00524609
_cell_angle_gamma   89.97656359
_symmetry_Int_Tables_number   1
_chemical_formula_structural   BaLaInIrO6
_chemical_formula_sum   'Ba36 La36 In36 Ir36 O216'
_cell_volume   5073.89418815
_cell_formula_units_Z   36
loop_
 _symmetry_equiv_pos_site_id
 _symmetry_equiv_pos_as_xyz
  1  'x, y, z'
loop_
 _atom_site_type_symbol
 _atom_site_label
 _atom_site_symmetry_multiplicity
 _atom_site_fract_x
 _atom_site_fract_y
 _atom_site_fract_z
 _atom_site_occupancy
  Ba  Ba0  1  0.49770808  0.67758402  0.62729973  1
  Ba  Ba1  1  0.16694713  0.32671350  0.37423829  1
  Ba  Ba2  1  0.66615052  0.49335338  0.37528469  1
  Ba  Ba3  1  0.83217689  0.32669342  0.87077958  1
  Ba  Ba4  1  0.49784734  0.67231349  0.12695915  1
  Ba  Ba5  1  0.83033318  0.99029721  0.37511302  1
  Ba  Ba6  1  0.66604150  0.84147140  0.12426705  1
  Ba  Ba7  1  0.33884765  0.50994922  0.62381372  1
  Ba  Ba8  1  0.82992163  0.34613796  0.62496965  1
  Ba  Ba9  1  0.16656333  0.67086354  0.62487431  1
  Ba  Ba10  1  0.82862460  0.67436407  0.62769473  1
  Ba  Ba11  1  0.16891294  0.34513192  0.12704848  1
  Ba  Ba12  1  1.00127080  0.50870977  0.12600781  1
  Ba  Ba13  1  0.66577076  0.15908318  0.37416101  1
  Ba  Ba14  1  0.83423535  0.00449989  0.62374619  1
  Ba  Ba15  1  0.00016661  0.49219907  0.37474283  1
  Ba  Ba16  1  0.83616880  0.00718055  0.12315972  1
  Ba  Ba17  1  0.33904787  0.84151353  0.12722367  1
  Ba  Ba18  1  -0.00079358  0.82125510  0.37569212  1
  Ba  Ba19  1  0.33116820  0.17871093  0.12756445  1
  Ba  Ba20  1  -0.00257759  0.82189919  0.87444780  1
  Ba  Ba21  1  0.49791535  0.00951381  0.62746395  1
  Ba  Ba22  1  0.66952186  0.50932442  0.63058463  1
  Ba  Ba23  1  0.16441507  0.01101608  0.13231922  1
  Ba  Ba24  1  0.50273465  0.32557430  0.87222023  1
  Ba  Ba25  1  0.33032227  0.81775644  0.37882310  1
  Ba  Ba26  1  0.33363274  0.50971299  0.12011665  1
  Ba  Ba27  1  0.50061284  0.34598648  0.62053126  1
  Ba  Ba28  1  0.16745080  0.34311840  0.62232949  1
  Ba  Ba29  1  0.33613011  0.84304916  0.62845928  1
  Ba  Ba30  1  0.99928433  0.83591134  0.62542762  1
  Ba  Ba31  1  -0.00090728  0.49345566  0.87209266  1
  Ba  Ba32  1  0.66898932  0.17715424  0.62128393  1
  Ba  Ba33  1  0.16964666  0.32600232  0.87275773  1
  Ba  Ba34  1  0.33243044  0.49453037  0.87295181  1
  Ba  Ba35  1  1.00074696  0.50817722  0.62358804  1
  La  La36  1  0.83227654  0.34586475  0.12145362  1
  La  La37  1  0.50058745  0.65292112  0.37425846  1
  La  La38  1  1.00578273  0.17813032  0.62439329  1
  La  La39  1  0.84090600  0.31907268  0.37883801  1
  La  La40  1  0.50219178  0.32212924  0.37652316  1
  La  La41  1  0.83609897  0.65129467  0.87504246  1
  La  La42  1  0.16687922  0.65441249  0.87135822  1
  La  La43  1  0.66183193  0.81836390  0.87281905  1
  La  La44  1  0.33224837  0.16106112  0.87574135  1
  La  La45  1  0.83438548  0.98609694  0.87385831  1
  La  La46  1  0.16853646  0.65241559  0.37710593  1
  La  La47  1  0.33114212  0.81522726  0.87822723  1
  La  La48  1  -0.00590893  0.15471317  0.37243577  1
  La  La49  1  0.82889568  0.67715397  0.12536709  1
  La  La50  1  0.16201465  0.00753448  0.62658865  1
  La  La51  1  0.50091681  0.98508019  0.87409815  1
  La  La52  1  0.17120108  0.98007338  0.38016349  1
  La  La53  1  0.48731910  0.01870967  0.12772351  1
  La  La54  1  0.66195568  0.15039377  0.87136611  1
  La  La55  1  0.66671415  0.18259123  0.12135740  1
  La  La56  1  0.66910630  0.84722911  0.62627904  1
  La  La57  1  0.83966962  0.65297489  0.38086004  1
  La  La58  1  1.00545901  0.84421403  0.13232430  1
  La  La59  1  0.32988563  0.48880415  0.37308737  1
  La  La60  1  1.00854475  0.18530136  0.12579585  1
  La  La61  1  0.50792837  0.98385458  0.37631108  1
  La  La62  1  0.50134570  0.64934045  0.87784136  1
  La  La63  1  0.33817879  0.17629257  0.63030398  1
  La  La64  1  0.66246242  0.82251857  0.38151151  1
  La  La65  1  0.17272011  0.98097800  0.87830897  1
  La  La66  1  0.67153324  0.51395216  0.12074981  1
  La  La67  1  0.66325625  0.48369420  0.87349440  1
  La  La68  1  0.33198101  0.15487280  0.37547838  1
  La  La69  1  0.16498526  0.67185487  0.12491354  1
  La  La70  1  0.49287851  0.35318081  0.12569199  1
  La  La71  1  -0.00406083  0.15443071  0.87843820  1
  In  In72  1  0.33659591  0.33163680  -0.00101376  1
  In  In73  1  0.50151719  0.83297663  -0.00053311  1
  In  In74  1  0.66190920  0.00108978  0.24565045  1
  In  In75  1  0.83345868  0.49748517  0.24884247  1
  In  In76  1  0.66837829  0.66605481  0.25133490  1
  In  In77  1  0.33665425  0.33175679  0.74988762  1
  In  In78  1  0.16624331  0.49957265  0.74741399  1
  In  In79  1  0.16424680  0.16536582  -0.00319460  1
  In  In80  1  0.83060018  0.16741817  -0.00084356  1
  In  In81  1  0.50030088  0.16720809  0.50116773  1
  In  In82  1  0.66448546  0.33651268  0.24701426  1
  In  In83  1  0.00156278  0.33307712  0.49945247  1
  In  In84  1  0.16521216  0.50043414  0.00094508  1
  In  In85  1  0.00193606  -0.00146065  0.75157607  1
  In  In86  1  0.00100923  -0.00047614  -0.00193029  1
  In  In87  1  0.83369526  0.16411266  0.75076242  1
  In  In88  1  -0.00008517  0.33107622  0.75136981  1
  In  In89  1  0.83463573  0.16397483  0.49931138  1
  In  In90  1  0.16811885  0.83142482  0.75057607  1
  In  In91  1  0.66250417  0.00004555  0.00186099  1
  In  In92  1  0.83218306  0.83202888  0.24978925  1
  In  In93  1  0.16955004  0.82712726  0.25074295  1
  In  In94  1  0.33514230  0.33226316  0.49696775  1
  In  In95  1  0.33485051  0.00113315  0.25469985  1
  In  In96  1  0.83331300  0.83148711  -0.00094532  1
  In  In97  1  0.83231768  0.16757941  0.24361278  1
  In  In98  1  0.66590190  0.33045665  0.74747646  1
  In  In99  1  0.00086084  -0.00090585  0.25352959  1
  In  In100  1  -0.00237587  0.66726118  0.00148614  1
  In  In101  1  0.50065643  0.83129285  0.25204902  1
  In  In102  1  0.33558863  0.66778868  0.74888686  1
  In  In103  1  0.66492536  0.66762348  0.50329865  1
  In  In104  1  0.33376904  -0.00000481  0.50370310  1
  In  In105  1  0.16842314  0.16280633  0.49790580  1
  In  In106  1  0.33372242  0.00019062  -0.00017292  1
  In  In107  1  0.83171355  0.83187344  0.50101891  1
  Ir  Ir108  1  0.66987905  0.33924990  0.49451705  1
  Ir  Ir109  1  0.50434714  0.50355607  0.75034790  1
  Ir  Ir110  1  0.16857164  0.15863460  0.74839265  1
  Ir  Ir111  1  0.16847514  0.50125544  0.25212831  1
  Ir  Ir112  1  0.16968564  0.50337902  0.49445932  1
  Ir  Ir113  1  0.00518358  -0.00244332  0.50206988  1
  Ir  Ir114  1  0.66530063  -0.00236364  0.75077736  1
  Ir  Ir115  1  0.16860521  0.82841437  0.00156246  1
  Ir  Ir116  1  0.50352622  0.16860017  -0.00162685  1
  Ir  Ir117  1  0.00162612  0.66434173  0.49866908  1
  Ir  Ir118  1  0.33224184  0.66060842  0.25135080  1
  Ir  Ir119  1  0.33558479  0.66603049  0.49518413  1
  Ir  Ir120  1  0.82959025  0.50588926  0.75200386  1
  Ir  Ir121  1  0.66868291  0.66263802  -0.00414056  1
  Ir  Ir122  1  0.33775259  0.33559369  0.25059971  1
  Ir  Ir123  1  0.82968822  0.49703072  -0.00141187  1
  Ir  Ir124  1  0.16350337  0.17075890  0.25421300  1
  Ir  Ir125  1  0.66439053  0.66962138  0.75665033  1
  Ir  Ir126  1  0.33392036  0.00189582  0.75534762  1
  Ir  Ir127  1  0.66196652  0.33491988  0.00141851  1
  Ir  Ir128  1  -0.00115886  0.66357224  0.25209327  1
  Ir  Ir129  1  0.49875751  0.16231968  0.75411073  1
  Ir  Ir130  1  0.33336654  0.66758086  0.00000197  1
  Ir  Ir131  1  0.16677031  0.82812376  0.50110390  1
  Ir  Ir132  1  0.83222304  0.50166954  0.50046246  1
  Ir  Ir133  1  0.82554073  0.83265979  0.75200363  1
  Ir  Ir134  1  0.49822828  0.50379079  0.49603482  1
  Ir  Ir135  1  -0.00419651  0.66783176  0.74844817  1
  Ir  Ir136  1  0.49670982  0.49941680  0.25152653  1
  Ir  Ir137  1  0.50604280  0.50211415  -0.00016187  1
  Ir  Ir138  1  0.00037330  0.33302641  0.24993936  1
  Ir  Ir139  1  -0.00328560  0.33404793  0.00070086  1
  Ir  Ir140  1  0.49805510  0.17066189  0.24817010  1
  Ir  Ir141  1  0.49964405  0.83648858  0.75306553  1
  Ir  Ir142  1  0.49886765  0.83253762  0.50203536  1
  Ir  Ir143  1  0.66288511  -0.00186141  0.50192518  1
  O  O144  1  0.32114250  0.33368862  0.13058332  1
  O  O145  1  0.31998358  0.31505441  0.62352117  1
  O  O146  1  0.30215809  0.66374656  0.12675413  1
  O  O147  1  0.32037839  0.66854339  0.61687559  1
  O  O148  1  0.31786220  1.00403720  0.12695747  1
  O  O149  1  0.30245601  0.99771308  0.63488255  1
  O  O150  1  0.62788680  0.32536983  0.11883845  1
  O  O151  1  0.65055712  0.33995945  0.61543620  1
  O  O152  1  0.64476243  0.65147843  0.11546267  1
  O  O153  1  0.64577099  0.66456226  0.63567109  1
  O  O154  1  0.61797747  0.99349251  0.12279661  1
  O  O155  1  0.64250555  0.98470673  0.62670100  1
  O  O156  1  0.96925211  0.32442085  0.12556989  1
  O  O157  1  0.97821943  0.31714423  0.62486883  1
  O  O158  1  0.96756458  0.66450565  0.13252939  1
  O  O159  1  0.97550250  0.66721935  0.62329084  1
  O  O160  1  0.98647036  0.98212835  0.12405273  1
  O  O161  1  0.98463498  0.99223498  0.62124770  1
  O  O162  1  0.18119251  0.16946105  0.13405689  1
  O  O163  1  0.20369645  0.14679396  0.62966109  1
  O  O164  1  0.18351433  0.50654790  0.13249383  1
  O  O165  1  0.18724588  0.50575588  0.61351510  1
  O  O166  1  0.19098084  0.81348425  0.12081603  1
  O  O167  1  0.18550618  0.82946053  0.62073287  1
  O  O168  1  0.53137739  0.15632349  0.12278753  1
  O  O169  1  0.51966460  0.16281567  0.63351434  1
  O  O170  1  0.53268862  0.49274332  0.12557501  1
  O  O171  1  0.52197713  0.50424450  0.62171916  1
  O  O172  1  0.51662737  0.82395048  0.12482917  1
  O  O173  1  0.53085017  0.83079922  0.62753370  1
  O  O174  1  0.87247911  0.16556464  0.12119876  1
  O  O175  1  0.86742109  0.16067032  0.62348859  1
  O  O176  1  0.85155216  0.48607888  0.11791948  1
  O  O177  1  0.85097576  0.50360247  0.62774226  1
  O  O178  1  0.87124515  0.81530149  0.12270358  1
  O  O179  1  0.84654389  0.83164203  0.63224969  1
  O  O180  1  0.13112405  0.17232127  0.37067129  1
  O  O181  1  0.13353627  0.16745563  0.86580705  1
  O  O182  1  0.14917563  0.51113843  0.37364029  1
  O  O183  1  0.14851272  0.51825863  0.87560844  1
  O  O184  1  0.14927341  0.83180033  0.38148099  1
  O  O185  1  0.14806646  0.83888564  0.88270810  1
  O  O186  1  0.46914769  0.18200682  0.36675865  1
  O  O187  1  0.46943105  0.17035507  0.87735090  1
  O  O188  1  0.46637011  0.50954790  0.37334338  1
  O  O189  1  0.48241164  0.51036600  0.87470444  1
  O  O190  1  0.47668831  0.84420381  0.38378118  1
  O  O191  1  0.46747487  0.84422979  0.87134374  1
  O  O192  1  0.81411385  0.18153550  0.37159932  1
  O  O193  1  0.79445537  0.17335319  0.87596088  1
  O  O194  1  0.81652139  0.50991055  0.37898249  1
  O  O195  1  0.80027197  0.51164231  0.87617466  1
  O  O196  1  0.79967079  0.82916561  0.37693691  1
  O  O197  1  0.79704802  0.84098211  0.86967069  1
  O  O198  1  0.03703850  0.00800655  0.38352699  1
  O  O199  1  0.04044240  0.01231833  0.87495744  1
  O  O200  1  0.01840687  0.33765372  0.36840139  1
  O  O201  1  0.01842340  0.33748930  0.88222701  1
  O  O202  1  0.03119655  0.66336206  0.37452032  1
  O  O203  1  0.02528285  0.66553804  0.86905693  1
  O  O204  1  0.37064386  0.01621164  0.37832820  1
  O  O205  1  0.36554632  0.01637263  0.87233444  1
  O  O206  1  0.36523359  0.34632582  0.36846798  1
  O  O207  1  0.35389930  0.31658485  0.87421855  1
  O  O208  1  0.36355218  0.66001735  0.37238584  1
  O  O209  1  0.36352675  0.67314707  0.88052917  1
  O  O210  1  0.67798795  0.00220446  0.38323785  1
  O  O211  1  0.69536532  0.01064985  0.86908105  1
  O  O212  1  0.69996909  0.33861310  0.37442111  1
  O  O213  1  0.68152195  0.34395874  0.88082729  1
  O  O214  1  0.70213461  0.67708552  0.37711993  1
  O  O215  1  0.69828186  0.67726915  0.87629315  1
  O  O216  1  0.06274338  0.10441648  0.02248301  1
  O  O217  1  0.07455133  0.08576729  0.53094509  1
  O  O218  1  0.06533885  0.42447831  0.01600072  1
  O  O219  1  0.08160056  0.42909698  0.51077139  1
  O  O220  1  0.07167196  0.76629764  0.02621664  1
  O  O221  1  0.07352131  0.75578207  0.51836671  1
  O  O222  1  0.41203498  0.10291875  0.01696958  1
  O  O223  1  0.39537308  0.10553562  0.52235828  1
  O  O224  1  0.41933982  0.42739227  0.01822278  1
  O  O225  1  0.40917898  0.43412407  0.50918597  1
  O  O226  1  0.39992186  0.76121256  0.00883108  1
  O  O227  1  0.40602157  0.76211527  0.51786094  1
  O  O228  1  0.72663127  0.10327684  0.02429174  1
  O  O229  1  0.73647292  0.08711177  0.51553273  1
  O  O230  1  0.72771305  0.43319799  0.02005142  1
  O  O231  1  0.73943497  0.43291671  0.51531283  1
  O  O232  1  0.73753441  0.75041930  0.01801883  1
  O  O233  1  0.72714287  0.76937248  0.52477882  1
  O  O234  1  0.08727707  0.26549232  0.01886637  1
  O  O235  1  0.08953803  0.24949236  0.52386523  1
  O  O236  1  0.09766038  0.60264913  0.02124622  1
  O  O237  1  0.09891988  0.59712773  0.50858040  1
  O  O238  1  0.10398472  0.92131213  0.01895512  1
  O  O239  1  0.10342977  0.92890613  0.52069175  1
  O  O240  1  0.44273355  0.26318044  0.02595476  1
  O  O241  1  0.43665544  0.26782755  0.50254227  1
  O  O242  1  0.43425098  0.59928938  0.01019759  1
  O  O243  1  0.43288097  0.60131936  0.51002039  1
  O  O244  1  0.43809810  0.93905744  0.01513971  1
  O  O245  1  0.43019990  0.92384852  0.51879524  1
  O  O246  1  0.75471722  0.27011103  0.02960716  1
  O  O247  1  0.75976159  0.26841597  0.50906776  1
  O  O248  1  0.76357798  0.59363352  0.02340047  1
  O  O249  1  0.76333584  0.59266928  0.51201556  1
  O  O250  1  0.75804351  0.92622002  0.01494027  1
  O  O251  1  0.75017827  0.92625213  0.51855983  1
  O  O252  1  0.23370044  0.08070619  0.28318492  1
  O  O253  1  0.23465737  0.06289730  0.77824877  1
  O  O254  1  0.24593548  0.41082038  0.27622653  1
  O  O255  1  0.24639519  0.40926441  0.76124532  1
  O  O256  1  0.23632455  0.72397211  0.27059957  1
  O  O257  1  0.24390095  0.74378679  0.78308624  1
  O  O258  1  0.55724461  0.07355354  0.27235776  1
  O  O259  1  0.57080734  0.06702157  0.77911932  1
  O  O260  1  0.56102843  0.40456637  0.27097671  1
  O  O261  1  0.57927222  0.41635229  0.76499560  1
  O  O262  1  0.57441451  0.73786593  0.28319936  1
  O  O263  1  0.56829826  0.73902582  0.78204528  1
  O  O264  1  0.91242387  0.07885760  0.27649580  1
  O  O265  1  0.90657379  0.06860638  0.78246322  1
  O  O266  1  0.90032398  0.39428963  0.26508660  1
  O  O267  1  0.90273508  0.41822919  0.76354915  1
  O  O268  1  0.90575930  0.72620096  0.27682911  1
  O  O269  1  0.89567551  0.73858053  0.77521702  1
  O  O270  1  0.26678354  0.23891390  0.27679805  1
  O  O271  1  0.26335514  0.22201391  0.76847187  1
  O  O272  1  0.26280032  0.56916501  0.27702667  1
  O  O273  1  0.25131746  0.58517875  0.76615134  1
  O  O274  1  0.25532477  0.91109520  0.27544987  1
  O  O275  1  0.27052070  0.90776775  0.78303209  1
  O  O276  1  0.58722586  0.24054124  0.26668020  1
  O  O277  1  0.59324762  0.22876132  0.77331977  1
  O  O278  1  0.58414562  0.57352280  0.26957111  1
  O  O279  1  0.59778404  0.57564702  0.78293935  1
  O  O280  1  0.59556900  0.90335424  0.28534552  1
  O  O281  1  0.59546428  0.90313164  0.77635551  1
  O  O282  1  0.93479091  0.24256095  0.27242819  1
  O  O283  1  0.93732610  0.22975861  0.77486331  1
  O  O284  1  0.92744537  0.57600399  0.26932122  1
  O  O285  1  0.91773710  0.58364051  0.77320130  1
  O  O286  1  0.92946324  0.90118249  0.26435218  1
  O  O287  1  0.91526510  0.90529594  0.77142862  1
  O  O288  1  0.26738772  0.23185777  0.47473412  1
  O  O289  1  0.26387024  0.23170647  0.98104910  1
  O  O290  1  0.26499017  0.57462301  0.46773410  1
  O  O291  1  0.26136779  0.58285240  0.98149085  1
  O  O292  1  0.25386679  0.90326046  0.48258033  1
  O  O293  1  0.26429849  0.89527933  0.97683517  1
  O  O294  1  0.59649803  0.25193163  0.47696146  1
  O  O295  1  0.60322398  0.23266381  0.97812047  1
  O  O296  1  0.58367061  0.57873982  0.47374814  1
  O  O297  1  0.60090462  0.56984575  0.97148700  1
  O  O298  1  0.59393323  0.90112275  0.47971830  1
  O  O299  1  0.59452635  0.90374942  0.96095025  1
  O  O300  1  0.92816413  0.23944691  0.46791156  1
  O  O301  1  0.93354586  0.23975394  0.97846553  1
  O  O302  1  0.92476401  0.57614903  0.47753345  1
  O  O303  1  0.91842240  0.56875125  0.98134651  1
  O  O304  1  0.92953431  0.91062807  0.48371805  1
  O  O305  1  0.92063703  0.91136925  0.97012008  1
  O  O306  1  0.23380377  0.06370011  0.47046503  1
  O  O307  1  0.23586132  0.06744084  0.97123093  1
  O  O308  1  0.24504766  0.41650513  0.47739718  1
  O  O309  1  0.24576567  0.41131251  0.98755500  1
  O  O310  1  0.23392859  0.73074923  0.47687461  1
  O  O311  1  0.23513321  0.73136562  0.97513935  1
  O  O312  1  0.56853672  0.06772710  0.48013112  1
  O  O313  1  0.56608514  0.07607098  0.96656101  1
  O  O314  1  0.56795207  0.40777992  0.47163166  1
  O  O315  1  0.57413489  0.41060613  0.97785873  1
  O  O316  1  0.56689689  0.74295514  0.47256063  1
  O  O317  1  0.57710934  0.73217663  0.96938219  1
  O  O318  1  0.92063809  0.07237753  0.47629159  1
  O  O319  1  0.90173999  0.07147037  0.96480261  1
  O  O320  1  0.89963294  0.40732225  0.47952629  1
  O  O321  1  0.89499050  0.39838705  0.98941095  1
  O  O322  1  0.90631763  0.73129331  0.48024010  1
  O  O323  1  0.89892283  0.73050955  0.97287711  1
  O  O324  1  0.09189580  0.26320371  0.22746676  1
  O  O325  1  0.10125232  0.24686906  0.72380453  1
  O  O326  1  0.10031703  0.59958456  0.23150899  1
  O  O327  1  0.08219521  0.59510307  0.73324886  1
  O  O328  1  0.09214934  0.91827125  0.23675464  1
  O  O329  1  0.10489590  0.93252810  0.73590387  1
  O  O330  1  0.43566423  0.27086227  0.22723733  1
  O  O331  1  0.43026423  0.24970541  0.73037308  1
  O  O332  1  0.42624417  0.59289314  0.23436169  1
  O  O333  1  0.43363557  0.59387095  0.74464573  1
  O  O334  1  0.43658243  0.93499845  0.23485965  1
  O  O335  1  0.43331086  0.93539886  0.73989596  1
  O  O336  1  0.75980977  0.26528658  0.21468512  1
  O  O337  1  0.75822250  0.25813458  0.73032464  1
  O  O338  1  0.76038790  0.59043511  0.22010516  1
  O  O339  1  0.75964995  0.60242693  0.74321090  1
  O  O340  1  0.75736952  0.92768040  0.22997614  1
  O  O341  1  0.75479351  0.92438690  0.72796765  1
  O  O342  1  0.06954555  0.10583911  0.23247335  1
  O  O343  1  0.07649350  0.09503373  0.71788135  1
  O  O344  1  0.07438147  0.42779437  0.23222507  1
  O  O345  1  0.07625435  0.42114447  0.73368642  1
  O  O346  1  0.06868206  0.75310537  0.22601178  1
  O  O347  1  0.07122534  0.75325544  0.73665616  1
  O  O348  1  0.40817323  0.10340918  0.23356146  1
  O  O349  1  0.39819123  0.09931820  0.73291957  1
  O  O350  1  0.40623109  0.42829089  0.22691329  1
  O  O351  1  0.41781783  0.42894080  0.73594113  1
  O  O352  1  0.40123996  0.75169894  0.23904302  1
  O  O353  1  0.40844040  0.76740047  0.74147207  1
  O  O354  1  0.72884853  0.10158532  0.22207217  1
  O  O355  1  0.73357306  0.08661442  0.73052989  1
  O  O356  1  0.73235759  0.43174679  0.21749991  1
  O  O357  1  0.74156311  0.43267859  0.74692278  1
  O  O358  1  0.74771288  0.75053684  0.21600186  1
  O  O359  1  0.72547374  0.76908605  0.73425686  1
