# generated using pymatgen
data_BaLaInIrO6
_symmetry_space_group_name_H-M   'P 1'
_cell_length_a   17.53733881
_cell_length_b   17.56025294
_cell_length_c   16.50122523
_cell_angle_alpha   89.99785555
_cell_angle_beta   89.98730195
_cell_angle_gamma   90.00140927
_symmetry_Int_Tables_number   1
_chemical_formula_structural   BaLaInIrO6
_chemical_formula_sum   'Ba36 La36 In36 Ir36 O216'
_cell_volume   5081.71892866
_cell_formula_units_Z   36
loop_
 _symmetry_equiv_pos_site_id
 _symmetry_equiv_pos_as_xyz
  1  'x, y, z'
loop_
 _atom_site_type_symbol
 _atom_site_label
 _atom_site_symmetry_multiplicity
 _atom_site_fract_x
 _atom_site_fract_y
 _atom_site_fract_z
 _atom_site_occupancy
  Ba  Ba0  1  0.66257197  0.83708794  0.62738578  1
  Ba  Ba1  1  0.16413460  0.67634028  0.12641128  1
  Ba  Ba2  1  -0.00254344  0.83013713  0.87639851  1
  Ba  Ba3  1  0.33392009  0.84141185  0.62656227  1
  Ba  Ba4  1  0.66802194  0.49137730  0.87518548  1
  Ba  Ba5  1  0.83182770  0.31941577  0.87240650  1
  Ba  Ba6  1  0.83608893  0.67226202  0.62616321  1
  Ba  Ba7  1  0.83385627  0.00617423  0.62722687  1
  Ba  Ba8  1  0.66450675  0.82370832  0.37648227  1
  Ba  Ba9  1  0.83566678  0.32103470  0.37440403  1
  Ba  Ba10  1  0.16277643  0.68328126  0.62496965  1
  Ba  Ba11  1  0.66559901  0.17319150  0.12292171  1
  Ba  Ba12  1  0.66759059  0.50560709  0.62220436  1
  Ba  Ba13  1  0.49717907  0.65805435  0.37401061  1
  Ba  Ba14  1  0.33127655  0.82349929  0.87527656  1
  Ba  Ba15  1  0.33180524  0.15315899  0.87928141  1
  Ba  Ba16  1  0.50131705  0.33212634  0.37252558  1
  Ba  Ba17  1  0.66521386  0.82327510  0.87449214  1
  Ba  Ba18  1  0.83709282  0.33566659  0.62536394  1
  Ba  Ba19  1  0.33876312  0.51334999  0.62647320  1
  Ba  Ba20  1  0.49924885  0.00610382  0.12748082  1
  Ba  Ba21  1  1.00117558  0.17231163  0.12072262  1
  Ba  Ba22  1  0.49915165  0.99560319  0.37720593  1
  Ba  Ba23  1  0.83434573  0.65736972  0.87446929  1
  Ba  Ba24  1  0.34054843  0.17848457  0.12568669  1
  Ba  Ba25  1  0.49986222  0.98734554  0.88323614  1
  Ba  Ba26  1  0.49876873  0.34672785  0.62650980  1
  Ba  Ba27  1  0.66510680  0.49268844  0.37632720  1
  Ba  Ba28  1  1.00194504  0.17297999  0.62570824  1
  Ba  Ba29  1  0.99928759  0.84782433  0.12287982  1
  Ba  Ba30  1  -0.00009166  0.49101902  0.37201389  1
  Ba  Ba31  1  0.32998289  0.48886610  0.36985169  1
  Ba  Ba32  1  0.33327753  0.51759604  0.11961691  1
  Ba  Ba33  1  0.83449831  0.67400135  0.12653578  1
  Ba  Ba34  1  0.00085958  0.15469210  0.87646874  1
  Ba  Ba35  1  0.16639760  0.34287857  0.11754146  1
  La  La36  1  0.17166818  0.98485370  0.87696937  1
  La  La37  1  0.49280380  0.68194344  0.12285604  1
  La  La38  1  0.83106114  0.00803558  0.12163243  1
  La  La39  1  0.17175164  0.65263877  0.87541021  1
  La  La40  1  0.17190490  0.98585466  0.37987095  1
  La  La41  1  -0.00792272  0.82117236  0.37371687  1
  La  La42  1  1.00486944  0.51333108  0.12314654  1
  La  La43  1  1.00565020  0.85653106  0.62907856  1
  La  La44  1  0.50357077  0.65581187  0.87439999  1
  La  La45  1  0.16171380  0.01023431  0.12340065  1
  La  La46  1  0.49281506  0.35262621  0.12208118  1
  La  La47  1  0.17358994  0.64989468  0.37303087  1
  La  La48  1  0.17801547  0.31463547  0.36908634  1
  La  La49  1  0.49873958  0.01469586  0.62647236  1
  La  La50  1  -0.00762827  0.48721349  0.87766997  1
  La  La51  1  0.16561799  0.01074613  0.63115367  1
  La  La52  1  0.33721378  0.84097649  0.12145678  1
  La  La53  1  0.83384341  0.34700589  0.12192096  1
  La  La54  1  0.67350809  0.17530538  0.62063270  1
  La  La55  1  0.66614921  0.51057065  0.12515117  1
  La  La56  1  0.32915255  0.48252960  0.87646525  1
  La  La57  1  0.50527208  0.31850150  0.87629926  1
  La  La58  1  0.83588396  0.99273652  0.87475580  1
  La  La59  1  0.82916230  0.99103496  0.37548400  1
  La  La60  1  0.66470789  0.84849226  0.12164222  1
  La  La61  1  0.32798141  0.81827961  0.37521299  1
  La  La62  1  -0.00264985  0.14941396  0.37333889  1
  La  La63  1  0.66897198  0.16134064  0.37122620  1
  La  La64  1  0.83407738  0.65024860  0.38357045  1
  La  La65  1  0.17083225  0.31597404  0.87524463  1
  La  La66  1  0.33974843  0.18247685  0.63165449  1
  La  La67  1  1.00542635  0.50996600  0.62598034  1
  La  La68  1  0.66372337  0.15312371  0.87266893  1
  La  La69  1  0.49717401  0.67293025  0.62790216  1
  La  La70  1  0.33138020  0.15123653  0.37363026  1
  La  La71  1  0.15881928  0.35133684  0.62240170  1
  In  In72  1  0.83711374  0.49647537  0.74993532  1
  In  In73  1  0.66796460  0.00193602  0.25054931  1
  In  In74  1  0.50010749  0.16561797  0.00028226  1
  In  In75  1  0.00522981  0.66830172  0.75385521  1
  In  In76  1  0.16980376  0.16552624  0.50218496  1
  In  In77  1  0.00180506  0.33051295  0.24811956  1
  In  In78  1  0.49896008  0.16824998  0.50203669  1
  In  In79  1  0.00020406  0.33133327  -0.00099689  1
  In  In80  1  0.83390355  0.83347645  0.74925707  1
  In  In81  1  0.00569850  0.32985620  0.49500096  1
  In  In82  1  0.66456142  0.66753430  0.50043863  1
  In  In83  1  0.00386300  0.33069429  0.75019590  1
  In  In84  1  0.00321331  0.66965320  0.49852538  1
  In  In85  1  0.33096989  0.33226688  0.50150816  1
  In  In86  1  0.66460466  0.00000934  0.50354627  1
  In  In87  1  0.49874161  0.16949418  0.25261507  1
  In  In88  1  0.49924338  0.83327419  0.25175454  1
  In  In89  1  0.83775506  0.49603415  0.49961820  1
  In  In90  1  0.83431151  0.83461252  0.50090381  1
  In  In91  1  0.66591733  0.66413033  0.75131922  1
  In  In92  1  0.00258522  0.66969596  -0.00063784  1
  In  In93  1  0.33460082  -0.00087751  0.74960230  1
  In  In94  1  0.49647586  0.49870709  0.75646078  1
  In  In95  1  0.66501066  0.33037269  0.75061612  1
  In  In96  1  0.66805731  0.33223779  0.24359872  1
  In  In97  1  0.32850519  0.67007040  0.50378397  1
  In  In98  1  0.66719979  0.33102858  0.49775810  1
  In  In99  1  0.16360922  0.83427277  0.25072626  1
  In  In100  1  0.16650782  0.49703759  0.24603404  1
  In  In101  1  0.49765154  0.50254051  0.49983989  1
  In  In102  1  0.32946044  -0.00276993  0.25025148  1
  In  In103  1  0.83225992  0.49934753  0.24582489  1
  In  In104  1  0.83060931  0.83229662  0.24866936  1
  In  In105  1  0.17061893  0.50145938  0.75096609  1
  In  In106  1  0.17169313  0.16456010  0.00252999  1
  In  In107  1  0.82983190  0.83187451  -0.00018706  1
  Ir  Ir108  1  0.49807425  0.50292906  0.24167996  1
  Ir  Ir109  1  0.16566137  0.50123608  -0.00260101  1
  Ir  Ir110  1  0.33122557  0.66894595  0.24541559  1
  Ir  Ir111  1  0.16608480  0.16348717  0.25138653  1
  Ir  Ir112  1  0.83052532  0.16263933  -0.00058026  1
  Ir  Ir113  1  0.00100068  0.00110947  0.00092392  1
  Ir  Ir114  1  0.32951449  -0.00238349  0.50358959  1
  Ir  Ir115  1  0.17345553  0.16438999  0.75027806  1
  Ir  Ir116  1  0.00535701  0.00158209  0.49722869  1
  Ir  Ir117  1  0.66002325  0.66316922  0.00455221  1
  Ir  Ir118  1  0.66860370  0.00010370  -0.00214999  1
  Ir  Ir119  1  0.33447786  0.67161127  0.75773499  1
  Ir  Ir120  1  0.83837635  0.16245097  0.24780184  1
  Ir  Ir121  1  0.00510822  0.00435538  0.75270834  1
  Ir  Ir122  1  0.16186940  0.84019985  0.50092354  1
  Ir  Ir123  1  0.00323186  0.00354402  0.25184283  1
  Ir  Ir124  1  0.66134345  0.00120017  0.75339448  1
  Ir  Ir125  1  0.33444890  0.66846713  -0.00188167  1
  Ir  Ir126  1  0.16991613  0.83504841  -0.00002430  1
  Ir  Ir127  1  0.33436050  0.33355905  0.24468128  1
  Ir  Ir128  1  0.66501883  0.33270722  0.00020817  1
  Ir  Ir129  1  0.49799731  0.83374617  0.75141939  1
  Ir  Ir130  1  0.33036544  0.32874606  0.75490984  1
  Ir  Ir131  1  0.16799731  0.50034885  0.49840858  1
  Ir  Ir132  1  0.50088585  0.83034852  -0.00183460  1
  Ir  Ir133  1  0.83073508  0.15911363  0.75065282  1
  Ir  Ir134  1  0.16584518  0.83667674  0.75094817  1
  Ir  Ir135  1  0.66097757  0.66570441  0.24206153  1
  Ir  Ir136  1  0.33632318  0.33849401  -0.00170180  1
  Ir  Ir137  1  0.49165985  0.83690532  0.50233503  1
  Ir  Ir138  1  0.83231666  0.49866236  0.00221508  1
  Ir  Ir139  1  0.50105002  0.16540240  0.75320712  1
  Ir  Ir140  1  0.49745413  0.50242098  -0.00061865  1
  Ir  Ir141  1  0.33028840  -0.00754023  0.00138916  1
  Ir  Ir142  1  0.83581552  0.16021531  0.49796050  1
  Ir  Ir143  1  0.00216239  0.66942815  0.25303372  1
  O  O144  1  0.31461739  0.33806419  0.12099757  1
  O  O145  1  0.29601551  0.32233900  0.63460819  1
  O  O146  1  0.31284692  0.67701681  0.11965047  1
  O  O147  1  0.31307666  0.67392591  0.63709780  1
  O  O148  1  0.29789563  0.98465214  0.12132064  1
  O  O149  1  0.30002668  0.99412429  0.62199656  1
  O  O150  1  0.63091835  0.32859889  0.11575462  1
  O  O151  1  0.64538718  0.30785542  0.62629834  1
  O  O152  1  0.62683405  0.65396818  0.12232858  1
  O  O153  1  0.62966716  0.66395416  0.62680591  1
  O  O154  1  0.64867120  0.99396358  0.11781710  1
  O  O155  1  0.63376944  0.99952057  0.63508835  1
  O  O156  1  0.96937006  0.32446599  0.12187580  1
  O  O157  1  0.99097435  0.32742685  0.62415880  1
  O  O158  1  0.98603978  0.65549311  0.13029992  1
  O  O159  1  0.99094675  0.64884373  0.62485663  1
  O  O160  1  0.97001373  1.00274513  0.12763130  1
  O  O161  1  0.98314071  0.99483565  0.62314662  1
  O  O162  1  0.19209891  0.14809668  0.13141863  1
  O  O163  1  0.20130387  0.14878224  0.63033786  1
  O  O164  1  0.18617949  0.50187848  0.11576695  1
  O  O165  1  0.19097926  0.49247824  0.61918142  1
  O  O166  1  0.19838882  0.83541126  0.12095279  1
  O  O167  1  0.18590180  0.84280406  0.62584202  1
  O  O168  1  0.51165570  0.16328644  0.12397617  1
  O  O169  1  0.53160535  0.15600526  0.63568708  1
  O  O170  1  0.52684929  0.49290220  0.11956812  1
  O  O171  1  0.50983457  0.50695092  0.63121412  1
  O  O172  1  0.52797358  0.82096870  0.11735897  1
  O  O173  1  0.51178525  0.81542611  0.62723102  1
  O  O174  1  0.85729128  0.14597847  0.12475463  1
  O  O175  1  0.85666402  0.15896698  0.62407130  1
  O  O176  1  0.86576724  0.49531978  0.11901324  1
  O  O177  1  0.87478614  0.49652598  0.62539729  1
  O  O178  1  0.84954877  0.83790256  0.12505891  1
  O  O179  1  0.87075621  0.83768548  0.62493112  1
  O  O180  1  0.13750477  0.17550032  0.37067845  1
  O  O181  1  0.15542711  0.17606370  0.87066510  1
  O  O182  1  0.15284818  0.50846510  0.37669828  1
  O  O183  1  0.13751025  0.50515612  0.88034554  1
  O  O184  1  0.13018782  0.84876865  0.38247129  1
  O  O185  1  0.14515279  0.84791504  0.87488496  1
  O  O186  1  0.46246555  0.17405165  0.37867210  1
  O  O187  1  0.47703427  0.17538995  0.87334797  1
  O  O188  1  0.47853098  0.50272021  0.36020789  1
  O  O189  1  0.46210538  0.51398780  0.88269221  1
  O  O190  1  0.46622816  0.84296664  0.38067487  1
  O  O191  1  0.47893849  0.83565490  0.87482614  1
  O  O192  1  0.80730577  0.16037905  0.37330292  1
  O  O193  1  0.80035893  0.15839318  0.87489414  1
  O  O194  1  0.81452281  0.51479795  0.36842234  1
  O  O195  1  0.81541790  0.50168210  0.88565416  1
  O  O196  1  0.81681583  0.85401601  0.37170027  1
  O  O197  1  0.81562378  0.85571598  0.87587866  1
  O  O198  1  0.03655050  0.01132837  0.37388159  1
  O  O199  1  0.03485783  0.00138260  0.87662241  1
  O  O200  1  0.04321329  0.33212593  0.37043959  1
  O  O201  1  0.03717154  0.34345640  0.87549800  1
  O  O202  1  0.03780443  0.68321939  0.37093512  1
  O  O203  1  0.04031301  0.67567368  0.87891395  1
  O  O204  1  0.34963965  0.00835877  0.38527010  1
  O  O205  1  0.34971309  -0.00498352  0.88028512  1
  O  O206  1  0.34710442  0.33053710  0.36388374  1
  O  O207  1  0.36570177  0.33872893  0.87728747  1
  O  O208  1  0.34432962  0.67573880  0.36724946  1
  O  O209  1  0.36469087  0.66938642  0.87917459  1
  O  O210  1  0.69392443  0.01685773  0.37712056  1
  O  O211  1  0.69624608  0.00941158  0.87521280  1
  O  O212  1  0.68700804  0.33308121  0.36918547  1
  O  O213  1  0.68412395  0.33357376  0.88285900  1
  O  O214  1  0.69341098  0.67105084  0.35947580  1
  O  O215  1  0.68285159  0.66701033  0.88791105  1
  O  O216  1  0.07886344  0.08383856  0.01910647  1
  O  O217  1  0.07293344  0.09197715  0.51416330  1
  O  O218  1  0.07063151  0.43686770  0.02073797  1
  O  O219  1  0.07579737  0.43670354  0.52438014  1
  O  O220  1  0.08206740  0.76741553  0.01967064  1
  O  O221  1  0.06546487  0.77994861  0.52346068  1
  O  O222  1  0.40460333  0.07922499  0.01574415  1
  O  O223  1  0.39389536  0.09072833  0.53046327  1
  O  O224  1  0.40441091  0.43314510  0.01549156  1
  O  O225  1  0.40008807  0.42810863  0.50905822  1
  O  O226  1  0.40591019  0.76166346  0.02522457  1
  O  O227  1  0.39600269  0.77315588  0.50338391  1
  O  O228  1  0.74247283  0.08747741  0.02031037  1
  O  O229  1  0.73945842  0.09999946  0.52035476  1
  O  O230  1  0.73754440  0.42659023  0.02877265  1
  O  O231  1  0.74499983  0.42039206  0.51883668  1
  O  O232  1  0.72455098  0.75774070  0.02646715  1
  O  O233  1  0.73911161  0.76095930  0.51359713  1
  O  O234  1  0.09638789  0.25688463  0.00704508  1
  O  O235  1  0.10876540  0.26685795  0.52310549  1
  O  O236  1  0.09564536  0.58894434  0.01891794  1
  O  O237  1  0.10428752  0.59502643  0.50724184  1
  O  O238  1  0.10229835  0.93348257  0.02130502  1
  O  O239  1  0.10262261  0.93912045  0.52502522  1
  O  O240  1  0.43171694  0.27348204  0.01508897  1
  O  O241  1  0.41931031  0.25279959  0.53656695  1
  O  O242  1  0.43464834  0.60293701  0.02027626  1
  O  O243  1  0.42725493  0.60537916  0.52107876  1
  O  O244  1  0.42039112  0.91628190  0.02809714  1
  O  O245  1  0.42759647  0.93566604  0.52882721  1
  O  O246  1  0.76086851  0.26552314  0.02453397  1
  O  O247  1  0.76751428  0.24772230  0.51658993  1
  O  O248  1  0.75024997  0.58695364  0.03089162  1
  O  O249  1  0.76438859  0.59676428  0.50721071  1
  O  O250  1  0.75555159  0.92940643  0.02344408  1
  O  O251  1  0.76403753  0.93366399  0.50934552  1
  O  O252  1  0.22930502  0.07019690  0.27808482  1
  O  O253  1  0.23334459  0.06741440  0.77296930  1
  O  O254  1  0.23589722  0.39588991  0.26589116  1
  O  O255  1  0.23892611  0.39769982  0.78046762  1
  O  O256  1  0.23895106  0.73841428  0.27404911  1
  O  O257  1  0.23205413  0.73816443  0.77694163  1
  O  O258  1  0.57992655  0.07982713  0.27336249  1
  O  O259  1  0.57031348  0.07423742  0.77863731  1
  O  O260  1  0.56533530  0.41115788  0.25060143  1
  O  O261  1  0.56377113  0.39838057  0.77638534  1
  O  O262  1  0.56874820  0.73170790  0.25753064  1
  O  O263  1  0.56069306  0.73955380  0.77026129  1
  O  O264  1  0.90609087  0.06716465  0.27853059  1
  O  O265  1  0.90450051  0.06847429  0.77612025  1
  O  O266  1  0.90108227  0.39940071  0.25572603  1
  O  O267  1  0.91732401  0.40839558  0.78198708  1
  O  O268  1  0.90887420  0.73762073  0.27631798  1
  O  O269  1  0.91136580  0.74269299  0.76919879  1
  O  O270  1  0.26408754  0.23146133  0.27296518  1
  O  O271  1  0.26882638  0.22900006  0.76564453  1
  O  O272  1  0.25703253  0.58151810  0.26242917  1
  O  O273  1  0.27209916  0.57463553  0.78073652  1
  O  O274  1  0.25659726  0.90487393  0.28646114  1
  O  O275  1  0.25410694  0.90774920  0.76858859  1
  O  O276  1  0.60008189  0.23636346  0.27219661  1
  O  O277  1  0.59046511  0.23339996  0.78249932  1
  O  O278  1  0.59515088  0.56742852  0.25683339  1
  O  O279  1  0.58261058  0.58009290  0.78328990  1
  O  O280  1  0.59650546  0.90291748  0.25331383  1
  O  O281  1  0.59084571  0.90550378  0.77017194  1
  O  O282  1  0.93261209  0.22458112  0.27318901  1
  O  O283  1  0.92148693  0.23022308  0.76467163  1
  O  O284  1  0.92908179  0.58314527  0.26472435  1
  O  O285  1  0.93957438  0.56599573  0.77747709  1
  O  O286  1  0.93978201  0.91119864  0.27453300  1
  O  O287  1  0.93036206  0.92018040  0.76628539  1
  O  O288  1  0.26660122  0.23157652  0.47132637  1
  O  O289  1  0.26370781  0.24933977  0.98291343  1
  O  O290  1  0.25661184  0.57359365  0.47961908  1
  O  O291  1  0.26211319  0.57240683  0.96913135  1
  O  O292  1  0.26199510  0.90222169  0.47275675  1
  O  O293  1  0.25704624  0.90695513  0.97880945  1
  O  O294  1  0.60521582  0.22437356  0.47941254  1
  O  O295  1  0.59793708  0.24169556  0.97257031  1
  O  O296  1  0.58904861  0.57819840  0.47807919  1
  O  O297  1  0.58954664  0.57059143  0.98071110  1
  O  O298  1  0.58346658  0.90311794  0.48943010  1
  O  O299  1  0.59780940  0.90392851  0.98719082  1
  O  O300  1  0.93256850  0.22314114  0.47509405  1
  O  O301  1  0.91717067  0.23464553  0.98086651  1
  O  O302  1  0.92602654  0.58105576  0.47266668  1
  O  O303  1  0.92777158  0.56531707  0.98281337  1
  O  O304  1  0.94237834  0.90824585  0.47728464  1
  O  O305  1  0.92292042  0.92057744  0.98417806  1
  O  O306  1  0.23535838  0.06220734  0.47897545  1
  O  O307  1  0.23864582  0.06275541  0.98051405  1
  O  O308  1  0.22542187  0.39902517  0.48200407  1
  O  O309  1  0.23870627  0.40743991  0.96903208  1
  O  O310  1  0.22794330  0.74536924  0.47218672  1
  O  O311  1  0.23593593  0.73578973  0.97643276  1
  O  O312  1  0.56358892  0.06625170  0.49839707  1
  O  O313  1  0.58645316  0.07844027  0.97610740  1
  O  O314  1  0.57134773  0.40625172  0.48956845  1
  O  O315  1  0.56268338  0.40040614  0.97849622  1
  O  O316  1  0.55912790  0.74691565  0.48601927  1
  O  O317  1  0.56477821  0.73119345  0.97917457  1
  O  O318  1  0.90759171  0.06532963  0.47002605  1
  O  O319  1  0.90060015  0.06747946  0.97733659  1
  O  O320  1  0.91414247  0.40322869  0.47600760  1
  O  O321  1  0.90360856  0.40994854  0.98180412  1
  O  O322  1  0.90845174  0.74258434  0.46443691  1
  O  O323  1  0.90753465  0.74149627  0.98668291  1
  O  O324  1  0.10375967  0.25544167  0.22835796  1
  O  O325  1  0.11371076  0.26271343  0.73354555  1
  O  O326  1  0.09128169  0.59740705  0.24097002  1
  O  O327  1  0.10965925  0.60306686  0.74405762  1
  O  O328  1  0.09854921  0.93996854  0.22787521  1
  O  O329  1  0.10064375  0.93528588  0.72934142  1
  O  O330  1  0.43084130  0.27336112  0.22339829  1
  O  O331  1  0.42613724  0.25630847  0.73021980  1
  O  O332  1  0.42920824  0.60152973  0.22170504  1
  O  O333  1  0.42765801  0.60878956  0.73836074  1
  O  O334  1  0.41550651  0.91614568  0.22278786  1
  O  O335  1  0.43461696  0.92955893  0.72824099  1
  O  O336  1  0.77646062  0.25726483  0.22002504  1
  O  O337  1  0.75616080  0.24276513  0.73269993  1
  O  O338  1  0.74679956  0.59214420  0.22065819  1
  O  O339  1  0.75878262  0.58779272  0.73598246  1
  O  O340  1  0.76925744  0.93789438  0.22976533  1
  O  O341  1  0.75102938  0.93382519  0.73700839  1
  O  O342  1  0.07151567  0.09675066  0.23242312  1
  O  O343  1  0.08154636  0.09303105  0.73144139  1
  O  O344  1  0.06734580  0.43327041  0.21937040  1
  O  O345  1  0.07698225  0.43035199  0.72131592  1
  O  O346  1  0.06643339  0.76315623  0.23511627  1
  O  O347  1  0.07151187  0.77633957  0.72648821  1
  O  O348  1  0.39852986  0.09430510  0.24512026  1
  O  O349  1  0.40957224  0.09553425  0.72275106  1
  O  O350  1  0.40491705  0.43019733  0.22022196  1
  O  O351  1  0.39228564  0.42547304  0.74573968  1
  O  O352  1  0.40032843  0.75991095  0.22607726  1
  O  O353  1  0.40416624  0.76513565  0.73724753  1
  O  O354  1  0.74882772  0.09659883  0.23014626  1
  O  O355  1  0.72706974  0.09567548  0.73338411  1
  O  O356  1  0.73919959  0.42472548  0.20899360  1
  O  O357  1  0.74429161  0.41763527  0.73569652  1
  O  O358  1  0.72406674  0.76186494  0.22100971  1
  O  O359  1  0.73929223  0.75924576  0.73779318  1
