# generated using pymatgen
data_BaLaInIrO6
_symmetry_space_group_name_H-M   'P 1'
_cell_length_a   17.50842063
_cell_length_b   17.53378390
_cell_length_c   16.48566460
_cell_angle_alpha   90.06647373
_cell_angle_beta   89.98274769
_cell_angle_gamma   90.03824829
_symmetry_Int_Tables_number   1
_chemical_formula_structural   BaLaInIrO6
_chemical_formula_sum   'Ba36 La36 In36 Ir36 O216'
_cell_volume   5060.91068425
_cell_formula_units_Z   36
loop_
 _symmetry_equiv_pos_site_id
 _symmetry_equiv_pos_as_xyz
  1  'x, y, z'
loop_
 _atom_site_type_symbol
 _atom_site_label
 _atom_site_symmetry_multiplicity
 _atom_site_fract_x
 _atom_site_fract_y
 _atom_site_fract_z
 _atom_site_occupancy
  Ba  Ba0  1  0.00017482  0.15781186  0.87350958  1
  Ba  Ba1  1  0.50234391  0.98944618  0.37257362  1
  Ba  Ba2  1  0.49663190  0.34446091  0.12058847  1
  Ba  Ba3  1  0.00058687  0.82291635  0.37575150  1
  Ba  Ba4  1  0.83611574  0.65549724  0.87396160  1
  Ba  Ba5  1  0.17002219  0.66235756  0.37749442  1
  Ba  Ba6  1  0.16351556  0.67229393  0.62586879  1
  Ba  Ba7  1  0.66890660  0.16069801  0.87539628  1
  Ba  Ba8  1  0.49960667  0.34220397  0.62598488  1
  Ba  Ba9  1  0.66750683  0.49288442  0.87045236  1
  Ba  Ba10  1  0.33173768  0.49697002  0.37808413  1
  Ba  Ba11  1  1.00089707  0.17640977  0.62417766  1
  Ba  Ba12  1  1.00091320  0.84054451  0.62900445  1
  Ba  Ba13  1  0.49917848  0.67331170  0.63203213  1
  Ba  Ba14  1  0.16853848  0.99307987  0.37858159  1
  Ba  Ba15  1  0.16763911  0.31951481  0.87085141  1
  Ba  Ba16  1  0.33190188  0.50677775  0.12120217  1
  Ba  Ba17  1  0.82931925  0.67531959  0.62848748  1
  Ba  Ba18  1  0.66533847  0.50854997  0.62571569  1
  Ba  Ba19  1  0.50368260  0.01099335  0.12387103  1
  Ba  Ba20  1  1.00129491  0.84083421  0.12118070  1
  Ba  Ba21  1  0.33052123  0.82806079  0.37564187  1
  Ba  Ba22  1  0.49974370  0.65937269  0.37975996  1
  Ba  Ba23  1  0.66754938  0.82646039  0.87359735  1
  Ba  Ba24  1  0.83481425  0.32865815  0.37878238  1
  Ba  Ba25  1  0.16958597  0.32860451  0.37641960  1
  Ba  Ba26  1  -0.00009741  0.49500059  0.37770569  1
  Ba  Ba27  1  0.50426807  0.99262989  0.87469500  1
  Ba  Ba28  1  0.66892173  0.84453584  0.12581583  1
  Ba  Ba29  1  0.50159849  0.01085987  0.62693447  1
  Ba  Ba30  1  1.00027102  0.17524145  0.12369604  1
  Ba  Ba31  1  0.66150357  0.82357385  0.37646382  1
  Ba  Ba32  1  0.33592747  0.15987979  0.37675759  1
  Ba  Ba33  1  0.67010946  0.17622551  0.12355608  1
  Ba  Ba34  1  0.83198560  0.00860963  0.62216456  1
  Ba  Ba35  1  0.83503787  0.98874220  0.37259721  1
  La  La36  1  0.16502264  0.01365919  0.13312406  1
  La  La37  1  0.66692217  0.51317259  0.12401890  1
  La  La38  1  1.00089928  0.50922448  0.62758763  1
  La  La39  1  0.33405896  0.18119805  0.62644943  1
  La  La40  1  0.32944813  0.15173683  0.87070972  1
  La  La41  1  0.50448732  0.32483830  0.37020935  1
  La  La42  1  0.83628813  0.32377334  0.87675756  1
  La  La43  1  0.67545056  0.18128897  0.63282385  1
  La  La44  1  0.50465574  0.65233316  0.87596611  1
  La  La45  1  0.65432317  0.15464276  0.37625801  1
  La  La46  1  0.82609998  0.01995123  0.12289169  1
  La  La47  1  0.33773343  0.51499738  0.62543860  1
  La  La48  1  0.33745018  0.84889908  0.12943941  1
  La  La49  1  0.33595867  0.18062673  0.12872075  1
  La  La50  1  0.16309665  0.34782556  0.62991942  1
  La  La51  1  0.33514873  0.84880986  0.62371404  1
  La  La52  1  0.66020463  0.49002114  0.37599166  1
  La  La53  1  0.49598250  0.67774410  0.12161670  1
  La  La54  1  0.50514183  0.31693167  0.87684737  1
  La  La55  1  0.16499273  0.34904701  0.12497452  1
  La  La56  1  0.33030357  0.48427783  0.86991199  1
  La  La57  1  0.66928063  0.84735289  0.62339661  1
  La  La58  1  -0.00717285  0.48276029  0.87352803  1
  La  La59  1  -0.00397166  0.14938188  0.37369771  1
  La  La60  1  0.84099510  0.98470559  0.87591998  1
  La  La61  1  -0.00744694  0.81678592  0.86818630  1
  La  La62  1  0.33126696  0.81550728  0.87523946  1
  La  La63  1  0.16784234  0.64775262  0.87209601  1
  La  La64  1  0.15983944  0.01445553  0.62354119  1
  La  La65  1  0.82520537  0.68168647  0.13151125  1
  La  La66  1  0.16643029  0.67871976  0.12684694  1
  La  La67  1  0.83628462  0.65461223  0.37817482  1
  La  La68  1  1.00274178  0.51212753  0.12344873  1
  La  La69  1  0.17144047  0.98649574  0.87485615  1
  La  La70  1  0.82955876  0.34450458  0.12169714  1
  La  La71  1  0.82931231  0.34395568  0.63112589  1
  In  In72  1  0.50041251  0.50233105  0.24653451  1
  In  In73  1  0.50031489  0.83164804  0.24904090  1
  In  In74  1  0.83281016  0.49785366  0.25016339  1
  In  In75  1  0.33299846  0.00290871  0.25052591  1
  In  In76  1  0.66606305  0.66718442  0.00084797  1
  In  In77  1  0.67027741  0.00072705  0.24848074  1
  In  In78  1  0.16318772  0.50145347  0.25004879  1
  In  In79  1  0.33171312  0.33617347  0.25183423  1
  In  In80  1  0.66665723  0.66893997  0.74958787  1
  In  In81  1  0.66965941  0.00184979  -0.00483579  1
  In  In82  1  0.16687153  0.17155957  0.50143045  1
  In  In83  1  0.16580094  0.17009211  0.25083695  1
  In  In84  1  0.49848742  0.83244106  -0.00298704  1
  In  In85  1  0.83745862  0.83419218  0.00092620  1
  In  In86  1  0.16665618  0.50017930  0.50541260  1
  In  In87  1  0.83488094  0.49959175  0.00134775  1
  In  In88  1  0.83143781  0.17010414  0.49878242  1
  In  In89  1  0.66605938  0.00300588  0.50103798  1
  In  In90  1  0.16900320  0.16575804  -0.00153003  1
  In  In91  1  0.00049633  0.33320576  0.50087776  1
  In  In92  1  0.16730186  0.83376686  0.50543323  1
  In  In93  1  -0.00305353  0.66680908  0.50229532  1
  In  In94  1  0.66665815  0.33492233  0.49997295  1
  In  In95  1  0.83708742  0.16352217  0.75287448  1
  In  In96  1  0.16820979  0.83190833  0.75392077  1
  In  In97  1  0.00395377  -0.00152934  0.00105615  1
  In  In98  1  0.00255754  0.66409927  -0.00048326  1
  In  In99  1  0.33178919  0.33200662  -0.00683970  1
  In  In100  1  0.16457875  0.83275910  0.24860125  1
  In  In101  1  0.49972794  0.83136045  0.50403830  1
  In  In102  1  0.33243688  0.66582044  0.24783094  1
  In  In103  1  0.33282743  -0.00040929  -0.00260936  1
  In  In104  1  0.49742755  0.49629824  0.75123044  1
  In  In105  1  0.83170783  0.17452287  0.25261898  1
  In  In106  1  0.49899098  0.16859437  0.50407088  1
  In  In107  1  -0.00178620  -0.00216567  0.50157721  1
  Ir  Ir108  1  0.00083477  0.33480551  0.75220944  1
  Ir  Ir109  1  0.49849957  0.17111385  -0.00083084  1
  Ir  Ir110  1  0.33258761  0.66711081  0.75475981  1
  Ir  Ir111  1  0.16694860  0.49779628  0.75441286  1
  Ir  Ir112  1  0.83607909  0.83022066  0.25268756  1
  Ir  Ir113  1  0.66651154  0.33291914  0.75538773  1
  Ir  Ir114  1  0.16999494  0.82915563  -0.00434598  1
  Ir  Ir115  1  0.00556070  0.00048942  0.75278952  1
  Ir  Ir116  1  0.33170402  0.00194958  0.50777466  1
  Ir  Ir117  1  0.66966731  0.66300434  0.25187886  1
  Ir  Ir118  1  -0.00144334  0.33408476  0.24572635  1
  Ir  Ir119  1  0.66940504  0.66370113  0.49855247  1
  Ir  Ir120  1  0.83615593  0.17283979  -0.00161882  1
  Ir  Ir121  1  -0.00430173  -0.00219030  0.24649110  1
  Ir  Ir122  1  0.49767043  0.50002650  0.49959662  1
  Ir  Ir123  1  0.49966445  0.16771813  0.75107347  1
  Ir  Ir124  1  0.83344208  0.83645398  0.74523676  1
  Ir  Ir125  1  0.32908871  0.66389776  -0.00715418  1
  Ir  Ir126  1  0.00101581  0.66180289  0.75222295  1
  Ir  Ir127  1  0.82970697  0.82960932  0.49921283  1
  Ir  Ir128  1  -0.00038526  0.33477502  0.00164722  1
  Ir  Ir129  1  0.33376766  0.00052927  0.74936390  1
  Ir  Ir130  1  0.66618128  0.00001175  0.74989219  1
  Ir  Ir131  1  0.49804792  0.50142755  -0.00319632  1
  Ir  Ir132  1  0.33434648  0.66624581  0.50775422  1
  Ir  Ir133  1  -0.00583610  0.66491158  0.24731548  1
  Ir  Ir134  1  0.66553057  0.33832609  0.24519561  1
  Ir  Ir135  1  0.33297279  0.33143854  0.74802327  1
  Ir  Ir136  1  0.83589673  0.49504623  0.74953776  1
  Ir  Ir137  1  0.82944744  0.50125856  0.50213642  1
  Ir  Ir138  1  0.50216504  0.17402637  0.24512168  1
  Ir  Ir139  1  0.33512276  0.33530617  0.50559085  1
  Ir  Ir140  1  0.66519115  0.33693219  0.00029760  1
  Ir  Ir141  1  0.17008591  0.16401066  0.74984741  1
  Ir  Ir142  1  0.49454115  0.83511358  0.75056770  1
  Ir  Ir143  1  0.16395236  0.49935313  -0.00507332  1
  O  O144  1  0.30477972  0.32042149  0.11812206  1
  O  O145  1  0.30134586  0.32250692  0.62804938  1
  O  O146  1  0.29815644  0.65625980  0.10829063  1
  O  O147  1  0.31136580  0.65330289  0.63292995  1
  O  O148  1  0.29895824  0.99622357  0.11995632  1
  O  O149  1  0.29943786  0.99199098  0.63054288  1
  O  O150  1  0.64304550  0.33246211  0.12294284  1
  O  O151  1  0.64715670  0.32435707  0.63444688  1
  O  O152  1  0.63704937  0.65434426  0.13151881  1
  O  O153  1  0.65079389  0.66298973  0.61994096  1
  O  O154  1  0.65843671  1.00418357  0.12093519  1
  O  O155  1  0.64924887  0.98942366  0.63180154  1
  O  O156  1  0.96645404  0.33016676  0.12244129  1
  O  O157  1  0.96698280  0.33358312  0.63448850  1
  O  O158  1  0.96326191  0.65686038  0.12707902  1
  O  O159  1  0.97666817  0.65196269  0.63388248  1
  O  O160  1  0.96284046  0.99644520  0.12767995  1
  O  O161  1  0.98172589  1.00038313  0.63552546  1
  O  O162  1  0.20045312  0.15630066  0.12311843  1
  O  O163  1  0.19854826  0.15589616  0.63149706  1
  O  O164  1  0.18218863  0.48883331  0.11388110  1
  O  O165  1  0.20099562  0.48981833  0.63660384  1
  O  O166  1  0.20192077  0.81795333  0.11125684  1
  O  O167  1  0.20056704  0.82855474  0.63232767  1
  O  O168  1  0.52281513  0.17342698  0.12104582  1
  O  O169  1  0.53616827  0.17098193  0.63320391  1
  O  O170  1  0.53118054  0.49895567  0.11621412  1
  O  O171  1  0.51347599  0.49994587  0.62078663  1
  O  O172  1  0.52072491  0.81110967  0.12236757  1
  O  O173  1  0.52864470  0.82915090  0.63427106  1
  O  O174  1  0.85072445  0.16763845  0.11878751  1
  O  O175  1  0.85010974  0.17299802  0.62877689  1
  O  O176  1  0.86680304  0.48359478  0.12544654  1
  O  O177  1  0.86146182  0.49006424  0.62549390  1
  O  O178  1  0.85468926  0.81822700  0.13319536  1
  O  O179  1  0.85201479  0.83073861  0.62192173  1
  O  O180  1  0.13109809  0.17439066  0.37536064  1
  O  O181  1  0.14709901  0.16622266  0.86787688  1
  O  O182  1  0.15089753  0.49954480  0.37829409  1
  O  O183  1  0.13009488  0.50842395  0.87450608  1
  O  O184  1  0.15375511  0.83380893  0.37673183  1
  O  O185  1  0.13136677  0.84296814  0.87893417  1
  O  O186  1  0.48563355  0.18187601  0.36618911  1
  O  O187  1  0.46694535  0.17352021  0.87564140  1
  O  O188  1  0.48517816  0.50139453  0.37971530  1
  O  O189  1  0.46659483  0.51141976  0.87810967  1
  O  O190  1  0.48273140  0.82686580  0.37740823  1
  O  O191  1  0.46369674  0.83893761  0.86843779  1
  O  O192  1  0.79037071  0.17745872  0.37472131  1
  O  O193  1  0.81853012  0.18435661  0.87857030  1
  O  O194  1  0.80161567  0.50795759  0.37964854  1
  O  O195  1  0.81812119  0.49291883  0.87129776  1
  O  O196  1  0.81018238  0.82872413  0.37577651  1
  O  O197  1  0.81833732  0.84494337  0.86556622  1
  O  O198  1  0.01754319  0.00255013  0.36699367  1
  O  O199  1  0.03509017  0.00317150  0.87084483  1
  O  O200  1  0.02172122  0.34296247  0.36511155  1
  O  O201  1  0.02414219  0.34684780  0.87786754  1
  O  O202  1  0.01633043  0.66339420  0.36760228  1
  O  O203  1  0.03104950  0.67060154  0.87116625  1
  O  O204  1  0.35282930  0.00347390  0.38689505  1
  O  O205  1  0.35917587  0.01353045  0.86682082  1
  O  O206  1  0.36536519  0.33997229  0.38609869  1
  O  O207  1  0.36595270  0.34253341  0.86588744  1
  O  O208  1  0.34800625  0.66871457  0.38615232  1
  O  O209  1  0.36710018  0.67562610  0.87395883  1
  O  O210  1  0.68536121  0.01711523  0.37461528  1
  O  O211  1  0.70175987  0.00124084  0.86764211  1
  O  O212  1  0.68488982  0.35037235  0.36543295  1
  O  O213  1  0.69736355  0.33823029  0.87867204  1
  O  O214  1  0.70042312  0.66350956  0.37406122  1
  O  O215  1  0.68691261  0.66590182  0.87456140  1
  O  O216  1  0.08185785  0.08493909  0.02675006  1
  O  O217  1  0.07832568  0.09066925  0.51814227  1
  O  O218  1  0.06626859  0.43210625  0.02373860  1
  O  O219  1  0.07325735  0.42485796  0.53797088  1
  O  O220  1  0.08564535  0.75532273  0.02195457  1
  O  O221  1  0.07380538  0.75644188  0.51867968  1
  O  O222  1  0.40522878  0.10453745  0.02069966  1
  O  O223  1  0.39870220  0.09677927  0.52940422  1
  O  O224  1  0.40680788  0.43204853  0.00645008  1
  O  O225  1  0.40098033  0.43398628  0.52662081  1
  O  O226  1  0.38964329  0.75833349  0.01709367  1
  O  O227  1  0.40186817  0.75898220  0.53137951  1
  O  O228  1  0.74901034  0.10111724  0.01202313  1
  O  O229  1  0.72892427  0.10493640  0.52850186  1
  O  O230  1  0.73520830  0.42650815  0.02828073  1
  O  O231  1  0.74081774  0.43131962  0.51702386  1
  O  O232  1  0.74698363  0.75584887  0.02069120  1
  O  O233  1  0.73295198  0.76235995  0.52188152  1
  O  O234  1  0.09557828  0.26983439  0.02167437  1
  O  O235  1  0.10277209  0.27006086  0.53189435  1
  O  O236  1  0.10070519  0.59260617  0.02264325  1
  O  O237  1  0.08010515  0.58201170  0.52618110  1
  O  O238  1  0.11102172  0.92523241  0.02348798  1
  O  O239  1  0.09663491  0.93107582  0.52806417  1
  O  O240  1  0.43007687  0.26036819  0.01002904  1
  O  O241  1  0.42177512  0.26215988  0.52175352  1
  O  O242  1  0.43132513  0.60031993  0.01788522  1
  O  O243  1  0.42377927  0.59140773  0.52429326  1
  O  O244  1  0.41805571  0.91978646  0.02446687  1
  O  O245  1  0.41788831  0.92694296  0.52604086  1
  O  O246  1  0.76861690  0.27274863  0.01618970  1
  O  O247  1  0.76369113  0.27038949  0.53067504  1
  O  O248  1  0.76058025  0.59094942  0.03408703  1
  O  O249  1  0.76212718  0.59668668  0.51260581  1
  O  O250  1  0.77755428  0.93874248  0.01281153  1
  O  O251  1  0.75921266  0.91827454  0.51652340  1
  O  O252  1  0.23429507  0.06964722  0.26303056  1
  O  O253  1  0.23739425  0.06802032  0.77477217  1
  O  O254  1  0.22811912  0.39938117  0.24881004  1
  O  O255  1  0.24388826  0.40867839  0.77713336  1
  O  O256  1  0.23042068  0.73105062  0.24934552  1
  O  O257  1  0.24175374  0.73477398  0.78508626  1
  O  O258  1  0.57608125  0.08869738  0.26474228  1
  O  O259  1  0.57582363  0.07644713  0.77226017  1
  O  O260  1  0.57225550  0.40255159  0.27111210  1
  O  O261  1  0.57192450  0.40051536  0.77606221  1
  O  O262  1  0.57946991  0.72844253  0.26557764  1
  O  O263  1  0.56037595  0.74342875  0.77736179  1
  O  O264  1  0.91343310  0.07581494  0.26774865  1
  O  O265  1  0.90780252  0.06381455  0.77686434  1
  O  O266  1  0.90494182  0.39829588  0.26265943  1
  O  O267  1  0.90706908  0.40283703  0.77710139  1
  O  O268  1  0.89770302  0.72961589  0.27238946  1
  O  O269  1  0.91217975  0.74364018  0.77376648  1
  O  O270  1  0.26719581  0.23564111  0.26255576  1
  O  O271  1  0.26935331  0.23037405  0.76834795  1
  O  O272  1  0.25989665  0.57138420  0.25843110  1
  O  O273  1  0.26048780  0.57101633  0.78189361  1
  O  O274  1  0.26300040  0.90113648  0.25089954  1
  O  O275  1  0.26750576  0.90803059  0.78025990  1
  O  O276  1  0.59875095  0.24393969  0.27332499  1
  O  O277  1  0.58696122  0.24574199  0.78028130  1
  O  O278  1  0.60972569  0.56439559  0.26797602  1
  O  O279  1  0.58161308  0.58121685  0.76785198  1
  O  O280  1  0.59406482  0.90850250  0.26119299  1
  O  O281  1  0.59247724  0.90307248  0.76678842  1
  O  O282  1  0.93757464  0.23700877  0.27246401  1
  O  O283  1  0.92643066  0.25042971  0.77487061  1
  O  O284  1  0.92351037  0.57688852  0.26893593  1
  O  O285  1  0.93357207  0.56210084  0.77170650  1
  O  O286  1  0.92846050  0.90027176  0.26783063  1
  O  O287  1  0.93306049  0.90746032  0.77631454  1
  O  O288  1  0.26895002  0.24255858  0.48966716  1
  O  O289  1  0.26896122  0.23094618  0.97018987  1
  O  O290  1  0.26433510  0.57494120  0.49840652  1
  O  O291  1  0.25842248  0.56795434  0.96260439  1
  O  O292  1  0.26566205  0.91040860  0.49411360  1
  O  O293  1  0.25853041  0.89692913  0.96510503  1
  O  O294  1  0.59150327  0.24542929  0.47161202  1
  O  O295  1  0.58883390  0.24841835  0.97278313  1
  O  O296  1  0.60060308  0.56635017  0.47688072  1
  O  O297  1  0.58819121  0.56900297  0.98061105  1
  O  O298  1  0.59493081  0.90476219  0.49730342  1
  O  O299  1  0.59297321  0.90820535  0.98273072  1
  O  O300  1  0.93609849  0.23557701  0.47136362  1
  O  O301  1  0.92896138  0.24461609  0.97802546  1
  O  O302  1  0.91524796  0.57415351  0.48334757  1
  O  O303  1  0.93894172  0.56113158  0.97897207  1
  O  O304  1  0.92082730  0.89919946  0.48669401  1
  O  O305  1  0.93587736  0.90494228  0.96779751  1
  O  O306  1  0.24348123  0.07216354  0.49399518  1
  O  O307  1  0.23964712  0.06858828  0.96350675  1
  O  O308  1  0.24497182  0.40268353  0.49589106  1
  O  O309  1  0.23746587  0.41234548  0.97379467  1
  O  O310  1  0.24859090  0.73749476  0.49410103  1
  O  O311  1  0.23370089  0.72954305  0.96479269  1
  O  O312  1  0.57065307  0.07823242  0.47864444  1
  O  O313  1  0.57269430  0.08522377  0.98338201  1
  O  O314  1  0.56798707  0.40869584  0.47642391  1
  O  O315  1  0.56582948  0.40436002  0.97273907  1
  O  O316  1  0.58003042  0.73132065  0.49001621  1
  O  O317  1  0.56054815  0.72804777  0.97945245  1
  O  O318  1  0.90977291  0.07726778  0.47823900  1
  O  O319  1  0.90055997  0.07533055  0.97913501  1
  O  O320  1  0.90109976  0.41194999  0.49257403  1
  O  O321  1  0.90466039  0.39785534  0.97735231  1
  O  O322  1  0.89506786  0.73529362  0.47972014  1
  O  O323  1  0.91719988  0.74501718  0.97539257  1
  O  O324  1  0.09399389  0.27167884  0.22047745  1
  O  O325  1  0.10012288  0.26389042  0.72700584  1
  O  O326  1  0.08400859  0.59427056  0.21646291  1
  O  O327  1  0.08966302  0.58409529  0.72803096  1
  O  O328  1  0.08893065  0.92939580  0.22149875  1
  O  O329  1  0.10170319  0.93642828  0.73280626  1
  O  O330  1  0.43078518  0.26125369  0.23326904  1
  O  O331  1  0.42185655  0.25484625  0.72348410  1
  O  O332  1  0.43592944  0.60191843  0.22632694  1
  O  O333  1  0.41576983  0.59093699  0.73668732  1
  O  O334  1  0.42306783  0.92599834  0.22720150  1
  O  O335  1  0.42072522  0.92532081  0.72134407  1
  O  O336  1  0.76258195  0.27653274  0.22420427  1
  O  O337  1  0.75693104  0.26250508  0.73524708  1
  O  O338  1  0.76206857  0.59737255  0.22563099  1
  O  O339  1  0.76202535  0.58292790  0.73603106  1
  O  O340  1  0.77477608  0.92476075  0.22701356  1
  O  O341  1  0.75635370  0.92471661  0.72311467  1
  O  O342  1  0.06946797  0.08558570  0.22889084  1
  O  O343  1  0.07759567  0.09204216  0.72541508  1
  O  O344  1  0.06155317  0.42859594  0.21881634  1
  O  O345  1  0.07338471  0.42756230  0.72551538  1
  O  O346  1  0.06785051  0.75064245  0.22605674  1
  O  O347  1  0.07065109  0.75468958  0.73932979  1
  O  O348  1  0.40880792  0.10543759  0.22479057  1
  O  O349  1  0.40151059  0.09882350  0.72522697  1
  O  O350  1  0.40711593  0.42762663  0.23458991  1
  O  O351  1  0.39465701  0.42909268  0.72888180  1
  O  O352  1  0.40196590  0.75976859  0.21772861  1
  O  O353  1  0.39500595  0.76865181  0.73170198  1
  O  O354  1  0.75258210  0.08882804  0.22595261  1
  O  O355  1  0.73301505  0.09369241  0.73005767  1
  O  O356  1  0.72913947  0.43362288  0.22261573  1
  O  O357  1  0.74647775  0.41839117  0.72451690  1
  O  O358  1  0.74272828  0.75587485  0.22976453  1
  O  O359  1  0.73821628  0.76894743  0.72663725  1
