# generated using pymatgen
data_BaLaInIrO6
_symmetry_space_group_name_H-M   'P 1'
_cell_length_a   17.50712120
_cell_length_b   17.54081865
_cell_length_c   16.49380021
_cell_angle_alpha   90.06031526
_cell_angle_beta   89.96872243
_cell_angle_gamma   89.97753786
_symmetry_Int_Tables_number   1
_chemical_formula_structural   BaLaInIrO6
_chemical_formula_sum   'Ba36 La36 In36 Ir36 O216'
_cell_volume   5065.06458611
_cell_formula_units_Z   36
loop_
 _symmetry_equiv_pos_site_id
 _symmetry_equiv_pos_as_xyz
  1  'x, y, z'
loop_
 _atom_site_type_symbol
 _atom_site_label
 _atom_site_symmetry_multiplicity
 _atom_site_fract_x
 _atom_site_fract_y
 _atom_site_fract_z
 _atom_site_occupancy
  Ba  Ba0  1  0.16753191  0.65668213  0.37544521  1
  Ba  Ba1  1  0.49614896  0.00655654  0.13170785  1
  Ba  Ba2  1  -0.00155226  0.82663666  0.37584397  1
  Ba  Ba3  1  0.66805367  0.50972555  0.12323312  1
  Ba  Ba4  1  0.16389633  0.01091504  0.62426415  1
  Ba  Ba5  1  -0.00013273  0.48972141  0.87459592  1
  Ba  Ba6  1  0.16905295  0.67205274  0.62739974  1
  Ba  Ba7  1  0.16480322  0.32320534  0.87309460  1
  Ba  Ba8  1  0.83524959  0.99462108  0.87364345  1
  Ba  Ba9  1  0.16808432  0.00609734  0.12336431  1
  Ba  Ba10  1  0.50196174  0.34051991  0.12115504  1
  Ba  Ba11  1  0.16863240  0.34257192  0.62752093  1
  Ba  Ba12  1  0.50470389  0.65676928  0.37448682  1
  Ba  Ba13  1  0.67145467  0.17842025  0.62452888  1
  Ba  Ba14  1  0.99801081  0.84181930  0.12684600  1
  Ba  Ba15  1  0.99787524  0.17449067  0.12117420  1
  Ba  Ba16  1  0.49740397  0.32640554  0.87444496  1
  Ba  Ba17  1  0.83326524  0.33109451  0.37440828  1
  Ba  Ba18  1  0.66659294  0.50702522  0.62807677  1
  Ba  Ba19  1  0.32982737  0.16335726  0.87745187  1
  Ba  Ba20  1  0.66113691  0.15609036  0.87291777  1
  Ba  Ba21  1  0.83648744  0.66179259  0.37322132  1
  Ba  Ba22  1  0.16521765  0.99613964  0.87421487  1
  Ba  Ba23  1  0.83141580  0.00995441  0.62152787  1
  Ba  Ba24  1  0.16576843  0.67322960  0.12665781  1
  Ba  Ba25  1  0.83235232  0.00726102  0.12440028  1
  Ba  Ba26  1  0.83392736  0.67723164  0.12657314  1
  Ba  Ba27  1  0.33723787  0.50895543  0.12122555  1
  Ba  Ba28  1  0.83764957  0.65776204  0.87751840  1
  Ba  Ba29  1  0.16572736  0.65907004  0.87846041  1
  Ba  Ba30  1  0.32876520  0.82711105  0.87703694  1
  Ba  Ba31  1  -0.00149348  0.16126156  0.87435007  1
  Ba  Ba32  1  0.33216783  0.17607547  0.62475203  1
  Ba  Ba33  1  0.32898204  0.15168930  0.37428498  1
  Ba  Ba34  1  0.00148743  0.82894147  0.87746992  1
  Ba  Ba35  1  0.66530023  0.81899311  0.37674158  1
  La  La36  1  1.00580837  0.51141741  0.12609675  1
  La  La37  1  0.50617413  0.65364164  0.87684992  1
  La  La38  1  0.33617252  0.85277168  0.62524759  1
  La  La39  1  -0.00146400  0.15118426  0.37182565  1
  La  La40  1  -0.00393816  0.49072292  0.37625197  1
  La  La41  1  0.99797501  0.84346402  0.63680223  1
  La  La42  1  0.32906268  0.48093461  0.37411953  1
  La  La43  1  0.50042755  0.97891358  0.37828157  1
  La  La44  1  0.49752395  0.68712220  0.12989041  1
  La  La45  1  0.66748919  0.84585642  0.62337438  1
  La  La46  1  0.16816638  0.31249229  0.37517280  1
  La  La47  1  0.67077785  0.49762819  0.36948440  1
  La  La48  1  0.49334814  0.68442439  0.62231412  1
  La  La49  1  0.83980133  0.98556762  0.36862191  1
  La  La50  1  0.49422673  0.34602608  0.62267773  1
  La  La51  1  1.00443000  0.50897642  0.62673872  1
  La  La52  1  0.67390199  0.18557527  0.12415409  1
  La  La53  1  0.32794560  0.81875906  0.37545403  1
  La  La54  1  0.82808583  0.35067061  0.11900128  1
  La  La55  1  0.32790644  0.83717162  0.12101655  1
  La  La56  1  0.66428010  0.82247246  0.87789054  1
  La  La57  1  0.83253841  0.34521342  0.62577956  1
  La  La58  1  0.32577376  0.48330376  0.87441537  1
  La  La59  1  0.66830955  0.48789732  0.87493938  1
  La  La60  1  0.49315905  0.01486457  0.62522919  1
  La  La61  1  0.82921715  0.68235912  0.62792207  1
  La  La62  1  1.00602567  0.18621457  0.62541768  1
  La  La63  1  0.50699180  0.31878651  0.37046104  1
  La  La64  1  0.33579611  0.50614688  0.62972976  1
  La  La65  1  0.16080074  0.34301253  0.11928394  1
  La  La66  1  0.66036646  0.14630648  0.37165547  1
  La  La67  1  0.50662476  0.98533909  0.87350527  1
  La  La68  1  0.33444719  0.17834438  0.12772619  1
  La  La69  1  0.83977635  0.31907438  0.87450537  1
  La  La70  1  0.16965471  0.98218491  0.37370455  1
  La  La71  1  0.67625285  0.84473908  0.12690644  1
  In  In72  1  0.66327322  0.66260244  0.50571486  1
  In  In73  1  0.50139013  0.16666338  0.49712829  1
  In  In74  1  0.33121167  0.33377141  0.00217147  1
  In  In75  1  0.83262410  0.16894356  0.25162150  1
  In  In76  1  0.83198075  0.16754202  -0.00006318  1
  In  In77  1  0.49833604  0.50106118  0.24808780  1
  In  In78  1  -0.00323695  0.66446906  0.75085024  1
  In  In79  1  0.33667085  0.00127458  0.00287246  1
  In  In80  1  0.00073810  0.33213470  0.24826709  1
  In  In81  1  0.50026127  0.83084706  0.75043024  1
  In  In82  1  0.66336772  0.00134308  0.00322826  1
  In  In83  1  0.16921238  0.83233485  0.74856166  1
  In  In84  1  0.50255564  0.50256710  0.75066320  1
  In  In85  1  0.33303120  0.33055968  0.25088971  1
  In  In86  1  0.83054532  0.83274290  0.50121042  1
  In  In87  1  -0.00144382  0.66622121  0.50309172  1
  In  In88  1  0.33598061  0.66409398  0.25013024  1
  In  In89  1  0.33658095  0.66441786  -0.00329355  1
  In  In90  1  0.66821442  0.33590275  0.25119478  1
  In  In91  1  0.66700758  0.33548628  0.50079534  1
  In  In92  1  0.83283962  0.83491752  -0.00209637  1
  In  In93  1  0.16574244  0.83201141  0.00080228  1
  In  In94  1  0.16574913  0.83127062  0.50400040  1
  In  In95  1  0.83317071  0.16986278  0.49611862  1
  In  In96  1  0.66734896  0.33509748  -0.00457314  1
  In  In97  1  0.16653264  0.49563558  0.25341704  1
  In  In98  1  0.83562340  0.50336555  0.50402031  1
  In  In99  1  0.33534681  0.00410786  0.75269954  1
  In  In100  1  0.33431613  0.66174146  0.49965739  1
  In  In101  1  0.50057710  0.16959061  0.74875615  1
  In  In102  1  0.66652970  0.66611951  0.00155432  1
  In  In103  1  -0.00218245  0.00398237  0.74867835  1
  In  In104  1  0.33346104  0.33250951  0.49899042  1
  In  In105  1  -0.00014201  0.00144956  0.49742677  1
  In  In106  1  0.49909005  0.16302114  0.00301394  1
  In  In107  1  0.66397437  -0.00005972  0.50091429  1
  Ir  Ir108  1  0.00126544  0.00235118  0.00171848  1
  Ir  Ir109  1  0.49593704  0.49796713  0.49915616  1
  Ir  Ir110  1  0.50150952  0.83610655  0.25025010  1
  Ir  Ir111  1  0.16514633  0.49555059  0.50059256  1
  Ir  Ir112  1  0.83662953  0.50095202  -0.00026865  1
  Ir  Ir113  1  0.67045565  0.33679377  0.74890046  1
  Ir  Ir114  1  0.16427167  0.17211623  0.74695739  1
  Ir  Ir115  1  0.00528130  0.33433301  0.49907600  1
  Ir  Ir116  1  0.83263925  0.16961901  0.74639206  1
  Ir  Ir117  1  0.33142370  0.33757677  0.74787213  1
  Ir  Ir118  1  -0.00047235  0.66230548  0.00328095  1
  Ir  Ir119  1  0.33458765  -0.00344869  0.25597268  1
  Ir  Ir120  1  0.16728353  0.83324051  0.25266591  1
  Ir  Ir121  1  0.00460821  0.00135655  0.24889873  1
  Ir  Ir122  1  0.49672007  0.83277879  0.50105321  1
  Ir  Ir123  1  0.50132862  0.16145518  0.25086818  1
  Ir  Ir124  1  0.83181305  0.83488629  0.24918984  1
  Ir  Ir125  1  0.33874508  0.66306768  0.74805504  1
  Ir  Ir126  1  0.17044348  0.49848644  0.74802584  1
  Ir  Ir127  1  0.66330324  -0.00188832  0.25271470  1
  Ir  Ir128  1  -0.00324946  0.33611012  -0.00195072  1
  Ir  Ir129  1  0.16191678  0.16748729  0.49810707  1
  Ir  Ir130  1  0.66649192  -0.00510686  0.75058302  1
  Ir  Ir131  1  0.66616788  0.66571937  0.24988508  1
  Ir  Ir132  1  0.66643942  0.66647981  0.75166998  1
  Ir  Ir133  1  0.00167807  0.66806325  0.24959110  1
  Ir  Ir134  1  0.16539637  0.49784682  -0.00337204  1
  Ir  Ir135  1  0.16493743  0.16617170  0.00067268  1
  Ir  Ir136  1  0.83663642  0.50526514  0.24843418  1
  Ir  Ir137  1  0.50082189  0.50369430  -0.00540770  1
  Ir  Ir138  1  0.50253858  0.83213116  0.00259594  1
  Ir  Ir139  1  0.83275089  0.49744397  0.75291921  1
  Ir  Ir140  1  0.16650543  0.16229733  0.24864968  1
  Ir  Ir141  1  0.33340047  -0.00119602  0.49584855  1
  Ir  Ir142  1  0.82690431  0.83259068  0.74844144  1
  Ir  Ir143  1  -0.00500748  0.33507223  0.74821483  1
  O  O144  1  0.29764551  0.32775173  0.12723202  1
  O  O145  1  0.32051291  0.34827265  0.62749832  1
  O  O146  1  0.31853440  0.66777083  0.12477843  1
  O  O147  1  0.31712444  0.64509733  0.62888663  1
  O  O148  1  0.32035587  0.97762171  0.13824067  1
  O  O149  1  0.31477374  0.99123262  0.61526301  1
  O  O150  1  0.65183185  0.33239022  0.12423218  1
  O  O151  1  0.63243258  0.33589144  0.62989422  1
  O  O152  1  0.63657702  0.66572447  0.12951339  1
  O  O153  1  0.62931045  0.65872224  0.63535395  1
  O  O154  1  0.64355883  0.98175679  0.13410298  1
  O  O155  1  0.63247159  0.98909884  0.63141705  1
  O  O156  1  0.96639313  0.33416060  0.11789028  1
  O  O157  1  0.97010683  0.32484877  0.62322687  1
  O  O158  1  0.98227744  0.65121973  0.12787570  1
  O  O159  1  0.96412689  0.64457619  0.62818750  1
  O  O160  1  0.98201345  1.00099555  0.12658874  1
  O  O161  1  0.98038221  0.98375975  0.62251522  1
  O  O162  1  0.19656395  0.16198681  0.12544595  1
  O  O163  1  0.18462617  0.17205656  0.62272000  1
  O  O164  1  0.18567506  0.48996260  0.11759722  1
  O  O165  1  0.20045070  0.49606498  0.62405457  1
  O  O166  1  0.19106266  0.83268608  0.13315943  1
  O  O167  1  0.20427796  0.83127266  0.62486166  1
  O  O168  1  0.53836733  0.15774723  0.13514678  1
  O  O169  1  0.52470611  0.15336350  0.62314027  1
  O  O170  1  0.51898452  0.49564944  0.11360839  1
  O  O171  1  0.51479616  0.48435960  0.62124943  1
  O  O172  1  0.53629534  0.82741693  0.12623350  1
  O  O173  1  0.52957527  0.82514713  0.62099044  1
  O  O174  1  0.84762032  0.16311265  0.12669570  1
  O  O175  1  0.86662406  0.16838499  0.62728141  1
  O  O176  1  0.86735361  0.49139108  0.12287968  1
  O  O177  1  0.86643327  0.48462389  0.63433153  1
  O  O178  1  0.84491547  0.83534515  0.12917453  1
  O  O179  1  0.85975518  0.82817946  0.63120218  1
  O  O180  1  0.13502556  0.17197912  0.37390036  1
  O  O181  1  0.14478686  0.16925719  0.87472470  1
  O  O182  1  0.13129971  0.50028011  0.38279883  1
  O  O183  1  0.14687998  0.50157756  0.87214052  1
  O  O184  1  0.15087442  0.83794972  0.37197861  1
  O  O185  1  0.15347950  0.83290813  0.87437248  1
  O  O186  1  0.47633070  0.17844715  0.36792448  1
  O  O187  1  0.48257028  0.17132127  0.87372323  1
  O  O188  1  0.46583668  0.50530608  0.38168255  1
  O  O189  1  0.46781060  0.51411552  0.87632669  1
  O  O190  1  0.46644876  0.83775052  0.37589186  1
  O  O191  1  0.48025885  0.84085561  0.88109750  1
  O  O192  1  0.79340327  0.17796792  0.37175171  1
  O  O193  1  0.81134590  0.17731365  0.86781496  1
  O  O194  1  0.80804946  0.50661415  0.36947452  1
  O  O195  1  0.80284329  0.50425886  0.87602515  1
  O  O196  1  0.81415630  0.83858090  0.36934440  1
  O  O197  1  0.79950077  0.83394305  0.86816218  1
  O  O198  1  0.03348810  0.01026461  0.36711767  1
  O  O199  1  0.01477272  0.00198469  0.88001993  1
  O  O200  1  0.03519031  0.34914597  0.37953120  1
  O  O201  1  0.01831496  0.33573623  0.87231506  1
  O  O202  1  0.01713339  0.67124019  0.37010858  1
  O  O203  1  0.01264029  0.66496892  0.88169747  1
  O  O204  1  0.36254012  0.00140636  0.37630832  1
  O  O205  1  0.37072228  0.00461018  0.87794511  1
  O  O206  1  0.36885772  0.33923060  0.37606754  1
  O  O207  1  0.34585493  0.33714768  0.87009124  1
  O  O208  1  0.35661203  0.68202970  0.37493068  1
  O  O209  1  0.36987812  0.67227459  0.86748825  1
  O  O210  1  0.69773389  0.00553111  0.36926960  1
  O  O211  1  0.68470447  -0.00483259  0.86900823  1
  O  O212  1  0.68476858  0.36057805  0.37533140  1
  O  O213  1  0.70237440  0.34440314  0.86803179  1
  O  O214  1  0.68332701  0.66214753  0.37249257  1
  O  O215  1  0.68871153  0.68197458  0.87010424  1
  O  O216  1  0.07539238  0.09318352  0.01523121  1
  O  O217  1  0.06374805  0.10823118  0.51900842  1
  O  O218  1  0.07081855  0.42643622  0.02564312  1
  O  O219  1  0.06855731  0.43183631  0.52651276  1
  O  O220  1  0.07153991  0.74965410  0.01783654  1
  O  O221  1  0.06350938  0.76659733  0.53079446  1
  O  O222  1  0.39873535  0.09800058  0.03741810  1
  O  O223  1  0.40494722  0.08660328  0.51648510  1
  O  O224  1  0.40905956  0.43246132  0.00427616  1
  O  O225  1  0.39676672  0.44157414  0.51749341  1
  O  O226  1  0.41294535  0.76435450  0.03038224  1
  O  O227  1  0.40507675  0.76630453  0.52902986  1
  O  O228  1  0.72742803  0.10378767  0.02082762  1
  O  O229  1  0.73733594  0.09490888  0.51218574  1
  O  O230  1  0.74709060  0.43202439  0.01339840  1
  O  O231  1  0.74597264  0.42685853  0.52218341  1
  O  O232  1  0.73043205  0.76680604  0.01631583  1
  O  O233  1  0.73233455  0.75983828  0.53136660  1
  O  O234  1  0.09274166  0.26676958  0.02333642  1
  O  O235  1  0.09864014  0.26535662  0.51564524  1
  O  O236  1  0.08921486  0.58439551  0.02305516  1
  O  O237  1  0.09615119  0.58448895  0.52404171  1
  O  O238  1  0.08608635  0.92708014  0.01398936  1
  O  O239  1  0.10113463  0.93366948  0.50096592  1
  O  O240  1  0.41726762  0.25404339  0.02512403  1
  O  O241  1  0.43459271  0.26734594  0.52261709  1
  O  O242  1  0.44223829  0.60168287  0.01612827  1
  O  O243  1  0.43885837  0.59620753  0.52525936  1
  O  O244  1  0.43359568  0.91926473  0.02040357  1
  O  O245  1  0.43070321  0.93215681  0.52103282  1
  O  O246  1  0.76948631  0.27148379  0.01685331  1
  O  O247  1  0.76979528  0.26991958  0.52706106  1
  O  O248  1  0.76487050  0.59068280  0.01610370  1
  O  O249  1  0.76643758  0.60013772  0.53029586  1
  O  O250  1  0.75398649  0.92479464  0.01695204  1
  O  O251  1  0.74703616  0.91766080  0.52397927  1
  O  O252  1  0.23376915  0.06118333  0.27152773  1
  O  O253  1  0.23787154  0.08459808  0.76170115  1
  O  O254  1  0.23403929  0.39819391  0.28524993  1
  O  O255  1  0.24351501  0.41156902  0.77255445  1
  O  O256  1  0.24140827  0.74722657  0.26933374  1
  O  O257  1  0.24783965  0.72742044  0.76440983  1
  O  O258  1  0.56938228  0.06578181  0.28311731  1
  O  O259  1  0.57236831  0.05974315  0.77016039  1
  O  O260  1  0.56772197  0.40448890  0.27299943  1
  O  O261  1  0.58493342  0.41265781  0.77459765  1
  O  O262  1  0.56777295  0.73685676  0.26032800  1
  O  O263  1  0.57107475  0.73211857  0.77437370  1
  O  O264  1  0.91036380  0.06850981  0.27487870  1
  O  O265  1  0.90244631  0.08061430  0.76362093  1
  O  O266  1  0.91179932  0.41992267  0.27027294  1
  O  O267  1  0.89751697  0.40120206  0.77430258  1
  O  O268  1  0.90859554  0.74445806  0.26489344  1
  O  O269  1  0.89693734  0.74261461  0.76075763  1
  O  O270  1  0.25661231  0.23119495  0.26748801  1
  O  O271  1  0.25952335  0.24457804  0.76154664  1
  O  O272  1  0.26529441  0.56440410  0.27491166  1
  O  O273  1  0.27371336  0.56329833  0.76940236  1
  O  O274  1  0.26501893  0.90138433  0.27958006  1
  O  O275  1  0.26688406  0.90759198  0.75761799  1
  O  O276  1  0.59514999  0.23055954  0.27339452  1
  O  O277  1  0.59844109  0.25059473  0.76594696  1
  O  O278  1  0.60359468  0.56824264  0.26976452  1
  O  O279  1  0.60093696  0.57445412  0.78273148  1
  O  O280  1  0.59350895  0.90672669  0.27768146  1
  O  O281  1  0.60202913  0.90030847  0.77255791  1
  O  O282  1  0.93582622  0.23605690  0.27794576  1
  O  O283  1  0.92136397  0.24446900  0.77046013  1
  O  O284  1  0.93431242  0.57227425  0.27032945  1
  O  O285  1  0.92030775  0.56636936  0.76901758  1
  O  O286  1  0.92326871  0.91299582  0.27346293  1
  O  O287  1  0.91671874  0.90280025  0.76506847  1
  O  O288  1  0.25338997  0.23891577  0.47902154  1
  O  O289  1  0.24934651  0.23942565  0.99083847  1
  O  O290  1  0.26284502  0.55812955  0.47877273  1
  O  O291  1  0.26091781  0.56452061  0.97351137  1
  O  O292  1  0.27023812  0.90513962  0.47400393  1
  O  O293  1  0.26358106  0.90707506  0.99936073  1
  O  O294  1  0.59986772  0.23775375  0.46610277  1
  O  O295  1  0.59715816  0.23700128  0.99574211  1
  O  O296  1  0.59680280  0.55623908  0.47849297  1
  O  O297  1  0.59460870  0.57098383  0.96785990  1
  O  O298  1  0.58377203  0.90387432  0.47868486  1
  O  O299  1  0.59532815  0.89562045  0.97772163  1
  O  O300  1  0.94373017  0.23869453  0.47644237  1
  O  O301  1  0.92547708  0.24941005  0.97706386  1
  O  O302  1  0.93772970  0.56170655  0.47894203  1
  O  O303  1  0.93118997  0.56637546  0.99301204  1
  O  O304  1  0.91470319  0.91678618  0.47347187  1
  O  O305  1  0.92633130  0.91576089  0.98829437  1
  O  O306  1  0.23234468  0.06475487  0.47505259  1
  O  O307  1  0.23753773  0.07898702  0.98467663  1
  O  O308  1  0.23192613  0.40373803  0.47060272  1
  O  O309  1  0.23792486  0.41096089  0.97986306  1
  O  O310  1  0.24374048  0.74037399  0.48133409  1
  O  O311  1  0.24569126  0.74075047  0.98941912  1
  O  O312  1  0.56824296  0.06755407  0.46843405  1
  O  O313  1  0.56036069  0.05851419  0.97697146  1
  O  O314  1  0.55184008  0.39760220  0.48255412  1
  O  O315  1  0.57619899  0.41716166  0.97081391  1
  O  O316  1  0.56332934  0.73777238  0.49140271  1
  O  O317  1  0.56551966  0.73773480  0.97653902  1
  O  O318  1  0.90705123  0.07735064  0.45986720  1
  O  O319  1  0.91376659  0.07590622  0.98787658  1
  O  O320  1  0.91653989  0.40353212  0.48319654  1
  O  O321  1  0.90004626  0.40230698  0.97600717  1
  O  O322  1  0.89724014  0.73330294  0.49804307  1
  O  O323  1  0.91233543  0.73859816  0.99091217  1
  O  O324  1  0.10616385  0.26222767  0.22935268  1
  O  O325  1  0.08400085  0.26068690  0.72394804  1
  O  O326  1  0.08666038  0.59048716  0.23459139  1
  O  O327  1  0.09256867  0.58143654  0.72903109  1
  O  O328  1  0.09936232  0.92960410  0.23815246  1
  O  O329  1  0.08440527  0.92080946  0.73040764  1
  O  O330  1  0.42891140  0.24979888  0.22509653  1
  O  O331  1  0.42634537  0.27195466  0.72491754  1
  O  O332  1  0.44096423  0.60517749  0.22624581  1
  O  O333  1  0.43609055  0.60282017  0.72713807  1
  O  O334  1  0.43607485  0.93404389  0.25088057  1
  O  O335  1  0.43436920  0.92785858  0.72172123  1
  O  O336  1  0.76504207  0.26834717  0.21993956  1
  O  O337  1  0.76593089  0.26807737  0.72491866  1
  O  O338  1  0.76099771  0.59596134  0.23100935  1
  O  O339  1  0.76464975  0.59724642  0.72819896  1
  O  O340  1  0.75699848  0.92659905  0.23109765  1
  O  O341  1  0.75429019  0.92051033  0.72150988  1
  O  O342  1  0.06996736  0.09789230  0.23381482  1
  O  O343  1  0.07143640  0.10435232  0.72617997  1
  O  O344  1  0.07449951  0.42313210  0.21671393  1
  O  O345  1  0.06825864  0.42863775  0.72477472  1
  O  O346  1  0.07457253  0.76244677  0.23077912  1
  O  O347  1  0.06801163  0.75912895  0.72641994  1
  O  O348  1  0.39969799  0.09532684  0.22954304  1
  O  O349  1  0.41265518  0.08935357  0.72080921  1
  O  O350  1  0.39887294  0.43196617  0.23933681  1
  O  O351  1  0.40111282  0.43151746  0.73727847  1
  O  O352  1  0.40769932  0.77286057  0.22413840  1
  O  O353  1  0.40201035  0.75800097  0.71808978  1
  O  O354  1  0.72261119  0.09572104  0.23036323  1
  O  O355  1  0.73946466  0.09247558  0.73006629  1
  O  O356  1  0.75073277  0.43258255  0.22945680  1
  O  O357  1  0.74486987  0.42479688  0.72851512  1
  O  O358  1  0.73486607  0.76500540  0.22747686  1
  O  O359  1  0.73239678  0.76176131  0.72082325  1
