# generated using pymatgen
data_BaLaInIrO6
_symmetry_space_group_name_H-M   'P 1'
_cell_length_a   17.52754590
_cell_length_b   17.55320917
_cell_length_c   16.49968375
_cell_angle_alpha   90.03042980
_cell_angle_beta   89.98422597
_cell_angle_gamma   89.94811422
_symmetry_Int_Tables_number   1
_chemical_formula_structural   BaLaInIrO6
_chemical_formula_sum   'Ba36 La36 In36 Ir36 O216'
_cell_volume   5076.36692341
_cell_formula_units_Z   36
loop_
 _symmetry_equiv_pos_site_id
 _symmetry_equiv_pos_as_xyz
  1  'x, y, z'
loop_
 _atom_site_type_symbol
 _atom_site_label
 _atom_site_symmetry_multiplicity
 _atom_site_fract_x
 _atom_site_fract_y
 _atom_site_fract_z
 _atom_site_occupancy
  Ba  Ba0  1  0.17314140  0.33666427  0.12482657  1
  Ba  Ba1  1  0.66853978  0.48397091  0.87399105  1
  Ba  Ba2  1  1.00156661  0.50594942  0.12549080  1
  Ba  Ba3  1  0.33040611  0.49178650  0.37560605  1
  Ba  Ba4  1  0.99792235  0.84415347  0.62865176  1
  Ba  Ba5  1  0.16533099  0.67769169  0.62400909  1
  Ba  Ba6  1  0.83532936  0.32241882  0.87249529  1
  Ba  Ba7  1  0.16821266  0.66006523  0.87339752  1
  Ba  Ba8  1  0.49778706  0.01205552  0.12397824  1
  Ba  Ba9  1  0.66379070  0.17248435  0.12209315  1
  Ba  Ba10  1  0.16712749  0.99392124  0.37602653  1
  Ba  Ba11  1  0.83075611  0.99661903  0.87732400  1
  Ba  Ba12  1  0.00238812  0.49408895  0.87677062  1
  Ba  Ba13  1  0.33510259  0.83179652  0.87493326  1
  Ba  Ba14  1  0.33318780  0.16232925  0.37652134  1
  Ba  Ba15  1  0.49664685  0.33902549  0.62621332  1
  Ba  Ba16  1  0.83498739  0.32582803  0.37726517  1
  Ba  Ba17  1  0.17020893  0.32479821  0.87238577  1
  Ba  Ba18  1  0.33513289  0.15711141  0.87198669  1
  Ba  Ba19  1  0.16915500  0.00575213  0.12465543  1
  Ba  Ba20  1  -0.00206337  0.15981190  0.37551720  1
  Ba  Ba21  1  0.50254246  0.31984279  0.87325099  1
  Ba  Ba22  1  0.17205312  0.33827093  0.62416225  1
  Ba  Ba23  1  0.16974817  0.99460597  0.87607622  1
  Ba  Ba24  1  0.50152910  0.65442812  0.36883355  1
  Ba  Ba25  1  0.33427142  0.84655286  0.12504205  1
  Ba  Ba26  1  0.50598894  0.99521628  0.87615527  1
  Ba  Ba27  1  0.66355037  0.82273084  0.37763916  1
  Ba  Ba28  1  0.83259793  0.67699834  0.12134917  1
  Ba  Ba29  1  0.83016446  0.67906886  0.63038075  1
  Ba  Ba30  1  0.16640103  0.67557644  0.12838860  1
  Ba  Ba31  1  0.66312605  0.15587918  0.37681780  1
  Ba  Ba32  1  0.16975604  0.65690864  0.37491645  1
  Ba  Ba33  1  0.16411211  0.01233585  0.62571514  1
  Ba  Ba34  1  0.83658932  0.65461415  0.87403386  1
  Ba  Ba35  1  0.66825798  0.50299742  0.62428219  1
  La  La36  1  0.33368226  0.85334854  0.62737694  1
  La  La37  1  -0.00082726  0.82340242  0.37947527  1
  La  La38  1  0.83188864  0.00987902  0.62478546  1
  La  La39  1  0.65441057  0.81472099  0.87612482  1
  La  La40  1  0.32670303  0.17380546  0.63137791  1
  La  La41  1  0.50787020  0.64776157  0.87380737  1
  La  La42  1  0.82748633  0.34342380  0.62695861  1
  La  La43  1  0.33715081  0.16946166  0.11913262  1
  La  La44  1  0.83813541  0.65155810  0.38344300  1
  La  La45  1  0.82769691  0.01124732  0.13158561  1
  La  La46  1  -0.00181073  0.81865331  0.87757231  1
  La  La47  1  1.00357089  0.51149353  0.62494707  1
  La  La48  1  1.00134125  0.18019167  0.62526240  1
  La  La49  1  0.83683220  0.99021897  0.37640721  1
  La  La50  1  0.66784107  0.18402307  0.62766269  1
  La  La51  1  0.65622667  0.48383773  0.36713700  1
  La  La52  1  1.00612689  0.83870980  0.12318361  1
  La  La53  1  0.32823970  0.82212937  0.37523976  1
  La  La54  1  0.49175543  0.02051297  0.62355540  1
  La  La55  1  0.33882631  0.51337310  0.62819665  1
  La  La56  1  0.66332748  0.15952042  0.87347580  1
  La  La57  1  0.00180323  0.48500687  0.37211798  1
  La  La58  1  0.32610219  0.48311141  0.87005159  1
  La  La59  1  0.49783304  0.68052391  0.62093183  1
  La  La60  1  0.33953481  0.51992059  0.12344645  1
  La  La61  1  0.66778150  0.51231151  0.12309898  1
  La  La62  1  0.17336946  0.32348353  0.37083443  1
  La  La63  1  0.50521327  0.98493336  0.37158666  1
  La  La64  1  0.66962317  0.84868128  0.13046513  1
  La  La65  1  0.49177109  0.68602754  0.12706283  1
  La  La66  1  0.00005580  0.15706851  0.87513405  1
  La  La67  1  0.67483670  0.85180323  0.62754388  1
  La  La68  1  1.00437449  0.17979092  0.12257609  1
  La  La69  1  0.82871877  0.34255576  0.12273648  1
  La  La70  1  0.49011023  0.33960916  0.12617999  1
  La  La71  1  0.49914307  0.31938393  0.37844220  1
  In  In72  1  0.82848783  0.83971932  0.75579416  1
  In  In73  1  0.83132775  0.16645415  0.25108375  1
  In  In74  1  0.49980951  0.49701251  0.00027049  1
  In  In75  1  -0.00315810  -0.00171066  0.24918930  1
  In  In76  1  0.16900475  0.16621022  -0.00085517  1
  In  In77  1  -0.00024919  0.66749760  0.74682901  1
  In  In78  1  0.82977267  0.49953902  0.25175359  1
  In  In79  1  -0.00185789  0.66757875  0.25385395  1
  In  In80  1  0.66608089  0.66451699  0.49879588  1
  In  In81  1  0.49991371  0.49816530  0.49870099  1
  In  In82  1  0.16732003  0.83519440  -0.00042660  1
  In  In83  1  0.00077563  0.33238204  0.24904170  1
  In  In84  1  0.83000133  0.83500566  -0.00054918  1
  In  In85  1  -0.00053279  0.66659178  0.00265463  1
  In  In86  1  0.33315747  0.00471353  0.49713393  1
  In  In87  1  0.33236434  0.66949943  0.50147099  1
  In  In88  1  0.33732143  0.67003033  0.74986162  1
  In  In89  1  0.16539690  0.83706742  0.74862310  1
  In  In90  1  0.66371583  0.66299666  0.74834927  1
  In  In91  1  0.83154449  0.49660921  -0.00004556  1
  In  In92  1  0.50015166  0.83552550  0.50239394  1
  In  In93  1  -0.00267455  -0.00067595  0.00033565  1
  In  In94  1  0.66661580  0.33175065  0.49862298  1
  In  In95  1  0.16885746  0.16412232  0.24852533  1
  In  In96  1  0.83215400  0.83437008  0.50127298  1
  In  In97  1  0.50045713  0.16564775  0.25036508  1
  In  In98  1  0.33907565  0.66837344  -0.00553685  1
  In  In99  1  0.66761332  -0.00138179  0.00075257  1
  In  In100  1  0.83377922  0.16789080  -0.00057423  1
  In  In101  1  0.83449318  0.49997916  0.49950577  1
  In  In102  1  0.66821396  0.66898709  0.24696521  1
  In  In103  1  0.17177363  0.49844948  0.00079689  1
  In  In104  1  0.16850538  0.49723360  0.74596797  1
  In  In105  1  0.83321878  0.16503605  0.50281199  1
  In  In106  1  0.17011739  0.49992347  0.24816706  1
  In  In107  1  0.50276851  0.83628917  0.74760992  1
  Ir  Ir108  1  0.16270712  0.17055035  0.50199385  1
  Ir  Ir109  1  -0.00336544  0.32860896  0.74763541  1
  Ir  Ir110  1  0.16316478  0.16836847  0.74682242  1
  Ir  Ir111  1  0.16513778  0.83629627  0.49709224  1
  Ir  Ir112  1  0.49867816  0.83665080  0.24949710  1
  Ir  Ir113  1  0.50139471  0.16948974  -0.00326032  1
  Ir  Ir114  1  0.66127575  0.00438897  0.50288675  1
  Ir  Ir115  1  0.33936494  0.00135828  -0.00156529  1
  Ir  Ir116  1  0.66818657  0.32964049  0.75311340  1
  Ir  Ir117  1  0.33756539  0.66989934  0.24990535  1
  Ir  Ir118  1  0.33418281  0.00569555  0.74877242  1
  Ir  Ir119  1  0.00392076  0.33419564  0.50449528  1
  Ir  Ir120  1  0.33787171  0.00042610  0.24999946  1
  Ir  Ir121  1  0.33693904  0.33507062  0.25092947  1
  Ir  Ir122  1  0.49980621  0.49350368  0.24636027  1
  Ir  Ir123  1  -0.00046093  -0.00109509  0.50147566  1
  Ir  Ir124  1  0.66292415  0.00662297  0.74387299  1
  Ir  Ir125  1  0.33150564  0.33322349  0.49906560  1
  Ir  Ir126  1  -0.00250927  0.00614627  0.74812587  1
  Ir  Ir127  1  0.83231317  0.16435273  0.74744839  1
  Ir  Ir128  1  0.83625318  0.49192637  0.74798353  1
  Ir  Ir129  1  0.65890648  0.66696453  0.00224861  1
  Ir  Ir130  1  0.00366272  0.66550002  0.49705359  1
  Ir  Ir131  1  -0.00126510  0.33036219  -0.00395406  1
  Ir  Ir132  1  0.50320406  0.83403675  0.00075298  1
  Ir  Ir133  1  0.66666179  -0.00318785  0.25557814  1
  Ir  Ir134  1  0.50199478  0.16594122  0.74792313  1
  Ir  Ir135  1  0.66261265  0.33022305  0.00279497  1
  Ir  Ir136  1  0.16615927  0.49575565  0.50116628  1
  Ir  Ir137  1  0.83356923  0.83552225  0.25466782  1
  Ir  Ir138  1  0.49834452  0.16902169  0.50264594  1
  Ir  Ir139  1  0.49926328  0.49633280  0.74915608  1
  Ir  Ir140  1  0.16815562  0.83659504  0.25458094  1
  Ir  Ir141  1  0.66034314  0.33289069  0.24353803  1
  Ir  Ir142  1  0.33675167  0.32916724  0.74808137  1
  Ir  Ir143  1  0.33734485  0.33108484  0.00147703  1
  O  O144  1  0.32400014  0.30975164  0.12610981  1
  O  O145  1  0.32023664  0.30934772  0.62270802  1
  O  O146  1  0.32199849  0.66237864  0.12984227  1
  O  O147  1  0.31450548  0.64789961  0.62463242  1
  O  O148  1  0.31966142  1.00896171  0.12364093  1
  O  O149  1  0.31567200  1.00589868  0.62835447  1
  O  O150  1  0.62791452  0.32810716  0.12252653  1
  O  O151  1  0.64810304  0.32681832  0.63283703  1
  O  O152  1  0.62671824  0.65550998  0.12063100  1
  O  O153  1  0.62992636  0.65393533  0.62535555  1
  O  O154  1  0.64457795  0.98804204  0.13517477  1
  O  O155  1  0.62890291  0.99046669  0.62251404  1
  O  O156  1  0.96812735  0.32009362  0.11566395  1
  O  O157  1  0.96636822  0.32096898  0.62617257  1
  O  O158  1  0.98140812  0.68387242  0.13092345  1
  O  O159  1  0.97815773  0.65270957  0.61475581  1
  O  O160  1  0.96057825  0.97909367  0.12636421  1
  O  O161  1  0.96878793  0.99949207  0.62422405  1
  O  O162  1  0.20347540  0.16693196  0.12418529  1
  O  O163  1  0.19144024  0.16873555  0.62423689  1
  O  O164  1  0.20648642  0.49317339  0.12516337  1
  O  O165  1  0.20053307  0.49285657  0.61817808  1
  O  O166  1  0.18572396  0.83343739  0.13661586  1
  O  O167  1  0.19598614  0.83954699  0.61561964  1
  O  O168  1  0.51079383  0.17710643  0.11888019  1
  O  O169  1  0.52874541  0.16387343  0.62525756  1
  O  O170  1  0.53045515  0.48273256  0.12940089  1
  O  O171  1  0.51967845  0.49105112  0.63055684  1
  O  O172  1  0.53216735  0.82805487  0.12473800  1
  O  O173  1  0.54264736  0.82283971  0.62510918  1
  O  O174  1  0.86639334  0.15342118  0.12555587  1
  O  O175  1  0.86404912  0.15403646  0.62888980  1
  O  O176  1  0.85022693  0.47721438  0.12683876  1
  O  O177  1  0.86368684  0.48578578  0.62713358  1
  O  O178  1  0.86498569  0.83158556  0.13743542  1
  O  O179  1  0.84487972  0.85047424  0.62728758  1
  O  O180  1  0.14709135  0.18060820  0.38073357  1
  O  O181  1  0.13863320  0.16727057  0.86869215  1
  O  O182  1  0.13948204  0.49425729  0.38293250  1
  O  O183  1  0.15846571  0.49132140  0.87273569  1
  O  O184  1  0.13705335  0.83795630  0.37604508  1
  O  O185  1  0.13527366  0.84152799  0.87363268  1
  O  O186  1  0.48427865  0.17614607  0.38060147  1
  O  O187  1  0.48670133  0.15790344  0.87203724  1
  O  O188  1  0.47907502  0.49486803  0.36491932  1
  O  O189  1  0.46656836  0.50443189  0.87011774  1
  O  O190  1  0.46720219  0.84620271  0.37047824  1
  O  O191  1  0.48632389  0.83984152  0.88030003  1
  O  O192  1  0.81246374  0.16696454  0.37863386  1
  O  O193  1  0.79921490  0.16865224  0.86654156  1
  O  O194  1  0.79248278  0.50602377  0.37482056  1
  O  O195  1  0.81831166  0.48986566  0.86851838  1
  O  O196  1  0.80828060  0.85140529  0.37360209  1
  O  O197  1  0.78441904  0.84529066  0.87657556  1
  O  O198  1  0.01769626  0.00312981  0.38239909  1
  O  O199  1  0.02220169  0.02171499  0.86478995  1
  O  O200  1  0.03718512  0.34097250  0.38688004  1
  O  O201  1  0.02196596  0.33497326  0.87037437  1
  O  O202  1  0.02350605  0.68433889  0.38054017  1
  O  O203  1  0.01798350  0.67398469  0.87359476  1
  O  O204  1  0.36698736  0.00240195  0.37012425  1
  O  O205  1  0.35792963  -0.00135504  0.87415978  1
  O  O206  1  0.36314019  0.34142634  0.37436590  1
  O  O207  1  0.35592021  0.34843445  0.87507862  1
  O  O208  1  0.35326440  0.67923539  0.37227090  1
  O  O209  1  0.37719634  0.67556796  0.87175271  1
  O  O210  1  0.69662658  0.00522518  0.37985057  1
  O  O211  1  0.67870696  0.02215124  0.86593368  1
  O  O212  1  0.68393863  0.33994548  0.36455804  1
  O  O213  1  0.68714086  0.32360159  0.87912365  1
  O  O214  1  0.70120516  0.67105112  0.37039146  1
  O  O215  1  0.68422377  0.67683870  0.88258584  1
  O  O216  1  0.07042056  0.09870101  0.02581990  1
  O  O217  1  0.06724244  0.09850106  0.52552052  1
  O  O218  1  0.07160019  0.41672214  0.01668897  1
  O  O219  1  0.07152709  0.42858568  0.52839001  1
  O  O220  1  0.06625689  0.76914429  0.01732236  1
  O  O221  1  0.07073339  0.76513600  0.51616701  1
  O  O222  1  0.40626802  0.10149083  0.01689272  1
  O  O223  1  0.40498763  0.10502743  0.52779486  1
  O  O224  1  0.40451623  0.42311531  0.03111314  1
  O  O225  1  0.39501638  0.42760851  0.52324520  1
  O  O226  1  0.41764334  0.76309510  0.02482772  1
  O  O227  1  0.39549328  0.77331727  0.52352902  1
  O  O228  1  0.74661165  0.08627124  0.02063299  1
  O  O229  1  0.73064571  0.09221939  0.53517756  1
  O  O230  1  0.73042768  0.42170733  0.02776989  1
  O  O231  1  0.75148376  0.41453476  0.52054035  1
  O  O232  1  0.72185554  0.76184870  0.02710868  1
  O  O233  1  0.73226430  0.76933075  0.52615563  1
  O  O234  1  0.08573632  0.25808989  0.01767788  1
  O  O235  1  0.08514184  0.25429307  0.53070929  1
  O  O236  1  0.09566296  0.59027708  0.01649724  1
  O  O237  1  0.09187402  0.58590580  0.52503783  1
  O  O238  1  0.08981098  0.92591930  0.02375572  1
  O  O239  1  0.09269592  0.92840486  0.51756493  1
  O  O240  1  0.43187497  0.26314185  0.01852192  1
  O  O241  1  0.43346406  0.26921957  0.50478230  1
  O  O242  1  0.43550137  0.59591693  0.03040946  1
  O  O243  1  0.43261140  0.59700028  0.52114256  1
  O  O244  1  0.43424914  0.92777890  0.01703948  1
  O  O245  1  0.42833293  0.93403247  0.52982666  1
  O  O246  1  0.75955291  0.26639196  0.02431294  1
  O  O247  1  0.75753474  0.25533997  0.53288501  1
  O  O248  1  0.74412661  0.59012163  0.02107747  1
  O  O249  1  0.77252000  0.60216885  0.51386712  1
  O  O250  1  0.75952480  0.92542386  0.03969944  1
  O  O251  1  0.75520811  0.93945348  0.52271917  1
  O  O252  1  0.24757843  0.06895139  0.26761115  1
  O  O253  1  0.23899352  0.07885931  0.76596910  1
  O  O254  1  0.24387563  0.40065166  0.27280865  1
  O  O255  1  0.24931095  0.40001094  0.75938092  1
  O  O256  1  0.24886355  0.74875188  0.27798107  1
  O  O257  1  0.24495375  0.74607734  0.76474752  1
  O  O258  1  0.57152227  0.06493851  0.27491909  1
  O  O259  1  0.56542754  0.06945475  0.75264474  1
  O  O260  1  0.56345193  0.39785464  0.27238960  1
  O  O261  1  0.57425166  0.40219386  0.77052201  1
  O  O262  1  0.56842006  0.74410371  0.26029560  1
  O  O263  1  0.56547859  0.73335849  0.77892825  1
  O  O264  1  0.89276239  0.05911910  0.27058875  1
  O  O265  1  0.89918602  0.07002794  0.76195344  1
  O  O266  1  0.91352279  0.41320450  0.27778440  1
  O  O267  1  0.90176508  0.39337613  0.75621082  1
  O  O268  1  0.89504227  0.74320130  0.28625723  1
  O  O269  1  0.90847885  0.74963635  0.76900762  1
  O  O270  1  0.26350079  0.24847761  0.27164076  1
  O  O271  1  0.26518008  0.23338558  0.75956188  1
  O  O272  1  0.26812108  0.57887053  0.26186597  1
  O  O273  1  0.27274465  0.56351947  0.76632189  1
  O  O274  1  0.26908174  0.90422313  0.27529284  1
  O  O275  1  0.26591011  0.91369567  0.75663837  1
  O  O276  1  0.59357656  0.24334590  0.26701797  1
  O  O277  1  0.60330361  0.22869920  0.76706693  1
  O  O278  1  0.59452637  0.55942293  0.26532941  1
  O  O279  1  0.58649352  0.56659924  0.77563029  1
  O  O280  1  0.59007439  0.90838496  0.27585730  1
  O  O281  1  0.60576582  0.90731730  0.76831061  1
  O  O282  1  0.92494619  0.24089380  0.26389670  1
  O  O283  1  0.93161804  0.22716766  0.76938480  1
  O  O284  1  0.92127375  0.57725943  0.28758105  1
  O  O285  1  0.92317566  0.56485993  0.75833876  1
  O  O286  1  0.92630964  0.89823284  0.28256479  1
  O  O287  1  0.93342446  0.91382778  0.77608443  1
  O  O288  1  0.25358008  0.24574113  0.47787425  1
  O  O289  1  0.26742811  0.24149723  0.98289648  1
  O  O290  1  0.25398549  0.56861779  0.48427435  1
  O  O291  1  0.27914282  0.56243540  0.98127211  1
  O  O292  1  0.26105829  0.90327022  0.47752077  1
  O  O293  1  0.26632384  0.91418888  0.98925486  1
  O  O294  1  0.59151778  0.23484668  0.48988415  1
  O  O295  1  0.59889499  0.23374883  0.97618512  1
  O  O296  1  0.60296812  0.55979209  0.47045172  1
  O  O297  1  0.59254108  0.57584999  0.97641993  1
  O  O298  1  0.59005481  0.91852950  0.47422216  1
  O  O299  1  0.59973483  0.89811804  0.98234818  1
  O  O300  1  0.93075092  0.24602520  0.48899648  1
  O  O301  1  0.93349883  0.23826776  0.97422125  1
  O  O302  1  0.93736938  0.57271914  0.47104487  1
  O  O303  1  0.91916766  0.57489846  0.99134886  1
  O  O304  1  0.93134327  0.90728475  0.47640350  1
  O  O305  1  0.92981899  0.90174806  0.96789383  1
  O  O306  1  0.23803636  0.08381717  0.48471652  1
  O  O307  1  0.25129472  0.07270269  0.98481742  1
  O  O308  1  0.23259324  0.39912511  0.47610764  1
  O  O309  1  0.25108596  0.40059737  0.98311713  1
  O  O310  1  0.23667013  0.74957974  0.47812777  1
  O  O311  1  0.24454539  0.74234575  0.98598526  1
  O  O312  1  0.55837603  0.06802705  0.48552733  1
  O  O313  1  0.57649096  0.08211843  0.98832697  1
  O  O314  1  0.56966444  0.40019244  0.47366214  1
  O  O315  1  0.57237039  0.39863713  0.98540546  1
  O  O316  1  0.56328753  0.73315770  0.48380551  1
  O  O317  1  0.56563823  0.73593982  0.97658924  1
  O  O318  1  0.90123995  0.06045959  0.48646016  1
  O  O319  1  0.91471281  0.08305460  0.97073623  1
  O  O320  1  0.92325737  0.41173458  0.47617561  1
  O  O321  1  0.90791741  0.39758696  0.98666354  1
  O  O322  1  0.91017718  0.73615649  0.47705723  1
  O  O323  1  0.90357612  0.74478702  0.97668656  1
  O  O324  1  0.09182477  0.25547134  0.22941877  1
  O  O325  1  0.08751098  0.25760391  0.72555680  1
  O  O326  1  0.09194978  0.59164605  0.23977975  1
  O  O327  1  0.08636708  0.58241481  0.72422787  1
  O  O328  1  0.09436643  0.92194550  0.23495358  1
  O  O329  1  0.08690923  0.93868689  0.73343128  1
  O  O330  1  0.43339983  0.27129560  0.24115771  1
  O  O331  1  0.42739453  0.25433057  0.73464785  1
  O  O332  1  0.43197581  0.59156199  0.22044347  1
  O  O333  1  0.43810271  0.59027084  0.72334112  1
  O  O334  1  0.43154375  0.93267374  0.23521815  1
  O  O335  1  0.42630890  0.93528814  0.72237698  1
  O  O336  1  0.75576326  0.26844300  0.22128790  1
  O  O337  1  0.76368244  0.25877079  0.72299496  1
  O  O338  1  0.75096953  0.58693151  0.21478935  1
  O  O339  1  0.76213444  0.58073575  0.73600933  1
  O  O340  1  0.76467256  0.93064099  0.23007331  1
  O  O341  1  0.75696230  0.94457263  0.72461411  1
  O  O342  1  0.06679128  0.09583805  0.22540679  1
  O  O343  1  0.06305646  0.10514265  0.72629483  1
  O  O344  1  0.07546111  0.42558174  0.24043824  1
  O  O345  1  0.06239622  0.42102521  0.72378489  1
  O  O346  1  0.07267396  0.77313305  0.23964257  1
  O  O347  1  0.07468478  0.76072498  0.72997614  1
  O  O348  1  0.40077643  0.09806328  0.22950589  1
  O  O349  1  0.40594567  0.09928131  0.72230868  1
  O  O350  1  0.40376905  0.42863714  0.21831207  1
  O  O351  1  0.40089513  0.42993654  0.72848186  1
  O  O352  1  0.41116185  0.76125766  0.22833807  1
  O  O353  1  0.40904288  0.76613350  0.70858908  1
  O  O354  1  0.73545583  0.08538657  0.23036661  1
  O  O355  1  0.73140916  0.10319330  0.72212209  1
  O  O356  1  0.72446186  0.42492840  0.22260900  1
  O  O357  1  0.74551127  0.41582643  0.72635806  1
  O  O358  1  0.73857203  0.77199850  0.22504898  1
  O  O359  1  0.72754255  0.76749803  0.73082926  1
