# generated using pymatgen
data_BaLaInIrO6
_symmetry_space_group_name_H-M   'P 1'
_cell_length_a   17.52608076
_cell_length_b   17.56076131
_cell_length_c   16.49522402
_cell_angle_alpha   89.96494612
_cell_angle_beta   90.01015763
_cell_angle_gamma   90.04577360
_symmetry_Int_Tables_number   1
_chemical_formula_structural   BaLaInIrO6
_chemical_formula_sum   'Ba36 La36 In36 Ir36 O216'
_cell_volume   5076.75423888
_cell_formula_units_Z   36
loop_
 _symmetry_equiv_pos_site_id
 _symmetry_equiv_pos_as_xyz
  1  'x, y, z'
loop_
 _atom_site_type_symbol
 _atom_site_label
 _atom_site_symmetry_multiplicity
 _atom_site_fract_x
 _atom_site_fract_y
 _atom_site_fract_z
 _atom_site_occupancy
  Ba  Ba0  1  0.33375409  0.49456023  0.87211541  1
  Ba  Ba1  1  0.16305239  0.67717829  0.12474026  1
  Ba  Ba2  1  0.66267859  0.17075595  0.62503930  1
  Ba  Ba3  1  0.83296836  0.66106912  0.37480200  1
  Ba  Ba4  1  0.66376482  0.50610606  0.62705619  1
  Ba  Ba5  1  0.83112182  0.98889312  0.37296740  1
  Ba  Ba6  1  0.67450294  0.17249691  0.12505137  1
  Ba  Ba7  1  0.66762388  0.83830450  0.61962130  1
  Ba  Ba8  1  0.82972285  0.65759805  0.87614749  1
  Ba  Ba9  1  0.66704138  0.15920266  0.87247565  1
  Ba  Ba10  1  1.00166101  0.51045011  0.12841367  1
  Ba  Ba11  1  0.49761139  0.33987717  0.62549922  1
  Ba  Ba12  1  0.33449158  0.82434829  0.87437633  1
  Ba  Ba13  1  1.00266183  0.17593933  0.13086079  1
  Ba  Ba14  1  0.83685752  0.67675604  0.12589147  1
  Ba  Ba15  1  0.82488894  0.33972812  0.62414448  1
  Ba  Ba16  1  0.17243698  0.32895175  0.88308045  1
  Ba  Ba17  1  0.83543541  0.32209893  0.37540059  1
  Ba  Ba18  1  0.83354450  0.33984747  0.12883652  1
  Ba  Ba19  1  0.16518865  0.32180365  0.37435975  1
  Ba  Ba20  1  0.82745896  0.67419563  0.62657508  1
  Ba  Ba21  1  0.50572944  0.98633082  0.37549092  1
  Ba  Ba22  1  0.66585258  0.82329329  0.37106485  1
  Ba  Ba23  1  0.50097112  0.31784818  0.87387578  1
  Ba  Ba24  1  0.49958067  0.99589748  0.87465556  1
  Ba  Ba25  1  0.33571093  0.84182852  0.12657015  1
  Ba  Ba26  1  1.00205896  0.83880009  0.12396381  1
  Ba  Ba27  1  0.83449413  0.00917371  0.12753956  1
  Ba  Ba28  1  0.33681092  0.83995316  0.62918486  1
  Ba  Ba29  1  0.49818262  0.00611373  0.62523737  1
  Ba  Ba30  1  0.49873387  0.66312143  0.37816053  1
  Ba  Ba31  1  0.16404532  0.68140689  0.62525566  1
  Ba  Ba32  1  0.33142191  0.15851738  0.87326959  1
  Ba  Ba33  1  0.49849957  0.67465769  0.62765981  1
  Ba  Ba34  1  0.66248650  0.49304800  0.87380668  1
  Ba  Ba35  1  0.67266145  0.84142188  0.12428175  1
  La  La36  1  0.16472773  0.34790987  0.62627989  1
  La  La37  1  0.34191883  0.51967492  0.62336088  1
  La  La38  1  0.66354349  0.82076084  0.87340249  1
  La  La39  1  0.50407874  0.31806231  0.37384963  1
  La  La40  1  0.50077059  0.01862810  0.12599159  1
  La  La41  1  0.33251278  0.81860894  0.38402323  1
  La  La42  1  0.83034847  0.32403689  0.87936875  1
  La  La43  1  -0.00295451  0.48652480  0.37565123  1
  La  La44  1  0.00020954  0.81888821  0.87420081  1
  La  La45  1  0.16799950  0.98491771  0.37416572  1
  La  La46  1  0.17255351  0.65047403  0.37330002  1
  La  La47  1  0.49651694  0.68132690  0.12429019  1
  La  La48  1  0.15984525  0.01196835  0.12331344  1
  La  La49  1  0.33197943  0.14958440  0.37526306  1
  La  La50  1  0.66537919  0.14997660  0.37642143  1
  La  La51  1  0.83441936  0.98653617  0.87691631  1
  La  La52  1  -0.00561601  0.48764900  0.87896224  1
  La  La53  1  0.33555682  0.51561961  0.11917497  1
  La  La54  1  -0.00468334  0.14956793  0.87685458  1
  La  La55  1  1.00205337  0.18385930  0.62059221  1
  La  La56  1  0.17515228  0.98590312  0.87796220  1
  La  La57  1  1.00392204  0.85064497  0.62125156  1
  La  La58  1  1.00178568  0.51426817  0.62316815  1
  La  La59  1  0.16179675  0.35485235  0.12940154  1
  La  La60  1  -0.00672405  0.14953345  0.37595102  1
  La  La61  1  0.67258959  0.49670228  0.37895326  1
  La  La62  1  0.50093269  0.34919492  0.12431776  1
  La  La63  1  0.67403219  0.51350391  0.12698243  1
  La  La64  1  0.32625281  0.48147776  0.37425116  1
  La  La65  1  -0.00809808  0.81847078  0.37139969  1
  La  La66  1  0.16699323  0.01361014  0.62416652  1
  La  La67  1  0.17114705  0.65445929  0.87619122  1
  La  La68  1  0.33724045  0.17817416  0.62896287  1
  La  La69  1  0.82501116  0.01215995  0.61937051  1
  La  La70  1  0.50452286  0.65804971  0.87453500  1
  La  La71  1  0.33360722  0.18260354  0.12562201  1
  In  In72  1  -0.00042454  0.66622617  0.74996379  1
  In  In73  1  0.16627409  0.16838460  0.00039350  1
  In  In74  1  0.33288053  0.00016437  0.00357726  1
  In  In75  1  0.66604228  -0.00209707  0.24882583  1
  In  In76  1  0.00080254  0.66758265  0.50004631  1
  In  In77  1  0.49706393  0.50147586  0.25024272  1
  In  In78  1  0.00006748  0.66673906  -0.00085278  1
  In  In79  1  0.50127094  0.83701060  0.75082065  1
  In  In80  1  0.16904759  0.83278690  0.00177995  1
  In  In81  1  0.16904919  0.49931025  0.50119416  1
  In  In82  1  0.83518268  0.50178637  0.25038581  1
  In  In83  1  0.16578726  0.16649406  0.49810864  1
  In  In84  1  0.33591810  0.33505437  0.00379535  1
  In  In85  1  0.16591400  0.50098187  0.74822525  1
  In  In86  1  0.16808125  0.16641984  0.25336838  1
  In  In87  1  0.66600131  0.66751377  0.00343737  1
  In  In88  1  0.33233793  0.66635460  0.24865938  1
  In  In89  1  0.66305795  0.33409924  0.25046524  1
  In  In90  1  0.33069529  -0.00186735  0.50005361  1
  In  In91  1  0.33318261  -0.00339319  0.25093907  1
  In  In92  1  0.49719226  0.16517441  0.49771370  1
  In  In93  1  0.00326876  0.33242481  0.00361609  1
  In  In94  1  0.00037712  0.33283568  0.74978030  1
  In  In95  1  0.83604961  0.83496217  0.74795269  1
  In  In96  1  0.83262322  0.49530101  0.75175147  1
  In  In97  1  0.49785960  0.49868280  0.75012617  1
  In  In98  1  0.83784118  0.16390632  0.74916960  1
  In  In99  1  0.33006607  0.33378096  0.74918359  1
  In  In100  1  0.00115601  -0.00398860  0.25222619  1
  In  In101  1  0.66793751  0.66576392  0.49969145  1
  In  In102  1  0.66687966  0.33129967  0.49676742  1
  In  In103  1  0.16379581  0.16740595  0.74792360  1
  In  In104  1  0.00094816  -0.00113796  -0.00168109  1
  In  In105  1  0.66627817  -0.00105996  -0.00320563  1
  In  In106  1  0.66476676  0.33357306  0.00091795  1
  In  In107  1  0.49577173  0.49824601  0.49464464  1
  Ir  Ir108  1  0.33357149  0.33413470  0.24923771  1
  Ir  Ir109  1  0.50052884  0.83174525  0.24612109  1
  Ir  Ir110  1  0.50128011  0.50266357  0.00360458  1
  Ir  Ir111  1  0.16842303  0.49979726  0.25293119  1
  Ir  Ir112  1  0.16236318  0.83673346  0.49986423  1
  Ir  Ir113  1  0.50052741  0.16665336  0.00535692  1
  Ir  Ir114  1  -0.00099748  -0.00012844  0.50483539  1
  Ir  Ir115  1  0.50108311  0.83172883  0.00185024  1
  Ir  Ir116  1  0.83421735  0.16786048  0.25330826  1
  Ir  Ir117  1  0.33063221  0.67062821  0.75354524  1
  Ir  Ir118  1  0.49995398  0.16354346  0.75006376  1
  Ir  Ir119  1  0.83754255  0.16203233  0.49695335  1
  Ir  Ir120  1  0.83198985  0.49817255  0.00159737  1
  Ir  Ir121  1  -0.00178202  0.33384755  0.50060548  1
  Ir  Ir122  1  0.66517791  0.66849933  0.75257554  1
  Ir  Ir123  1  0.33556793  0.66565608  -0.00282845  1
  Ir  Ir124  1  0.66483208  0.66486423  0.24958121  1
  Ir  Ir125  1  0.32992698  0.67023021  0.49921602  1
  Ir  Ir126  1  0.49715670  0.17078374  0.24696509  1
  Ir  Ir127  1  0.16263641  0.84023721  0.74385945  1
  Ir  Ir128  1  0.32777052  -0.00100598  0.75041816  1
  Ir  Ir129  1  0.83921077  0.83531444  0.49616284  1
  Ir  Ir130  1  0.67212818  -0.00033511  0.74658597  1
  Ir  Ir131  1  0.16628615  0.83196114  0.25872436  1
  Ir  Ir132  1  0.00110373  -0.00063069  0.74662251  1
  Ir  Ir133  1  0.33192671  0.33191281  0.49373123  1
  Ir  Ir134  1  0.83589136  0.16729267  -0.00135395  1
  Ir  Ir135  1  0.66597028  0.33023618  0.75007486  1
  Ir  Ir136  1  0.16886648  0.50502194  0.00316684  1
  Ir  Ir137  1  0.83686655  0.49789724  0.49930709  1
  Ir  Ir138  1  0.83524568  0.82899014  0.24950206  1
  Ir  Ir139  1  0.00843722  0.66858135  0.25461925  1
  Ir  Ir140  1  0.83240062  0.83574149  -0.00327509  1
  Ir  Ir141  1  0.49918923  0.83396303  0.49773506  1
  Ir  Ir142  1  0.66902131  -0.00243431  0.50223732  1
  Ir  Ir143  1  0.00375929  0.33513213  0.25430365  1
  O  O144  1  0.29961175  0.32247313  0.13292410  1
  O  O145  1  0.30220723  0.31629730  0.61191095  1
  O  O146  1  0.31066752  0.65912577  0.11802695  1
  O  O147  1  0.30951643  0.65884761  0.62769573  1
  O  O148  1  0.29520943  0.99522596  0.12974992  1
  O  O149  1  0.30338448  0.99612613  0.62933645  1
  O  O150  1  0.63515101  0.32701823  0.12564824  1
  O  O151  1  0.64929756  0.32794987  0.62766705  1
  O  O152  1  0.63672062  0.65604958  0.12982350  1
  O  O153  1  0.65286637  0.66805624  0.63094555  1
  O  O154  1  0.63907687  1.00015674  0.12381070  1
  O  O155  1  0.64980808  0.99494795  0.62513369  1
  O  O156  1  0.98263368  0.33663023  0.13452573  1
  O  O157  1  0.97142177  0.32161879  0.61636270  1
  O  O158  1  0.98983271  0.66666231  0.13230740  1
  O  O159  1  0.97522235  0.65385192  0.62390784  1
  O  O160  1  0.98324374  0.99171359  0.12563166  1
  O  O161  1  0.96255216  0.98722252  0.62617551  1
  O  O162  1  0.20021357  0.14619302  0.12929623  1
  O  O163  1  0.20008714  0.14983536  0.62067366  1
  O  O164  1  0.19907933  0.49939945  0.12880330  1
  O  O165  1  0.20701683  0.49061050  0.62199141  1
  O  O166  1  0.18562171  0.82985641  0.13804087  1
  O  O167  1  0.18957626  0.83902299  0.62077883  1
  O  O168  1  0.52585423  0.15912918  0.12689789  1
  O  O169  1  0.51144570  0.16611227  0.62854533  1
  O  O170  1  0.53371852  0.49098658  0.12225738  1
  O  O171  1  0.50986846  0.50397235  0.62251199  1
  O  O172  1  0.52360756  0.81801963  0.12360313  1
  O  O173  1  0.51552787  0.83435386  0.61996295  1
  O  O174  1  0.85456947  0.16533166  0.12636588  1
  O  O175  1  0.86641632  0.15284031  0.61850751  1
  O  O176  1  0.85175609  0.50279446  0.12062333  1
  O  O177  1  0.86543825  0.49699691  0.62040413  1
  O  O178  1  0.85428834  0.83071557  0.12346734  1
  O  O179  1  0.86544319  0.83373418  0.61714931  1
  O  O180  1  0.12688012  0.17196578  0.37736067  1
  O  O181  1  0.12917607  0.17772997  0.87157122  1
  O  O182  1  0.13786104  0.50429418  0.37301274  1
  O  O183  1  0.13731875  0.50751247  0.88220704  1
  O  O184  1  0.13048080  0.84312624  0.37968294  1
  O  O185  1  0.13467849  0.84784932  0.86304787  1
  O  O186  1  0.46528653  0.17674952  0.36549090  1
  O  O187  1  0.47968188  0.16160725  0.88119530  1
  O  O188  1  0.45737245  0.50987228  0.37179161  1
  O  O189  1  0.48115020  0.51580607  0.88174213  1
  O  O190  1  0.47077037  0.83296443  0.37032803  1
  O  O191  1  0.48477218  0.83384191  0.88286028  1
  O  O192  1  0.80391831  0.16563283  0.37536832  1
  O  O193  1  0.82061075  0.17979133  0.87875472  1
  O  O194  1  0.80814386  0.50121972  0.37824371  1
  O  O195  1  0.81312393  0.49346584  0.88389917  1
  O  O196  1  0.81500858  0.83120385  0.37269845  1
  O  O197  1  0.80246967  0.84705886  0.87731798  1
  O  O198  1  0.03077269  0.00914440  0.38462544  1
  O  O199  1  0.03634824  0.01098571  0.86348639  1
  O  O200  1  0.02126262  0.34838074  0.37854133  1
  O  O201  1  0.02386543  0.35176128  0.87729931  1
  O  O202  1  0.03552695  0.67766672  0.37454659  1
  O  O203  1  0.03460296  0.67863482  0.87322263  1
  O  O204  1  0.35927554  0.01107603  0.37477537  1
  O  O205  1  0.34848688  0.00168274  0.86966953  1
  O  O206  1  0.36672956  0.34718452  0.37135764  1
  O  O207  1  0.34955780  0.33955449  0.87766275  1
  O  O208  1  0.34780809  0.68013209  0.37821832  1
  O  O209  1  0.36637473  0.66927315  0.87511024  1
  O  O210  1  0.68073850  0.00882584  0.37951704  1
  O  O211  1  0.69748329  0.00190779  0.86724868  1
  O  O212  1  0.68588372  0.35843034  0.37284382  1
  O  O213  1  0.69214057  0.33412600  0.87264884  1
  O  O214  1  0.68324440  0.66544117  0.36883155  1
  O  O215  1  0.67729220  0.67474703  0.87369362  1
  O  O216  1  0.06713188  0.09870200  0.01280239  1
  O  O217  1  0.06300569  0.09326728  0.53019735  1
  O  O218  1  0.08204104  0.43225847  0.02286625  1
  O  O219  1  0.06655687  0.42599703  0.52636170  1
  O  O220  1  0.07079922  0.76606569  0.00498978  1
  O  O221  1  0.06800954  0.77354514  0.52257533  1
  O  O222  1  0.40734674  0.09838448  0.03189297  1
  O  O223  1  0.39473153  0.10283889  0.51626873  1
  O  O224  1  0.41099788  0.43241045  0.03294185  1
  O  O225  1  0.38860254  0.43074244  0.51704660  1
  O  O226  1  0.41061217  0.75450291  0.02539195  1
  O  O227  1  0.40026502  0.76685873  0.51028237  1
  O  O228  1  0.74779145  0.09459678  0.01026177  1
  O  O229  1  0.74484035  0.08815833  0.52120734  1
  O  O230  1  0.73800278  0.43229673  0.02568330  1
  O  O231  1  0.74447397  0.42955471  0.51502932  1
  O  O232  1  0.74017036  0.76512438  0.00600456  1
  O  O233  1  0.75065547  0.76100713  0.51027671  1
  O  O234  1  0.10384870  0.27055312  0.03356170  1
  O  O235  1  0.09173419  0.26610561  0.52665774  1
  O  O236  1  0.09917353  0.59361909  0.01134659  1
  O  O237  1  0.09245338  0.59011089  0.51791638  1
  O  O238  1  0.10480999  0.93660306  0.01473743  1
  O  O239  1  0.09571763  0.93339721  0.52832284  1
  O  O240  1  0.43470842  0.26043439  0.03191298  1
  O  O241  1  0.42474721  0.26782526  0.50735174  1
  O  O242  1  0.43028406  0.59575002  0.02685062  1
  O  O243  1  0.41676804  0.59790271  0.51968013  1
  O  O244  1  0.43912180  0.92966475  0.02580938  1
  O  O245  1  0.42648449  0.92155173  0.51059130  1
  O  O246  1  0.76806377  0.26104094  0.01142613  1
  O  O247  1  0.76226004  0.24816377  0.51182815  1
  O  O248  1  0.75774624  0.58748390  0.02058041  1
  O  O249  1  0.76508029  0.58553631  0.51446840  1
  O  O250  1  0.76698625  0.92816229  0.01195201  1
  O  O251  1  0.76777361  0.92845845  0.52169206  1
  O  O252  1  0.24010035  0.07147860  0.28890254  1
  O  O253  1  0.22950242  0.06071067  0.76666689  1
  O  O254  1  0.23796225  0.40389457  0.27052619  1
  O  O255  1  0.22727676  0.39871909  0.75712755  1
  O  O256  1  0.23131567  0.73663290  0.27813140  1
  O  O257  1  0.23052224  0.74384732  0.77341970  1
  O  O258  1  0.56805493  0.08056520  0.26638566  1
  O  O259  1  0.57745677  0.06898754  0.76321509  1
  O  O260  1  0.55271721  0.39447246  0.26373763  1
  O  O261  1  0.57672843  0.40291430  0.76445306  1
  O  O262  1  0.56689892  0.73211920  0.25929692  1
  O  O263  1  0.57609862  0.74204986  0.77585364  1
  O  O264  1  0.91045003  0.08196156  0.27275686  1
  O  O265  1  0.90792497  0.06200562  0.77830471  1
  O  O266  1  0.91597789  0.41052686  0.27249835  1
  O  O267  1  0.89749310  0.39410923  0.77644702  1
  O  O268  1  0.91401790  0.73889617  0.27138393  1
  O  O269  1  0.91150643  0.74643370  0.77764273  1
  O  O270  1  0.27641195  0.23434874  0.27272574  1
  O  O271  1  0.26550132  0.23178421  0.75320461  1
  O  O272  1  0.26209897  0.56680630  0.27674059  1
  O  O273  1  0.25406253  0.58687458  0.77535537  1
  O  O274  1  0.26117999  0.89444476  0.28423893  1
  O  O275  1  0.25542247  0.90890994  0.77236412  1
  O  O276  1  0.59044871  0.23399648  0.28223331  1
  O  O277  1  0.59252480  0.23648669  0.76648476  1
  O  O278  1  0.60341014  0.56655400  0.26941828  1
  O  O279  1  0.58508003  0.58588775  0.76873200  1
  O  O280  1  0.58915340  0.90214426  0.26152916  1
  O  O281  1  0.60533888  0.90590378  0.77026158  1
  O  O282  1  0.93508262  0.23884512  0.27746090  1
  O  O283  1  0.94225158  0.22440734  0.76438126  1
  O  O284  1  0.94057088  0.57411960  0.27485686  1
  O  O285  1  0.93269004  0.56241850  0.77605013  1
  O  O286  1  0.92829639  0.89813622  0.27351756  1
  O  O287  1  0.93853036  0.90697676  0.77598390  1
  O  O288  1  0.27115064  0.23325602  0.47109337  1
  O  O289  1  0.26898611  0.23466161  0.99567958  1
  O  O290  1  0.26380565  0.57655388  0.47101107  1
  O  O291  1  0.26040841  0.57759321  0.97531813  1
  O  O292  1  0.25579833  0.90010851  0.47143734  1
  O  O293  1  0.26164298  0.90424556  0.98027273  1
  O  O294  1  0.59314537  0.23505278  0.46677351  1
  O  O295  1  0.59000462  0.23519090  0.98510479  1
  O  O296  1  0.59774271  0.56786983  0.47601590  1
  O  O297  1  0.58726542  0.57472366  0.98480614  1
  O  O298  1  0.59566232  0.90415902  0.48233465  1
  O  O299  1  0.59704991  0.89532631  0.97690434  1
  O  O300  1  0.93499092  0.23043434  0.47727399  1
  O  O301  1  0.92962439  0.23437332  0.97745426  1
  O  O302  1  0.93034009  0.56470751  0.47541444  1
  O  O303  1  0.92783163  0.56659716  0.97793799  1
  O  O304  1  0.93611539  0.90307235  0.47714153  1
  O  O305  1  0.92535727  0.90417964  0.96657312  1
  O  O306  1  0.22662104  0.06125602  0.47684771  1
  O  O307  1  0.23235690  0.06610372  0.97616427  1
  O  O308  1  0.24184206  0.40129663  0.47670524  1
  O  O309  1  0.24170307  0.41753217  0.99933301  1
  O  O310  1  0.23011061  0.74170471  0.47196063  1
  O  O311  1  0.24085513  0.73157400  0.97270925  1
  O  O312  1  0.58155912  0.07405062  0.48425139  1
  O  O313  1  0.56636714  0.07243250  0.99182765  1
  O  O314  1  0.56335351  0.39883654  0.47492248  1
  O  O315  1  0.56596122  0.41003246  0.98391847  1
  O  O316  1  0.57244215  0.74604183  0.48810990  1
  O  O317  1  0.56420351  0.73546828  0.98186791  1
  O  O318  1  0.90918696  0.07038984  0.47652644  1
  O  O319  1  0.90260122  0.07316625  0.96980896  1
  O  O320  1  0.91019412  0.41001750  0.47538898  1
  O  O321  1  0.90291860  0.40638263  0.98018876  1
  O  O322  1  0.91186851  0.74864864  0.47409587  1
  O  O323  1  0.90508923  0.74751457  0.97884726  1
  O  O324  1  0.09864324  0.26952146  0.22917870  1
  O  O325  1  0.09556840  0.26312492  0.70974721  1
  O  O326  1  0.10613173  0.60122217  0.24417948  1
  O  O327  1  0.09238384  0.59241341  0.72728845  1
  O  O328  1  0.10904789  0.93033408  0.23954217  1
  O  O329  1  0.09459406  0.93360147  0.71446558  1
  O  O330  1  0.43037574  0.26863000  0.22147376  1
  O  O331  1  0.42622143  0.25044617  0.73338540  1
  O  O332  1  0.42592625  0.59441495  0.21394339  1
  O  O333  1  0.41492445  0.59424928  0.73729905  1
  O  O334  1  0.43721135  0.92850863  0.22341338  1
  O  O335  1  0.42075194  0.92953891  0.73761362  1
  O  O336  1  0.76080838  0.25510922  0.23935512  1
  O  O337  1  0.75819355  0.25936169  0.74229895  1
  O  O338  1  0.75528964  0.59610676  0.23111132  1
  O  O339  1  0.75236796  0.59176139  0.74060890  1
  O  O340  1  0.76221522  0.91871258  0.23690671  1
  O  O341  1  0.76923271  0.93623686  0.72865433  1
  O  O342  1  0.07861817  0.08662441  0.23296264  1
  O  O343  1  0.06346900  0.09175956  0.71474597  1
  O  O344  1  0.07627115  0.42779790  0.23147316  1
  O  O345  1  0.06579914  0.43138896  0.71573045  1
  O  O346  1  0.06995629  0.76855350  0.24295358  1
  O  O347  1  0.06849382  0.77608569  0.72373335  1
  O  O348  1  0.40577360  0.10169920  0.22145008  1
  O  O349  1  0.39890541  0.09372672  0.72623307  1
  O  O350  1  0.39091497  0.43180596  0.22110347  1
  O  O351  1  0.39825596  0.43090081  0.72336139  1
  O  O352  1  0.41045599  0.76062904  0.23473592  1
  O  O353  1  0.40876721  0.75394172  0.73777732  1
  O  O354  1  0.74377998  0.09526152  0.24309902  1
  O  O355  1  0.74537130  0.08712406  0.72609924  1
  O  O356  1  0.73307260  0.43533708  0.22732448  1
  O  O357  1  0.73519869  0.42007758  0.73519801  1
  O  O358  1  0.73887025  0.75620241  0.23035249  1
  O  O359  1  0.73729475  0.75938879  0.74363366  1
