# generated using pymatgen
data_BaLaInIrO6
_symmetry_space_group_name_H-M   'P 1'
_cell_length_a   17.52211118
_cell_length_b   17.55553592
_cell_length_c   16.49443694
_cell_angle_alpha   89.99184467
_cell_angle_beta   90.00091346
_cell_angle_gamma   89.97634545
_symmetry_Int_Tables_number   1
_chemical_formula_structural   BaLaInIrO6
_chemical_formula_sum   'Ba36 La36 In36 Ir36 O216'
_cell_volume   5073.85412618
_cell_formula_units_Z   36
loop_
 _symmetry_equiv_pos_site_id
 _symmetry_equiv_pos_as_xyz
  1  'x, y, z'
loop_
 _atom_site_type_symbol
 _atom_site_label
 _atom_site_symmetry_multiplicity
 _atom_site_fract_x
 _atom_site_fract_y
 _atom_site_fract_z
 _atom_site_occupancy
  Ba  Ba0  1  0.33109064  0.82739466  0.37653457  1
  Ba  Ba1  1  -0.00489926  0.49251394  0.37535809  1
  Ba  Ba2  1  0.49719978  0.66195549  0.37329147  1
  Ba  Ba3  1  0.16677255  0.67051176  0.12601858  1
  Ba  Ba4  1  0.33235907  0.83513063  0.12699417  1
  Ba  Ba5  1  0.17017720  0.65946167  0.37360606  1
  Ba  Ba6  1  0.16169244  0.32332931  0.87574775  1
  Ba  Ba7  1  0.66539962  0.82090308  0.87448930  1
  Ba  Ba8  1  0.66599049  0.17255286  0.12028552  1
  Ba  Ba9  1  0.50145363  0.67213857  0.62190241  1
  Ba  Ba10  1  0.50323590  0.99207940  0.87504132  1
  Ba  Ba11  1  0.83176974  0.67783435  0.12981018  1
  Ba  Ba12  1  0.50097170  0.33545920  0.12587207  1
  Ba  Ba13  1  0.50180092  0.33967965  0.62563562  1
  Ba  Ba14  1  0.82511728  0.34092463  0.12339641  1
  Ba  Ba15  1  0.33161596  0.48771707  0.87376411  1
  Ba  Ba16  1  0.33365348  0.50446028  0.62741346  1
  Ba  Ba17  1  -0.00246359  0.15311445  0.37479135  1
  Ba  Ba18  1  0.16818745  0.00601206  0.12927952  1
  Ba  Ba19  1  0.16867349  0.65629622  0.87420989  1
  Ba  Ba20  1  0.82935535  0.68286566  0.62284726  1
  Ba  Ba21  1  0.50152214  0.65887704  0.87143385  1
  Ba  Ba22  1  0.16480619  0.33843992  0.12836053  1
  Ba  Ba23  1  0.33137958  0.83989799  0.62628745  1
  Ba  Ba24  1  0.50113885  0.99477135  0.37970078  1
  Ba  Ba25  1  0.33316069  0.50663714  0.12363108  1
  Ba  Ba26  1  1.00445531  0.50997185  0.12635749  1
  Ba  Ba27  1  0.16591478  0.99400896  0.37877756  1
  Ba  Ba28  1  0.16379737  0.01688980  0.62387871  1
  Ba  Ba29  1  0.00332211  0.82601235  0.37707643  1
  Ba  Ba30  1  0.66640621  0.15986094  0.87332791  1
  Ba  Ba31  1  0.33532139  0.49330823  0.37722558  1
  Ba  Ba32  1  0.33429922  0.16039520  0.37769077  1
  Ba  Ba33  1  0.66660842  0.15771209  0.36774370  1
  Ba  Ba34  1  0.33138382  0.16920368  0.62179554  1
  Ba  Ba35  1  0.66397257  0.49280517  0.37737203  1
  La  La36  1  1.00895673  0.85502221  0.62578402  1
  La  La37  1  -0.00793631  0.81846926  0.87243573  1
  La  La38  1  0.83727474  0.64870318  0.87085262  1
  La  La39  1  0.66685243  0.85068727  0.62506166  1
  La  La40  1  0.16444540  0.68312192  0.62481945  1
  La  La41  1  0.33787697  0.17426047  0.12623180  1
  La  La42  1  0.83735946  0.98770737  0.87332533  1
  La  La43  1  1.00580769  0.83465515  0.13100651  1
  La  La44  1  0.84023274  0.65152068  0.37776468  1
  La  La45  1  0.83235697  0.01311977  0.12503941  1
  La  La46  1  0.49563739  0.01482753  0.12694815  1
  La  La47  1  0.50014988  0.32562500  0.87040696  1
  La  La48  1  -0.00177122  0.48442605  0.87973058  1
  La  La49  1  0.83758726  0.31033129  0.37680086  1
  La  La50  1  0.66915042  0.52333267  0.62539257  1
  La  La51  1  0.17074176  0.33961616  0.61970721  1
  La  La52  1  -0.00460788  0.15193911  0.87251785  1
  La  La53  1  0.49623491  0.01056113  0.62647579  1
  La  La54  1  0.16485580  0.31668620  0.37473962  1
  La  La55  1  0.33344476  0.81576707  0.87390565  1
  La  La56  1  0.83325365  0.01715937  0.62359658  1
  La  La57  1  0.82565282  0.35407882  0.62516749  1
  La  La58  1  0.84145170  0.98469843  0.37533199  1
  La  La59  1  0.17082978  0.99023432  0.87700262  1
  La  La60  1  0.50360402  0.32113617  0.37523327  1
  La  La61  1  0.66010522  0.81773677  0.37936101  1
  La  La62  1  0.83987674  0.31172668  0.87288082  1
  La  La63  1  1.00961099  0.18396875  0.62101379  1
  La  La64  1  1.00305484  0.51727321  0.62704271  1
  La  La65  1  0.32785168  0.15878266  0.87744705  1
  La  La66  1  0.66815968  0.84764771  0.12705447  1
  La  La67  1  0.67477798  0.18099591  0.61819535  1
  La  La68  1  0.67448016  0.52136023  0.12408806  1
  La  La69  1  0.49513434  0.67905733  0.12562516  1
  La  La70  1  1.00582294  0.17805663  0.12710731  1
  La  La71  1  0.66088887  0.49143948  0.87310269  1
  In  In72  1  0.50356291  0.49766856  0.24803198  1
  In  In73  1  0.33457794  -0.00013858  0.75108591  1
  In  In74  1  -0.00534992  0.33536703  0.74493861  1
  In  In75  1  -0.00173913  0.67087980  0.50477512  1
  In  In76  1  0.50481387  0.49851260  0.00101278  1
  In  In77  1  0.33518437  -0.00284639  0.00076130  1
  In  In78  1  0.50547824  0.16577546  0.50253109  1
  In  In79  1  0.16477351  0.49889299  -0.00031457  1
  In  In80  1  0.00176892  -0.00245931  -0.00140554  1
  In  In81  1  0.33513071  0.66536402  0.24946177  1
  In  In82  1  0.33466754  0.33230635  0.49989795  1
  In  In83  1  0.83353708  0.83616431  0.74535752  1
  In  In84  1  -0.00487333  0.33086469  0.25288944  1
  In  In85  1  0.16795884  0.83537490  0.25106442  1
  In  In86  1  -0.00568524  0.33079750  0.00080438  1
  In  In87  1  0.33317704  0.33309552  0.25157045  1
  In  In88  1  0.83311848  0.83289707  0.00124993  1
  In  In89  1  -0.00294400  -0.00121000  0.24803386  1
  In  In90  1  0.16477715  0.83518758  0.75397914  1
  In  In91  1  0.33529264  0.66346092  -0.00179641  1
  In  In92  1  0.16592930  0.49641251  0.25382217  1
  In  In93  1  -0.00171277  0.66799767  0.25209781  1
  In  In94  1  0.16217893  0.50003387  0.74938505  1
  In  In95  1  0.49995704  0.83295833  0.50203742  1
  In  In96  1  0.49890405  0.16554486  -0.00568786  1
  In  In97  1  0.50319714  0.83330926  0.75015515  1
  In  In98  1  0.67070273  0.33632259  0.74907068  1
  In  In99  1  0.83057618  0.49641508  0.25070227  1
  In  In100  1  0.33068312  0.32745141  0.75095103  1
  In  In101  1  0.66892023  -0.00127726  -0.00233627  1
  In  In102  1  0.66722816  0.33422805  0.24879032  1
  In  In103  1  0.67308149  0.00081279  0.49603656  1
  In  In104  1  0.50221583  0.49945415  0.50223638  1
  In  In105  1  0.50266822  0.83947380  0.24986077  1
  In  In106  1  0.66794017  0.33520031  -0.00567462  1
  In  In107  1  -0.00426298  0.66842273  -0.00132345  1
  Ir  Ir108  1  0.32700718  0.66513157  0.50618568  1
  Ir  Ir109  1  0.15974622  0.16702782  0.75198396  1
  Ir  Ir110  1  0.16559088  0.83662913  0.50593982  1
  Ir  Ir111  1  0.66839329  0.66913566  0.00001289  1
  Ir  Ir112  1  0.16821844  0.16341592  0.24759403  1
  Ir  Ir113  1  0.67503283  0.66890035  0.50015122  1
  Ir  Ir114  1  0.16094078  0.49770682  0.50549048  1
  Ir  Ir115  1  0.50459064  0.83195992  0.00122480  1
  Ir  Ir116  1  0.00008063  0.00466861  0.74963847  1
  Ir  Ir117  1  0.83919678  0.16701692  0.50389399  1
  Ir  Ir118  1  0.16397425  0.83829034  -0.00625091  1
  Ir  Ir119  1  0.83270947  0.16093571  0.24944846  1
  Ir  Ir120  1  0.82788748  0.83566640  0.25440576  1
  Ir  Ir121  1  0.50391557  0.16582711  0.74857200  1
  Ir  Ir122  1  0.33289852  0.32589320  -0.00054668  1
  Ir  Ir123  1  0.50257329  0.50124632  0.75133362  1
  Ir  Ir124  1  0.66982791  0.67164261  0.24992404  1
  Ir  Ir125  1  0.67194425  0.66788952  0.75026575  1
  Ir  Ir126  1  0.66973519  0.00505059  0.74521953  1
  Ir  Ir127  1  -0.00577415  -0.00051822  0.50315940  1
  Ir  Ir128  1  0.33315766  0.66513285  0.74723638  1
  Ir  Ir129  1  0.16154287  0.16798211  0.50066750  1
  Ir  Ir130  1  0.83759369  0.16284717  0.74634814  1
  Ir  Ir131  1  0.83125255  0.50200866  0.75019713  1
  Ir  Ir132  1  0.16385526  0.16470320  0.00032768  1
  Ir  Ir133  1  -0.00299087  0.66741476  0.74930501  1
  Ir  Ir134  1  0.33428746  0.00466591  0.25181647  1
  Ir  Ir135  1  0.82620140  0.50306803  -0.00681550  1
  Ir  Ir136  1  -0.00509177  0.33423297  0.50270726  1
  Ir  Ir137  1  0.50141095  0.16241597  0.24974579  1
  Ir  Ir138  1  0.67149424  -0.00101935  0.24820901  1
  Ir  Ir139  1  0.67493885  0.33263488  0.50093495  1
  Ir  Ir140  1  0.83686264  0.16215200  -0.00508786  1
  Ir  Ir141  1  0.33099559  0.00076898  0.50209150  1
  Ir  Ir142  1  0.83285834  0.49775157  0.50504249  1
  Ir  Ir143  1  0.83279713  0.83748814  0.50018326  1
  O  O144  1  0.31354364  0.31509657  0.12056066  1
  O  O145  1  0.30361386  0.32399063  0.62501210  1
  O  O146  1  0.31923143  0.67521165  0.12120453  1
  O  O147  1  0.30083036  0.66231328  0.62697189  1
  O  O148  1  0.31784669  1.00551480  0.13154760  1
  O  O149  1  0.31157029  1.00282066  0.62232326  1
  O  O150  1  0.65600394  0.32521461  0.12033676  1
  O  O151  1  0.65574162  0.32120642  0.62207648  1
  O  O152  1  0.63751042  0.66112960  0.12427764  1
  O  O153  1  0.65113637  0.65843349  0.62575453  1
  O  O154  1  0.63644387  0.98943384  0.13042902  1
  O  O155  1  0.63891968  0.99431673  0.62744867  1
  O  O156  1  0.97433527  0.31328566  0.12507680  1
  O  O157  1  0.96084175  0.32187156  0.62097309  1
  O  O158  1  0.97946770  0.68851390  0.12391971  1
  O  O159  1  0.97460145  0.65646165  0.63137808  1
  O  O160  1  0.96758680  0.98091128  0.12204539  1
  O  O161  1  0.96803460  0.99179107  0.62744921  1
  O  O162  1  0.19814514  0.16158142  0.12330340  1
  O  O163  1  0.18125522  0.17350825  0.62557560  1
  O  O164  1  0.18260763  0.49073096  0.12487963  1
  O  O165  1  0.17904137  0.48035028  0.62243234  1
  O  O166  1  0.17811029  0.83634147  0.11313915  1
  O  O167  1  0.17822061  0.83178617  0.62732497  1
  O  O168  1  0.51540699  0.15517105  0.12876391  1
  O  O169  1  0.53953636  0.15701415  0.63149160  1
  O  O170  1  0.54484268  0.48752574  0.12309582  1
  O  O171  1  0.53320700  0.49876032  0.63143813  1
  O  O172  1  0.53291360  0.82352278  0.12143541  1
  O  O173  1  0.53333919  0.83010873  0.62485152  1
  O  O174  1  0.86672329  0.15145674  0.12201192  1
  O  O175  1  0.87324346  0.15387664  0.62508031  1
  O  O176  1  0.84820523  0.50074752  0.11246865  1
  O  O177  1  0.86521661  0.48985178  0.62870410  1
  O  O178  1  0.86492564  0.83152093  0.13539426  1
  O  O179  1  0.87051248  0.83517797  0.61876558  1
  O  O180  1  0.14222935  0.17382439  0.37440879  1
  O  O181  1  0.12994617  0.16710870  0.87617414  1
  O  O182  1  0.14279257  0.50530928  0.38956771  1
  O  O183  1  0.13295327  0.49924714  0.87240211  1
  O  O184  1  0.15427568  0.83524478  0.38593315  1
  O  O185  1  0.13084190  0.84348935  0.87602404  1
  O  O186  1  0.48920132  0.17360202  0.37072374  1
  O  O187  1  0.46744998  0.17146294  0.86608967  1
  O  O188  1  0.49058328  0.50859038  0.37722175  1
  O  O189  1  0.48205024  0.50656215  0.86910065  1
  O  O190  1  0.48801797  0.83768019  0.37703180  1
  O  O191  1  0.47383035  0.83772050  0.87952543  1
  O  O192  1  0.81269149  0.17330321  0.37886106  1
  O  O193  1  0.81252682  0.17291594  0.87009005  1
  O  O194  1  0.81412876  0.51108110  0.38566379  1
  O  O195  1  0.79719426  0.51180877  0.87065225  1
  O  O196  1  0.79477449  0.84902351  0.37763098  1
  O  O197  1  0.81065137  0.85448641  0.87034235  1
  O  O198  1  0.01107542  -0.00019803  0.38178738  1
  O  O199  1  0.03243863  0.01700534  0.86811092  1
  O  O200  1  0.02685103  0.33311600  0.38516989  1
  O  O201  1  0.00579917  0.34142532  0.87173664  1
  O  O202  1  0.01176408  0.66784581  0.38146935  1
  O  O203  1  0.01855978  0.67873762  0.86663368  1
  O  O204  1  0.35283214  0.00092421  0.37663217  1
  O  O205  1  0.35460492  0.02203677  0.87496343  1
  O  O206  1  0.36816112  0.32943597  0.37594280  1
  O  O207  1  0.36030926  0.32261416  0.87780627  1
  O  O208  1  0.34231298  0.66832180  0.38746368  1
  O  O209  1  0.35052991  0.67797995  0.86841793  1
  O  O210  1  0.70641143  0.00542903  0.36776271  1
  O  O211  1  0.70133773  0.00563987  0.86662358  1
  O  O212  1  0.70370204  0.33527003  0.38218151  1
  O  O213  1  0.70861922  0.34639340  0.86979817  1
  O  O214  1  0.70438884  0.68090592  0.37495862  1
  O  O215  1  0.70129430  0.67113539  0.87539518  1
  O  O216  1  0.06714791  0.10170779  0.02298787  1
  O  O217  1  0.06231728  0.09610955  0.52453683  1
  O  O218  1  0.06254265  0.42730514  0.00516171  1
  O  O219  1  0.06190963  0.43005965  0.52990136  1
  O  O220  1  0.06313301  0.78075571  0.00931338  1
  O  O221  1  0.07293608  0.76711755  0.53158622  1
  O  O222  1  0.40336886  0.09474388  0.02452179  1
  O  O223  1  0.41142146  0.08154652  0.51826318  1
  O  O224  1  0.40648238  0.41363744  0.01181918  1
  O  O225  1  0.41062557  0.42425568  0.52036853  1
  O  O226  1  0.41344529  0.76528164  0.01064516  1
  O  O227  1  0.40043177  0.75382952  0.51826640  1
  O  O228  1  0.75142480  0.08935596  0.01949409  1
  O  O229  1  0.74731629  0.09925671  0.53098012  1
  O  O230  1  0.72970808  0.44435138  0.01381636  1
  O  O231  1  0.73800918  0.43006500  0.53024642  1
  O  O232  1  0.72976713  0.76523912  0.02683584  1
  O  O233  1  0.73507290  0.77442920  0.52056085  1
  O  O234  1  0.09167324  0.25100300  0.02046071  1
  O  O235  1  0.09059424  0.26471658  0.52660438  1
  O  O236  1  0.08763568  0.59590384  0.01206382  1
  O  O237  1  0.09606549  0.59285602  0.53479999  1
  O  O238  1  0.10591832  0.93636699  0.00408094  1
  O  O239  1  0.08776871  0.92701626  0.52647827  1
  O  O240  1  0.41655770  0.25305237  0.01832572  1
  O  O241  1  0.42740906  0.25257433  0.51653668  1
  O  O242  1  0.43833638  0.59671767  0.02224544  1
  O  O243  1  0.41657475  0.59491392  0.51741855  1
  O  O244  1  0.44021831  0.92741899  0.02467842  1
  O  O245  1  0.42464139  0.93200093  0.52527347  1
  O  O246  1  0.76852504  0.25508014  0.00410323  1
  O  O247  1  0.77356052  0.26439418  0.52744877  1
  O  O248  1  0.76573941  0.60366018  0.01209276  1
  O  O249  1  0.76401981  0.59108899  0.52375034  1
  O  O250  1  0.76334378  0.92864620  0.03117114  1
  O  O251  1  0.77215625  0.93292629  0.52716438  1
  O  O252  1  0.24153570  0.07539190  0.26985244  1
  O  O253  1  0.22777734  0.07324572  0.77463650  1
  O  O254  1  0.23212899  0.39476580  0.28291069  1
  O  O255  1  0.23348578  0.40039869  0.75863984  1
  O  O256  1  0.24568636  0.74752307  0.26201031  1
  O  O257  1  0.24289333  0.73843183  0.75992769  1
  O  O258  1  0.57380416  0.06645095  0.26318285  1
  O  O259  1  0.57741061  0.07413333  0.76874220  1
  O  O260  1  0.56840172  0.39558609  0.28117131  1
  O  O261  1  0.57337992  0.41123608  0.77546603  1
  O  O262  1  0.58543639  0.74422038  0.26802268  1
  O  O263  1  0.58017034  0.73582195  0.76371687  1
  O  O264  1  0.89484538  0.06489367  0.26549325  1
  O  O265  1  0.90138069  0.06624646  0.77344349  1
  O  O266  1  0.89352196  0.39534764  0.27731937  1
  O  O267  1  0.88534570  0.40055001  0.76711308  1
  O  O268  1  0.88889466  0.74323337  0.28216406  1
  O  O269  1  0.90325947  0.73559215  0.77446396  1
  O  O270  1  0.25474361  0.23529204  0.26554364  1
  O  O271  1  0.25766809  0.22607724  0.77528631  1
  O  O272  1  0.26238965  0.57036972  0.26486705  1
  O  O273  1  0.26081212  0.57743467  0.76249306  1
  O  O274  1  0.26253341  0.91770817  0.26270828  1
  O  O275  1  0.26177469  0.90457071  0.78372861  1
  O  O276  1  0.58645433  0.23781818  0.26284363  1
  O  O277  1  0.58555097  0.24713935  0.77236862  1
  O  O278  1  0.60394165  0.58171383  0.26236262  1
  O  O279  1  0.60641780  0.56819585  0.76621279  1
  O  O280  1  0.60912895  0.90490715  0.27116028  1
  O  O281  1  0.60391963  0.91251069  0.76313415  1
  O  O282  1  0.92141947  0.23144311  0.26853250  1
  O  O283  1  0.93064933  0.22865746  0.77093562  1
  O  O284  1  0.91431779  0.57978195  0.26635769  1
  O  O285  1  0.93075451  0.56807854  0.77660740  1
  O  O286  1  0.91467669  0.90546155  0.27726961  1
  O  O287  1  0.93602736  0.90932265  0.77292795  1
  O  O288  1  0.24575398  0.24336745  0.47873801  1
  O  O289  1  0.26327978  0.22848153  0.97939990  1
  O  O290  1  0.25523890  0.56578170  0.49092977  1
  O  O291  1  0.25989509  0.57267406  0.97906732  1
  O  O292  1  0.25797245  0.91044163  0.48593167  1
  O  O293  1  0.26167872  0.90326610  0.96913527  1
  O  O294  1  0.60883829  0.23993718  0.48748946  1
  O  O295  1  0.58112531  0.25067589  0.96905868  1
  O  O296  1  0.60586203  0.57565285  0.49622147  1
  O  O297  1  0.60956740  0.57252349  0.97833465  1
  O  O298  1  0.60870871  0.89851317  0.48628760  1
  O  O299  1  0.59642273  0.89839365  0.98927466  1
  O  O300  1  0.92924370  0.23963439  0.47906968  1
  O  O301  1  0.92761640  0.23055764  0.97134703  1
  O  O302  1  0.92242595  0.56938303  0.49253022  1
  O  O303  1  0.92086929  0.56702870  0.96735351  1
  O  O304  1  0.92531044  0.90623125  0.47978624  1
  O  O305  1  0.92974893  0.90504999  0.96583160  1
  O  O306  1  0.23773019  0.07707218  0.48317688  1
  O  O307  1  0.23212441  0.07403110  0.97417563  1
  O  O308  1  0.22165528  0.39873022  0.48478727  1
  O  O309  1  0.24628773  0.39606056  0.98310790  1
  O  O310  1  0.22800696  0.73548330  0.50068793  1
  O  O311  1  0.23813845  0.75263769  0.97407639  1
  O  O312  1  0.57973496  0.07351243  0.48816729  1
  O  O313  1  0.57655550  0.07333213  0.98972932  1
  O  O314  1  0.57918906  0.39386223  0.47892061  1
  O  O315  1  0.57486289  0.40831731  0.95662789  1
  O  O316  1  0.58540727  0.73742734  0.47984128  1
  O  O317  1  0.57009417  0.73307621  0.98618604  1
  O  O318  1  0.89650944  0.06486721  0.48252188  1
  O  O319  1  0.90384801  0.06980290  0.97043402  1
  O  O320  1  0.89452785  0.39700200  0.48350125  1
  O  O321  1  0.88824598  0.40641938  0.97132257  1
  O  O322  1  0.89373596  0.74177247  0.47676763  1
  O  O323  1  0.89884773  0.73731326  0.96499605  1
  O  O324  1  0.09134819  0.24718052  0.23360140  1
  O  O325  1  0.09532279  0.26371030  0.72326157  1
  O  O326  1  0.08901649  0.59063582  0.23807450  1
  O  O327  1  0.09199306  0.60334819  0.72231339  1
  O  O328  1  0.08518910  0.92131408  0.23317856  1
  O  O329  1  0.08960423  0.93426978  0.73207500  1
  O  O330  1  0.42551423  0.24605843  0.23239853  1
  O  O331  1  0.42952670  0.25105949  0.73039682  1
  O  O332  1  0.43777884  0.59761494  0.22340758  1
  O  O333  1  0.42721943  0.59235660  0.72928415  1
  O  O334  1  0.43006434  0.93935530  0.22872725  1
  O  O335  1  0.43261898  0.92974593  0.72591145  1
  O  O336  1  0.76448113  0.25361112  0.24254922  1
  O  O337  1  0.77159414  0.25826212  0.72366032  1
  O  O338  1  0.75543323  0.59885994  0.23668791  1
  O  O339  1  0.76854040  0.60059517  0.73593453  1
  O  O340  1  0.76428537  0.93199042  0.22107451  1
  O  O341  1  0.76210894  0.93790886  0.71875788  1
  O  O342  1  0.07165923  0.09609336  0.22541890  1
  O  O343  1  0.05864530  0.10637228  0.72890175  1
  O  O344  1  0.06960001  0.42085741  0.23982383  1
  O  O345  1  0.05171400  0.44077717  0.73392177  1
  O  O346  1  0.06778494  0.76664016  0.23512179  1
  O  O347  1  0.06034258  0.76419439  0.72727383  1
  O  O348  1  0.40620791  0.09414624  0.22789923  1
  O  O349  1  0.42186794  0.08888930  0.72289040  1
  O  O350  1  0.40791848  0.42358965  0.22987981  1
  O  O351  1  0.41700771  0.42391435  0.73961399  1
  O  O352  1  0.42002353  0.75560075  0.23214186  1
  O  O353  1  0.40328152  0.75645798  0.73843047  1
  O  O354  1  0.74300043  0.08775051  0.22008504  1
  O  O355  1  0.73994297  0.09832769  0.71710406  1
  O  O356  1  0.73007422  0.43683895  0.22532119  1
  O  O357  1  0.73654870  0.43960824  0.72069672  1
  O  O358  1  0.73383564  0.77144008  0.22860857  1
  O  O359  1  0.73272698  0.76700702  0.72414653  1
