# generated using pymatgen
data_BaLaInIrO6
_symmetry_space_group_name_H-M   'P 1'
_cell_length_a   17.54562906
_cell_length_b   17.58458929
_cell_length_c   16.49090160
_cell_angle_alpha   90.03993942
_cell_angle_beta   89.95545865
_cell_angle_gamma   90.05686083
_symmetry_Int_Tables_number   1
_chemical_formula_structural   BaLaInIrO6
_chemical_formula_sum   'Ba36 La36 In36 Ir36 O216'
_cell_volume   5087.97680748
_cell_formula_units_Z   36
loop_
 _symmetry_equiv_pos_site_id
 _symmetry_equiv_pos_as_xyz
  1  'x, y, z'
loop_
 _atom_site_type_symbol
 _atom_site_label
 _atom_site_symmetry_multiplicity
 _atom_site_fract_x
 _atom_site_fract_y
 _atom_site_fract_z
 _atom_site_occupancy
  Ba  Ba0  1  0.83025519  0.34169081  0.12555612  1
  Ba  Ba1  1  0.50215941  0.67696911  0.62535208  1
  Ba  Ba2  1  0.33792728  0.16125581  0.87623370  1
  Ba  Ba3  1  0.16202491  0.32308482  0.37298883  1
  Ba  Ba4  1  -0.00071594  0.82418716  0.37358310  1
  Ba  Ba5  1  0.16383475  0.99244356  0.37308438  1
  Ba  Ba6  1  0.67198107  0.51761633  0.62375469  1
  Ba  Ba7  1  0.50270639  0.00682183  0.12407080  1
  Ba  Ba8  1  0.67077100  0.17567406  0.62463402  1
  Ba  Ba9  1  0.83624964  0.32589936  0.87348888  1
  Ba  Ba10  1  0.50287382  0.34043253  0.62550385  1
  Ba  Ba11  1  0.83029051  0.01159666  0.12553210  1
  Ba  Ba12  1  0.16632070  0.66018932  0.37583192  1
  Ba  Ba13  1  0.16744563  0.34183428  0.12587111  1
  Ba  Ba14  1  0.66369595  0.49238200  0.87249423  1
  Ba  Ba15  1  0.67060882  0.49287658  0.37558821  1
  Ba  Ba16  1  0.33860938  0.17418068  0.62555684  1
  Ba  Ba17  1  0.82857140  0.67596798  0.12681732  1
  Ba  Ba18  1  0.66764438  0.16022109  0.87373664  1
  Ba  Ba19  1  0.49851321  0.00764871  0.62603928  1
  Ba  Ba20  1  -0.00330621  0.82434519  0.87199418  1
  Ba  Ba21  1  0.82569917  0.34769070  0.62579248  1
  Ba  Ba22  1  0.33568486  0.17266273  0.12442170  1
  Ba  Ba23  1  0.16399948  0.32526344  0.87597232  1
  Ba  Ba24  1  0.50131708  0.67675717  0.12178923  1
  Ba  Ba25  1  0.99826827  0.50883528  0.62983649  1
  Ba  Ba26  1  0.82969944  0.67694551  0.62474501  1
  Ba  Ba27  1  0.33195798  0.50798151  0.12415477  1
  Ba  Ba28  1  -0.00024964  0.49240826  0.87447770  1
  Ba  Ba29  1  0.49664661  0.34056841  0.12377078  1
  Ba  Ba30  1  0.16915399  0.65857767  0.87655426  1
  Ba  Ba31  1  0.16653088  0.00732606  0.62453286  1
  Ba  Ba32  1  0.16753685  0.67545851  0.12505646  1
  Ba  Ba33  1  -0.00215713  0.15047567  0.37299934  1
  Ba  Ba34  1  0.49658324  0.66145197  0.87163918  1
  Ba  Ba35  1  0.49977914  0.99222080  0.87224521  1
  La  La36  1  0.66554668  0.84253707  0.62924814  1
  La  La37  1  0.67152948  0.85059088  0.12651620  1
  La  La38  1  0.83939655  0.64674115  0.87211758  1
  La  La39  1  -0.01175968  0.48436826  0.37148586  1
  La  La40  1  0.66529255  0.15093152  0.36967030  1
  La  La41  1  0.82797674  0.00707649  0.61992460  1
  La  La42  1  1.00165466  0.84617476  0.62225901  1
  La  La43  1  0.83668293  0.98964009  0.87618842  1
  La  La44  1  0.83894427  0.98108460  0.36955219  1
  La  La45  1  0.50106580  0.98183808  0.37297103  1
  La  La46  1  0.66379053  0.81889681  0.37696403  1
  La  La47  1  0.32728290  0.15436110  0.37307964  1
  La  La48  1  0.32913713  0.48608355  0.87824212  1
  La  La49  1  0.17212474  0.98763022  0.87665867  1
  La  La50  1  0.50435131  0.65229413  0.37706978  1
  La  La51  1  0.66138566  0.82548188  0.87639787  1
  La  La52  1  0.15987630  0.68147248  0.62874429  1
  La  La53  1  1.00340071  0.18281503  0.12917734  1
  La  La54  1  -0.00903137  0.15569904  0.87969328  1
  La  La55  1  0.32826405  0.81933700  0.37724730  1
  La  La56  1  0.67125532  0.18077084  0.12289943  1
  La  La57  1  1.00132757  0.85274642  0.12854305  1
  La  La58  1  1.00538799  0.17738187  0.62564773  1
  La  La59  1  0.16222187  0.01688038  0.12714515  1
  La  La60  1  0.32946236  0.82584733  0.87387419  1
  La  La61  1  0.84128414  0.31081963  0.37721198  1
  La  La62  1  0.33920357  0.51463774  0.62343404  1
  La  La63  1  0.33137335  0.48505070  0.37494686  1
  La  La64  1  0.50189900  0.31298056  0.37435030  1
  La  La65  1  0.66305085  0.51341291  0.11888281  1
  La  La66  1  1.00910671  0.51739585  0.12369503  1
  La  La67  1  0.33831783  0.83694185  0.12818554  1
  La  La68  1  0.83899640  0.64992729  0.37660052  1
  La  La69  1  0.33761232  0.84498647  0.62519151  1
  La  La70  1  0.16009262  0.34468665  0.62552290  1
  La  La71  1  0.50461287  0.31597755  0.87405267  1
  In  In72  1  0.83473116  0.16287736  0.74948899  1
  In  In73  1  0.66973869  0.33125307  0.49529558  1
  In  In74  1  0.66613838  -0.00255383  0.49643858  1
  In  In75  1  0.16233764  0.50000170  0.25600078  1
  In  In76  1  0.49935407  0.50032695  0.74775811  1
  In  In77  1  0.33236106  0.00194143  0.75046877  1
  In  In78  1  -0.00053744  0.66719952  0.50200754  1
  In  In79  1  0.66830371  0.00209100  -0.00264155  1
  In  In80  1  0.83259891  0.49947605  0.24446086  1
  In  In81  1  0.16649947  0.83483765  0.50135488  1
  In  In82  1  0.33426699  0.33086374  0.25180722  1
  In  In83  1  -0.00329703  0.67227024  0.00035182  1
  In  In84  1  0.33555650  -0.00236377  0.24897952  1
  In  In85  1  0.66723766  0.33508505  -0.00060686  1
  In  In86  1  0.33188976  0.33343567  0.49947640  1
  In  In87  1  0.66778524  0.66881457  0.25268535  1
  In  In88  1  -0.00103050  0.33130813  0.75044473  1
  In  In89  1  0.33768729  0.66350819  0.25337908  1
  In  In90  1  0.16774305  0.16506082  0.50043539  1
  In  In91  1  0.83192667  0.83332697  0.00051259  1
  In  In92  1  0.66620191  0.33658982  0.25158848  1
  In  In93  1  0.66722271  0.66937272  -0.00219610  1
  In  In94  1  0.83268535  0.83292542  0.74954473  1
  In  In95  1  -0.00284372  0.33243185  0.50347443  1
  In  In96  1  0.33194160  0.33354109  0.74768396  1
  In  In97  1  0.16662651  0.50217559  0.50018804  1
  In  In98  1  0.16534225  0.83533105  0.00233785  1
  In  In99  1  0.33236559  -0.00208062  0.00096764  1
  In  In100  1  0.00131747  0.00041609  0.75198850  1
  In  In101  1  0.17035267  0.50198913  0.74973686  1
  In  In102  1  0.33641083  -0.00139791  0.49725711  1
  In  In103  1  0.16837910  0.83317586  0.24997651  1
  In  In104  1  0.50210534  0.49700043  0.49903951  1
  In  In105  1  -0.00033804  0.33586883  0.00279898  1
  In  In106  1  0.49757076  0.49951782  -0.00389532  1
  In  In107  1  0.33317047  0.33110285  -0.00082451  1
  Ir  Ir108  1  0.00141172  0.00453543  0.00359466  1
  Ir  Ir109  1  -0.00947105  -0.00232644  0.49911300  1
  Ir  Ir110  1  0.83552052  0.50160629  -0.00009137  1
  Ir  Ir111  1  0.33721101  0.66933203  0.50297490  1
  Ir  Ir112  1  -0.00164845  0.66845426  0.74940955  1
  Ir  Ir113  1  0.66765718  0.33309697  0.75016193  1
  Ir  Ir114  1  0.33328035  0.67034360  -0.00314405  1
  Ir  Ir115  1  0.50116159  0.16405652  0.49431356  1
  Ir  Ir116  1  0.15961700  0.16400364  -0.00054427  1
  Ir  Ir117  1  0.82979879  0.50304596  0.74996022  1
  Ir  Ir118  1  0.50496661  0.16384728  0.00181163  1
  Ir  Ir119  1  0.50365772  0.83363214  0.25213791  1
  Ir  Ir120  1  0.83600957  0.16387729  0.00436595  1
  Ir  Ir121  1  0.50325801  0.16174743  0.25303457  1
  Ir  Ir122  1  0.83144459  0.83428050  0.49823149  1
  Ir  Ir123  1  0.83095752  0.16307013  0.24955698  1
  Ir  Ir124  1  0.67026973  0.67408308  0.49951089  1
  Ir  Ir125  1  0.83424192  0.15994114  0.49642448  1
  Ir  Ir126  1  -0.00669736  0.33082693  0.25092862  1
  Ir  Ir127  1  -0.00398608  0.00080400  0.24811153  1
  Ir  Ir128  1  0.16611836  0.83126458  0.74910198  1
  Ir  Ir129  1  0.49869312  0.83231557  -0.00046050  1
  Ir  Ir130  1  0.66866992  -0.00098793  0.25358900  1
  Ir  Ir131  1  0.16331677  0.16426989  0.24779166  1
  Ir  Ir132  1  0.50036804  0.50102559  0.25392409  1
  Ir  Ir133  1  0.50052723  0.83045448  0.49751784  1
  Ir  Ir134  1  0.16627891  0.50414021  0.00164192  1
  Ir  Ir135  1  0.83165844  0.83483142  0.25205148  1
  Ir  Ir136  1  0.50108209  0.83209335  0.74951293  1
  Ir  Ir137  1  0.66882086  -0.00249213  0.74546211  1
  Ir  Ir138  1  0.33066127  0.67147927  0.74783217  1
  Ir  Ir139  1  -0.00472579  0.66837625  0.24988536  1
  Ir  Ir140  1  0.50632057  0.16657319  0.74613079  1
  Ir  Ir141  1  0.66889044  0.67364104  0.74957503  1
  Ir  Ir142  1  0.16314536  0.16515542  0.75260143  1
  Ir  Ir143  1  0.83245415  0.50241149  0.49984508  1
  O  O144  1  0.32060854  0.32595646  0.12602031  1
  O  O145  1  0.29485257  0.32394887  0.62395375  1
  O  O146  1  0.31918629  0.67099830  0.11822051  1
  O  O147  1  0.29988167  0.65753921  0.62526660  1
  O  O148  1  0.30077667  0.98461759  0.12490949  1
  O  O149  1  0.31891946  0.98630235  0.62561928  1
  O  O150  1  0.64861154  0.31799893  0.12678465  1
  O  O151  1  0.65428056  0.33222177  0.62793156  1
  O  O152  1  0.65499598  0.65047658  0.12777025  1
  O  O153  1  0.64913506  0.67527949  0.62417229  1
  O  O154  1  0.64958920  0.98851585  0.13286733  1
  O  O155  1  0.64517961  0.98452222  0.62446979  1
  O  O156  1  0.97822351  0.32006660  0.12997229  1
  O  O157  1  0.97242915  0.31164314  0.62657762  1
  O  O158  1  0.97641024  0.65635372  0.13073039  1
  O  O159  1  0.97752255  0.66994908  0.63147717  1
  O  O160  1  0.97546345  0.99097942  0.12597771  1
  O  O161  1  0.96466467  0.98944100  0.62013987  1
  O  O162  1  0.18576257  0.15467411  0.12206309  1
  O  O163  1  0.18724503  0.15874007  0.63370486  1
  O  O164  1  0.17819690  0.50552956  0.12264667  1
  O  O165  1  0.20500802  0.48679416  0.62509567  1
  O  O166  1  0.20172023  0.83357178  0.12592388  1
  O  O167  1  0.19802461  0.82410545  0.63019609  1
  O  O168  1  0.53574692  0.15996128  0.12838889  1
  O  O169  1  0.52573808  0.16185109  0.61922589  1
  O  O170  1  0.53016291  0.49527453  0.13295067  1
  O  O171  1  0.52410922  0.50410315  0.62337416  1
  O  O172  1  0.53531058  0.83105711  0.12676267  1
  O  O173  1  0.53195016  0.83131380  0.62334325  1
  O  O174  1  0.86510147  0.16381188  0.12773187  1
  O  O175  1  0.86693277  0.14652878  0.61606674  1
  O  O176  1  0.86831050  0.50273641  0.11868302  1
  O  O177  1  0.84708335  0.50745364  0.62484781  1
  O  O178  1  0.86552645  0.83078704  0.13245683  1
  O  O179  1  0.86466504  0.83354110  0.61776049  1
  O  O180  1  0.14510016  0.16222563  0.36741229  1
  O  O181  1  0.12787668  0.16716250  0.87684361  1
  O  O182  1  0.12026067  0.50668637  0.37726129  1
  O  O183  1  0.14901379  0.50486240  0.88264022  1
  O  O184  1  0.14810560  0.83196344  0.37585877  1
  O  O185  1  0.14307886  0.84198567  0.86880395  1
  O  O186  1  0.46807813  0.16955622  0.37395853  1
  O  O187  1  0.48765556  0.17745396  0.87372727  1
  O  O188  1  0.47026318  0.51484509  0.37352826  1
  O  O189  1  0.46589051  0.50725448  0.86967563  1
  O  O190  1  0.46779028  0.83996018  0.37453539  1
  O  O191  1  0.46731319  0.83505522  0.87588122  1
  O  O192  1  0.80119945  0.17079105  0.37317562  1
  O  O193  1  0.81870921  0.16329018  0.88475332  1
  O  O194  1  0.82202446  0.50741012  0.37999488  1
  O  O195  1  0.81138195  0.50728774  0.87435677  1
  O  O196  1  0.79917491  0.84372571  0.37545006  1
  O  O197  1  0.79910079  0.85246933  0.87354742  1
  O  O198  1  0.01528791  -0.00269430  0.37294784  1
  O  O199  1  0.03433279  0.01293366  0.88372414  1
  O  O200  1  0.00922196  0.34150360  0.37219573  1
  O  O201  1  0.01109246  0.33125098  0.87736173  1
  O  O202  1  0.01309469  0.67069639  0.36938180  1
  O  O203  1  0.01747467  0.66712477  0.86868849  1
  O  O204  1  0.36787150  0.01445928  0.37289678  1
  O  O205  1  0.34914963  0.00031968  0.87455200  1
  O  O206  1  0.37028194  0.34396539  0.37391961  1
  O  O207  1  0.36644294  0.33752978  0.87381961  1
  O  O208  1  0.37023082  0.68455411  0.38459041  1
  O  O209  1  0.35177630  0.68941212  0.87048371  1
  O  O210  1  0.70088809  0.00991991  0.37143462  1
  O  O211  1  0.69905700  0.00121363  0.86608175  1
  O  O212  1  0.70780157  0.33462039  0.37174349  1
  O  O213  1  0.68626473  0.33038418  0.87005698  1
  O  O214  1  0.69970149  0.68352525  0.38108175  1
  O  O215  1  0.69926369  0.68522992  0.86896584  1
  O  O216  1  0.06441680  0.09908414  0.02919551  1
  O  O217  1  0.05887090  0.08944732  0.52227628  1
  O  O218  1  0.07326073  0.43510871  0.02405863  1
  O  O219  1  0.07770720  0.41972668  0.52847908  1
  O  O220  1  0.06356735  0.77217800  0.02558140  1
  O  O221  1  0.07120407  0.76354736  0.53099876  1
  O  O222  1  0.41402837  0.09139122  0.01485462  1
  O  O223  1  0.41233561  0.09673342  0.51327241  1
  O  O224  1  0.40142175  0.43077041  0.01152939  1
  O  O225  1  0.39835521  0.43621270  0.52153224  1
  O  O226  1  0.39851332  0.76727505  0.01830548  1
  O  O227  1  0.40212649  0.76763232  0.52759573  1
  O  O228  1  0.74012804  0.10095682  0.02445026  1
  O  O229  1  0.74482530  0.09061374  0.51686600  1
  O  O230  1  0.73871378  0.43622877  0.02269481  1
  O  O231  1  0.74112882  0.43385882  0.51300083  1
  O  O232  1  0.72926816  0.76978241  0.02732429  1
  O  O233  1  0.73255840  0.77472068  0.52090652  1
  O  O234  1  0.09164240  0.25339298  0.02248525  1
  O  O235  1  0.09406366  0.25652645  0.52643224  1
  O  O236  1  0.09001492  0.59176299  0.01847770  1
  O  O237  1  0.10191542  0.60325624  0.52962918  1
  O  O238  1  0.09523091  0.93918307  0.02734391  1
  O  O239  1  0.08015616  0.92588582  0.52317617  1
  O  O240  1  0.43396620  0.25232882  0.00824156  1
  O  O241  1  0.43751608  0.25842881  0.50918216  1
  O  O242  1  0.42162740  0.60118485  0.01042501  1
  O  O243  1  0.42694344  0.60201461  0.51446696  1
  O  O244  1  0.42207921  0.91361165  0.02686538  1
  O  O245  1  0.43443627  0.92165165  0.51250871  1
  O  O246  1  0.76373991  0.25282677  0.01978657  1
  O  O247  1  0.76788366  0.25269266  0.51157074  1
  O  O248  1  0.76645761  0.59169376  0.00796983  1
  O  O249  1  0.76803895  0.60494741  0.50572104  1
  O  O250  1  0.75731546  0.92674728  0.02046344  1
  O  O251  1  0.76581394  0.92714880  0.52006899  1
  O  O252  1  0.23652832  0.07545814  0.26087814  1
  O  O253  1  0.22602680  0.06874770  0.77519689  1
  O  O254  1  0.24096322  0.40851769  0.27003144  1
  O  O255  1  0.24811641  0.41444702  0.78405156  1
  O  O256  1  0.24928708  0.74189845  0.27164762  1
  O  O257  1  0.24045474  0.74475409  0.77079424  1
  O  O258  1  0.57337699  0.06544327  0.28130417  1
  O  O259  1  0.58170752  0.07150372  0.76518244  1
  O  O260  1  0.56226175  0.40342145  0.27770006  1
  O  O261  1  0.57301491  0.39888991  0.77202291  1
  O  O262  1  0.57039337  0.74198073  0.28150758  1
  O  O263  1  0.58117779  0.74875702  0.77363359  1
  O  O264  1  0.89846859  0.06728935  0.27297108  1
  O  O265  1  0.90451241  0.06763532  0.78300306  1
  O  O266  1  0.89976565  0.39842373  0.27529849  1
  O  O267  1  0.90259150  0.41451913  0.75890262  1
  O  O268  1  0.89583287  0.73623256  0.27508580  1
  O  O269  1  0.90276867  0.73359792  0.77319742  1
  O  O270  1  0.25920535  0.22987676  0.27185998  1
  O  O271  1  0.25297729  0.23252686  0.77069255  1
  O  O272  1  0.26434635  0.56916761  0.27791935  1
  O  O273  1  0.26884425  0.57791200  0.77276783  1
  O  O274  1  0.27026612  0.90073145  0.27856375  1
  O  O275  1  0.25628163  0.90137772  0.77121657  1
  O  O276  1  0.59504647  0.23016159  0.27755722  1
  O  O277  1  0.59515551  0.24303072  0.76788057  1
  O  O278  1  0.58901874  0.57256531  0.27194348  1
  O  O279  1  0.59691571  0.58595827  0.76576131  1
  O  O280  1  0.60064008  0.90252256  0.27977496  1
  O  O281  1  0.59933634  0.90083592  0.77218251  1
  O  O282  1  0.92218293  0.23556772  0.27275406  1
  O  O283  1  0.93647144  0.22533047  0.76805401  1
  O  O284  1  0.93287180  0.57127172  0.27230924  1
  O  O285  1  0.92328388  0.57739330  0.77278909  1
  O  O286  1  0.92516252  0.90684536  0.27035143  1
  O  O287  1  0.92212226  0.91101091  0.76994419  1
  O  O288  1  0.26683384  0.23336633  0.46979987  1
  O  O289  1  0.25031199  0.23386747  0.98352457  1
  O  O290  1  0.27493515  0.57545358  0.47595339  1
  O  O291  1  0.26539877  0.57279154  0.97598113  1
  O  O292  1  0.26949618  0.89757982  0.48289073  1
  O  O293  1  0.25620980  0.90707915  0.96539161  1
  O  O294  1  0.59509271  0.22985995  0.46778021  1
  O  O295  1  0.59423505  0.23414947  0.99008743  1
  O  O296  1  0.59662326  0.58584499  0.47575622  1
  O  O297  1  0.59553989  0.57207756  0.99171425  1
  O  O298  1  0.59298428  0.89963616  0.46930097  1
  O  O299  1  0.59256400  0.90062468  0.97932149  1
  O  O300  1  0.92109929  0.23346672  0.47776521  1
  O  O301  1  0.93123703  0.22718983  0.98899815  1
  O  O302  1  0.92891773  0.56807649  0.47893623  1
  O  O303  1  0.92424394  0.57238247  0.98127083  1
  O  O304  1  0.92141244  0.90469498  0.47557894  1
  O  O305  1  0.93034070  0.91508307  0.98181524  1
  O  O306  1  0.24294176  0.07337095  0.47940658  1
  O  O307  1  0.22274825  0.06759066  0.98422008  1
  O  O308  1  0.24433339  0.41436515  0.46400964  1
  O  O309  1  0.23879953  0.41566194  0.98437105  1
  O  O310  1  0.24732791  0.73662736  0.48777162  1
  O  O311  1  0.24562386  0.74222547  0.98163477  1
  O  O312  1  0.56967482  0.07040672  0.46706848  1
  O  O313  1  0.57392697  0.07435717  0.98454890  1
  O  O314  1  0.56907810  0.39703118  0.47120314  1
  O  O315  1  0.56719857  0.39888312  0.97430462  1
  O  O316  1  0.57232334  0.73913688  0.47244823  1
  O  O317  1  0.57219851  0.74798801  0.97570596  1
  O  O318  1  0.89407543  0.06145323  0.47425600  1
  O  O319  1  0.90498932  0.06965624  0.97629029  1
  O  O320  1  0.89876131  0.40768303  0.47886949  1
  O  O321  1  0.90137026  0.41031367  0.98743840  1
  O  O322  1  0.89628110  0.74021776  0.47643979  1
  O  O323  1  0.89515281  0.73467040  0.97280261  1
  O  O324  1  0.08700040  0.25503887  0.22784676  1
  O  O325  1  0.10061272  0.25745528  0.72377258  1
  O  O326  1  0.08508356  0.59797902  0.22983822  1
  O  O327  1  0.09529149  0.60236721  0.72733027  1
  O  O328  1  0.09047553  0.93281270  0.22245500  1
  O  O329  1  0.09053616  0.91703028  0.72583161  1
  O  O330  1  0.43731235  0.25427650  0.24032698  1
  O  O331  1  0.43358262  0.25533809  0.73690934  1
  O  O332  1  0.43828611  0.59717345  0.23832370  1
  O  O333  1  0.41594275  0.60084171  0.72697928  1
  O  O334  1  0.43640354  0.92390486  0.23543588  1
  O  O335  1  0.42468568  0.91435627  0.73029739  1
  O  O336  1  0.75997702  0.24999496  0.23109717  1
  O  O337  1  0.75906563  0.25899287  0.73631540  1
  O  O338  1  0.76771539  0.60084675  0.25229847  1
  O  O339  1  0.76201528  0.60325041  0.74178053  1
  O  O340  1  0.76325517  0.92935262  0.23304887  1
  O  O341  1  0.75627664  0.92758026  0.71738072  1
  O  O342  1  0.06784613  0.09292592  0.22016714  1
  O  O343  1  0.06741829  0.10136399  0.72941949  1
  O  O344  1  0.05605927  0.42845911  0.23119044  1
  O  O345  1  0.08199541  0.41896315  0.72798913  1
  O  O346  1  0.06037251  0.76422266  0.22490736  1
  O  O347  1  0.06987954  0.76173826  0.72110740  1
  O  O348  1  0.41327915  0.09410088  0.23214022  1
  O  O349  1  0.41793613  0.09287244  0.73788481  1
  O  O350  1  0.40995407  0.43603913  0.23887633  1
  O  O351  1  0.40113980  0.43199468  0.71862799  1
  O  O352  1  0.41000343  0.76929050  0.22910687  1
  O  O353  1  0.40008010  0.76659898  0.72540386  1
  O  O354  1  0.73022634  0.09909474  0.22933826  1
  O  O355  1  0.74596845  0.08111216  0.72086612  1
  O  O356  1  0.73025951  0.43814954  0.22010546  1
  O  O357  1  0.73586222  0.42995430  0.73425394  1
  O  O358  1  0.73298347  0.77610762  0.23239301  1
  O  O359  1  0.73193958  0.76785031  0.72769493  1
