# generated using pymatgen
data_BaLaInIrO6
_symmetry_space_group_name_H-M   'P 1'
_cell_length_a   17.51105319
_cell_length_b   17.54022880
_cell_length_c   16.47524040
_cell_angle_alpha   90.01910018
_cell_angle_beta   90.00661940
_cell_angle_gamma   89.95313779
_symmetry_Int_Tables_number   1
_chemical_formula_structural   BaLaInIrO6
_chemical_formula_sum   'Ba36 La36 In36 Ir36 O216'
_cell_volume   5060.33314798
_cell_formula_units_Z   36
loop_
 _symmetry_equiv_pos_site_id
 _symmetry_equiv_pos_as_xyz
  1  'x, y, z'
loop_
 _atom_site_type_symbol
 _atom_site_label
 _atom_site_symmetry_multiplicity
 _atom_site_fract_x
 _atom_site_fract_y
 _atom_site_fract_z
 _atom_site_occupancy
  Ba  Ba0  1  0.49993402  0.99447342  0.87456819  1
  Ba  Ba1  1  -0.00154695  0.82004936  0.37457336  1
  Ba  Ba2  1  0.50224424  0.34460505  0.62438380  1
  Ba  Ba3  1  0.67127753  0.17622317  0.12010673  1
  Ba  Ba4  1  0.33731526  0.51191791  0.62458567  1
  Ba  Ba5  1  0.99829872  0.17348191  0.12165246  1
  Ba  Ba6  1  0.83680831  0.00427328  0.12495882  1
  Ba  Ba7  1  0.33517433  0.82659571  0.37582336  1
  Ba  Ba8  1  1.00358176  0.51542600  0.62285113  1
  Ba  Ba9  1  0.49949208  0.67916190  0.12070034  1
  Ba  Ba10  1  0.16371395  0.32687207  0.37739552  1
  Ba  Ba11  1  0.83020253  0.67342922  0.12475219  1
  Ba  Ba12  1  0.32868556  0.49221262  0.87701021  1
  Ba  Ba13  1  0.66803644  0.82528046  0.37827726  1
  Ba  Ba14  1  0.83611787  0.65615311  0.37746030  1
  Ba  Ba15  1  0.49579051  0.00527832  0.62295374  1
  Ba  Ba16  1  0.33199006  0.84177423  0.62275679  1
  Ba  Ba17  1  0.00373134  0.15404582  0.87648605  1
  Ba  Ba18  1  0.33195593  0.84347157  0.12123592  1
  Ba  Ba19  1  0.33550536  0.17405838  0.62381660  1
  Ba  Ba20  1  0.49900977  0.32863601  0.87097035  1
  Ba  Ba21  1  0.66180283  0.49200787  0.87489755  1
  Ba  Ba22  1  -0.00038048  0.49045062  0.87381876  1
  Ba  Ba23  1  0.99788860  0.50881814  0.12721131  1
  Ba  Ba24  1  0.83042786  0.00986905  0.62386745  1
  Ba  Ba25  1  0.16539582  0.65854893  0.87558096  1
  Ba  Ba26  1  -0.00239950  0.49146386  0.37452626  1
  Ba  Ba27  1  0.66677917  0.84550813  0.62291509  1
  Ba  Ba28  1  0.66530249  0.15610734  0.37429479  1
  Ba  Ba29  1  0.33397200  0.15827388  0.37698176  1
  Ba  Ba30  1  0.49818798  0.67656079  0.62912993  1
  Ba  Ba31  1  0.67049404  0.50936680  0.12234246  1
  Ba  Ba32  1  0.83220114  0.33854752  0.11937484  1
  Ba  Ba33  1  0.83440969  0.99096387  0.87863926  1
  Ba  Ba34  1  1.00449564  0.84109874  0.12341312  1
  Ba  Ba35  1  0.50033561  0.00701291  0.12226926  1
  La  La36  1  0.66539455  0.15500710  0.87843459  1
  La  La37  1  0.66175054  0.83366611  0.87806771  1
  La  La38  1  0.66974720  0.18069667  0.63021463  1
  La  La39  1  0.16643587  0.68169097  0.62701069  1
  La  La40  1  0.66849573  0.84175142  0.12847028  1
  La  La41  1  0.49718543  0.65213739  0.87101920  1
  La  La42  1  0.83630439  0.32552036  0.36565093  1
  La  La43  1  1.00591312  0.18068201  0.62557596  1
  La  La44  1  -0.00383155  0.81873227  0.87403133  1
  La  La45  1  0.49915033  0.34349604  0.12855863  1
  La  La46  1  0.15789943  0.01480653  0.12752671  1
  La  La47  1  0.66550377  0.48943594  0.37030495  1
  La  La48  1  0.32867031  0.81658500  0.87047654  1
  La  La49  1  0.50745599  0.65376521  0.37847846  1
  La  La50  1  0.17266760  0.98385321  0.37757034  1
  La  La51  1  0.83443019  0.98168166  0.37128062  1
  La  La52  1  0.15945539  0.67970320  0.12491984  1
  La  La53  1  0.50502043  0.31615837  0.37986230  1
  La  La54  1  0.16158003  0.34976109  0.62683269  1
  La  La55  1  0.83543316  0.31735961  0.87485975  1
  La  La56  1  0.66952631  0.51385403  0.62919373  1
  La  La57  1  0.49997773  0.98419934  0.37536281  1
  La  La58  1  -0.00718967  0.15379331  0.37573340  1
  La  La59  1  0.33686424  0.17997354  0.12453442  1
  La  La60  1  0.17063190  0.98126972  0.87194984  1
  La  La61  1  1.00597318  0.84906069  0.62566796  1
  La  La62  1  0.82755387  0.34811812  0.62782031  1
  La  La63  1  0.83767728  0.65339234  0.87335222  1
  La  La64  1  0.33626488  0.51759214  0.12703103  1
  La  La65  1  0.32875348  0.14475685  0.87336289  1
  La  La66  1  0.33003597  0.48872283  0.37644491  1
  La  La67  1  0.83020034  0.68123446  0.62530666  1
  La  La68  1  0.15835536  0.34578052  0.12567620  1
  La  La69  1  0.16505016  0.01122670  0.62278374  1
  La  La70  1  0.16818190  0.66029720  0.37734336  1
  La  La71  1  0.17803250  0.31649183  0.87682142  1
  In  In72  1  0.16809159  0.16320030  0.74947922  1
  In  In73  1  0.49877420  0.49867676  0.00084896  1
  In  In74  1  0.66707023  0.00107400  0.74822830  1
  In  In75  1  0.16584074  0.16699350  0.49832729  1
  In  In76  1  0.33106765  0.66887040  0.00265536  1
  In  In77  1  0.83611988  0.16358475  -0.00269090  1
  In  In78  1  0.83708345  0.83502391  0.50190840  1
  In  In79  1  0.49932756  0.16665574  0.75007752  1
  In  In80  1  0.82976942  0.16350985  0.25165518  1
  In  In81  1  0.66800489  0.66546488  0.50103289  1
  In  In82  1  0.00376103  0.33239276  -0.00265293  1
  In  In83  1  0.16677213  0.49964541  0.00319282  1
  In  In84  1  0.16993806  0.83294565  0.25034119  1
  In  In85  1  0.49934267  0.83178831  0.50196022  1
  In  In86  1  0.83506284  0.83532798  0.75102460  1
  In  In87  1  0.16584823  0.50137377  0.75043957  1
  In  In88  1  0.33346890  0.33096055  0.74970118  1
  In  In89  1  0.66620039  0.66758646  0.25002509  1
  In  In90  1  0.49802796  0.49889307  0.25139073  1
  In  In91  1  -0.00252405  0.66704861  0.00050765  1
  In  In92  1  0.66872830  0.33597886  0.50087548  1
  In  In93  1  -0.00420350  0.33252088  0.50273423  1
  In  In94  1  0.16710670  0.50410026  0.49924208  1
  In  In95  1  -0.00020442  0.33357403  0.75076979  1
  In  In96  1  0.66586123  0.67134134  -0.00438262  1
  In  In97  1  0.33133627  0.00253119  0.24661256  1
  In  In98  1  0.33213910  0.33418940  0.25019484  1
  In  In99  1  0.66644976  0.67217993  0.75134117  1
  In  In100  1  0.83440285  0.49924604  0.24792920  1
  In  In101  1  0.00212356  -0.00050502  0.25233637  1
  In  In102  1  0.50163091  0.16383252  0.24763193  1
  In  In103  1  0.49720597  0.17002223  -0.00168397  1
  In  In104  1  0.66560277  -0.00174901  0.00166946  1
  In  In105  1  0.33413200  0.33285185  0.49926674  1
  In  In106  1  0.16818276  0.50275252  0.25186182  1
  In  In107  1  0.83462371  0.16650296  0.50240441  1
  Ir  Ir108  1  0.00200769  0.32886852  0.25029141  1
  Ir  Ir109  1  0.83017109  0.49820159  -0.00808313  1
  Ir  Ir110  1  0.16518803  0.83354547  0.50433336  1
  Ir  Ir111  1  0.16285526  0.83381645  0.74839548  1
  Ir  Ir112  1  0.33557065  0.66760961  0.49634416  1
  Ir  Ir113  1  0.66800767  0.33425233  -0.00504991  1
  Ir  Ir114  1  0.00086660  0.00020345  0.50184568  1
  Ir  Ir115  1  0.83696201  0.16753045  0.74892872  1
  Ir  Ir116  1  0.00090007  0.66824553  0.50387957  1
  Ir  Ir117  1  0.49995060  0.50185269  0.49774099  1
  Ir  Ir118  1  0.66566736  -0.00689351  0.25390832  1
  Ir  Ir119  1  0.00812423  -0.00337120  -0.00418348  1
  Ir  Ir120  1  0.17356478  0.16130075  0.00337721  1
  Ir  Ir121  1  0.16384039  0.16599651  0.25041550  1
  Ir  Ir122  1  0.32940945  -0.00704148  0.75125535  1
  Ir  Ir123  1  0.16597723  0.83578389  -0.00586100  1
  Ir  Ir124  1  0.67279170  0.33569239  0.75173787  1
  Ir  Ir125  1  -0.00317264  0.66996556  0.74708044  1
  Ir  Ir126  1  0.49501380  0.83543916  -0.00377023  1
  Ir  Ir127  1  0.83470785  0.83394825  0.24708181  1
  Ir  Ir128  1  0.83221343  0.49969030  0.50525845  1
  Ir  Ir129  1  0.33247593  -0.00081873  0.49961965  1
  Ir  Ir130  1  0.49952407  0.83275189  0.24751505  1
  Ir  Ir131  1  0.33610281  0.66939412  0.25513959  1
  Ir  Ir132  1  0.49339217  0.83319811  0.75617285  1
  Ir  Ir133  1  0.66544957  0.33458558  0.25112073  1
  Ir  Ir134  1  0.33322958  0.66936094  0.74773922  1
  Ir  Ir135  1  0.50189624  0.50159855  0.74828878  1
  Ir  Ir136  1  0.83402974  0.50091275  0.74812918  1
  Ir  Ir137  1  0.00140021  -0.00065449  0.74882645  1
  Ir  Ir138  1  0.66487753  0.00440183  0.49736485  1
  Ir  Ir139  1  0.32638297  -0.00286546  -0.00302090  1
  Ir  Ir140  1  0.50322059  0.16276776  0.49922421  1
  Ir  Ir141  1  0.00137663  0.66974904  0.25082343  1
  Ir  Ir142  1  0.32809699  0.32868871  0.00562879  1
  Ir  Ir143  1  0.83214267  0.83415163  0.00058802  1
  O  O144  1  0.29511594  0.31687441  0.12247437  1
  O  O145  1  0.29859946  0.33340976  0.62406184  1
  O  O146  1  0.30003163  0.66471532  0.13593728  1
  O  O147  1  0.30317197  0.66617310  0.62006323  1
  O  O148  1  0.29435796  0.99538004  0.11579034  1
  O  O149  1  0.30074565  0.99419422  0.62644278  1
  O  O150  1  0.63635766  0.33015369  0.12429956  1
  O  O151  1  0.65213289  0.32467235  0.63148652  1
  O  O152  1  0.64972806  0.67536925  0.12257581  1
  O  O153  1  0.64652481  0.65018637  0.62627039  1
  O  O154  1  0.64966306  0.98285803  0.13186505  1
  O  O155  1  0.64585380  1.00451840  0.61737927  1
  O  O156  1  0.98552437  0.32897442  0.13070685  1
  O  O157  1  0.95977535  0.31908444  0.62769200  1
  O  O158  1  0.98224401  0.67486210  0.13014070  1
  O  O159  1  0.96726222  0.67060974  0.62557233  1
  O  O160  1  0.99032861  0.99741144  0.11787417  1
  O  O161  1  0.97646342  0.98626294  0.62547086  1
  O  O162  1  0.20032892  0.14983682  0.12760132  1
  O  O163  1  0.18904186  0.14295128  0.62451357  1
  O  O164  1  0.20188065  0.48568100  0.12961275  1
  O  O165  1  0.18827870  0.49320324  0.62443111  1
  O  O166  1  0.18158182  0.81930451  0.11656548  1
  O  O167  1  0.18359257  0.82111374  0.62683764  1
  O  O168  1  0.52184790  0.16672557  0.12253559  1
  O  O169  1  0.53334189  0.15927906  0.61934785  1
  O  O170  1  0.52267238  0.48410583  0.12562204  1
  O  O171  1  0.53265685  0.50125480  0.62114987  1
  O  O172  1  0.52811603  0.83184296  0.12089076  1
  O  O173  1  0.51541099  0.83286234  0.63460123  1
  O  O174  1  0.84540366  0.16363533  0.12587462  1
  O  O175  1  0.86855856  0.16252095  0.63055778  1
  O  O176  1  0.84800678  0.49380541  0.11347479  1
  O  O177  1  0.85799202  0.48527098  0.62676264  1
  O  O178  1  0.85685397  0.83354518  0.12327769  1
  O  O179  1  0.87185052  0.82790346  0.62594799  1
  O  O180  1  0.12924307  0.17054746  0.36902473  1
  O  O181  1  0.15255179  0.17291782  0.88300169  1
  O  O182  1  0.14311081  0.52598150  0.37478361  1
  O  O183  1  0.14953491  0.50545839  0.87621677  1
  O  O184  1  0.14804375  0.84152095  0.38366723  1
  O  O185  1  0.13386186  0.84468671  0.87022985  1
  O  O186  1  0.48448022  0.17346624  0.37762488  1
  O  O187  1  0.46190632  0.17213415  0.87608731  1
  O  O188  1  0.46730333  0.51090668  0.37980056  1
  O  O189  1  0.47977448  0.50490878  0.87005368  1
  O  O190  1  0.48538269  0.84535989  0.36911187  1
  O  O191  1  0.46154300  0.84032817  0.87674411  1
  O  O192  1  0.81507916  0.18897681  0.37674453  1
  O  O193  1  0.80380696  0.17443975  0.86670856  1
  O  O194  1  0.80435330  0.49937569  0.38499071  1
  O  O195  1  0.80998222  0.51633054  0.86819632  1
  O  O196  1  0.82002330  0.84089706  0.36999926  1
  O  O197  1  0.80289255  0.83535127  0.88154266  1
  O  O198  1  0.03509250  0.01002945  0.38376835  1
  O  O199  1  0.03536910  -0.00046919  0.87122831  1
  O  O200  1  0.01102788  0.32966152  0.37056265  1
  O  O201  1  0.04070858  0.33212931  0.87403552  1
  O  O202  1  0.03127742  0.66726837  0.37916357  1
  O  O203  1  0.01639577  0.67477215  0.86871727  1
  O  O204  1  0.36206268  0.00303454  0.37916080  1
  O  O205  1  0.35180997  0.00400005  0.87475429  1
  O  O206  1  0.37340428  0.34224034  0.37458479  1
  O  O207  1  0.34774002  0.33461277  0.88758341  1
  O  O208  1  0.37151658  0.67163800  0.37559725  1
  O  O209  1  0.35850300  0.67581175  0.87056186  1
  O  O210  1  0.69562892  0.00020066  0.37558087  1
  O  O211  1  0.68194774  -0.01419272  0.87464237  1
  O  O212  1  0.69719856  0.34360690  0.37264395  1
  O  O213  1  0.70141183  0.34094978  0.87433128  1
  O  O214  1  0.68527845  0.66698601  0.37610953  1
  O  O215  1  0.70241821  0.68891415  0.87312499  1
  O  O216  1  0.08136199  0.08877762  0.02361238  1
  O  O217  1  0.06476709  0.09199025  0.52678395  1
  O  O218  1  0.07626105  0.42263215  0.02840881  1
  O  O219  1  0.07632710  0.42180444  0.51536567  1
  O  O220  1  0.07452583  0.76635406  0.00399266  1
  O  O221  1  0.07060357  0.76295261  0.53118095  1
  O  O222  1  0.38920743  0.09402603  0.01782352  1
  O  O223  1  0.40786883  0.09067955  0.51877858  1
  O  O224  1  0.39069652  0.42378134  0.02964486  1
  O  O225  1  0.41368472  0.43200326  0.51641961  1
  O  O226  1  0.40526580  0.76573414  0.01024692  1
  O  O227  1  0.40292700  0.75645064  0.51576841  1
  O  O228  1  0.74017838  0.09299034  -0.00080484  1
  O  O229  1  0.73009130  0.09966328  0.52057197  1
  O  O230  1  0.73812701  0.42662888  0.01337111  1
  O  O231  1  0.73455840  0.43895453  0.52627908  1
  O  O232  1  0.73730406  0.77216492  0.02191938  1
  O  O233  1  0.74855643  0.75569699  0.52376749  1
  O  O234  1  0.10990141  0.25558683  0.02509365  1
  O  O235  1  0.09451505  0.26080014  0.53643706  1
  O  O236  1  0.09544811  0.60055753  0.02765795  1
  O  O237  1  0.09912332  0.60857558  0.52372690  1
  O  O238  1  0.10589276  0.93317071  0.01578421  1
  O  O239  1  0.09703843  0.93050497  0.52802514  1
  O  O240  1  0.42476554  0.26803776  0.03303326  1
  O  O241  1  0.43466827  0.25413784  0.51324959  1
  O  O242  1  0.41923477  0.58824917  0.02205445  1
  O  O243  1  0.43292717  0.60019687  0.51431183  1
  O  O244  1  0.42190309  0.92958289  0.01813983  1
  O  O245  1  0.42237024  0.92763095  0.50913291  1
  O  O246  1  0.75790184  0.26484333  0.00337341  1
  O  O247  1  0.76310928  0.26346838  0.53125592  1
  O  O248  1  0.76117790  0.58962515  0.00438666  1
  O  O249  1  0.76929263  0.59147127  0.53291150  1
  O  O250  1  0.76081336  0.91991249  0.02243459  1
  O  O251  1  0.75826960  0.93424204  0.50689105  1
  O  O252  1  0.22517373  0.07008903  0.27450766  1
  O  O253  1  0.23503983  0.05795360  0.77206152  1
  O  O254  1  0.24612285  0.41343170  0.28156848  1
  O  O255  1  0.23229285  0.39572629  0.77222169  1
  O  O256  1  0.23980869  0.73235429  0.27552318  1
  O  O257  1  0.23379264  0.73858952  0.76469546  1
  O  O258  1  0.56958826  0.05760756  0.27317955  1
  O  O259  1  0.58272120  0.08376360  0.77660875  1
  O  O260  1  0.57218123  0.40053010  0.27972348  1
  O  O261  1  0.57643626  0.40710574  0.76349854  1
  O  O262  1  0.56112559  0.73814415  0.27027852  1
  O  O263  1  0.56324820  0.74251750  0.78111243  1
  O  O264  1  0.90720524  0.07069311  0.28338111  1
  O  O265  1  0.90444411  0.07080395  0.76898997  1
  O  O266  1  0.90568367  0.39827652  0.26752864  1
  O  O267  1  0.89457027  0.40398054  0.77304215  1
  O  O268  1  0.90436931  0.74004270  0.26628272  1
  O  O269  1  0.90466681  0.73522626  0.77604041  1
  O  O270  1  0.25561651  0.23245305  0.26320140  1
  O  O271  1  0.26529686  0.22988403  0.77967929  1
  O  O272  1  0.27261170  0.57621010  0.27626494  1
  O  O273  1  0.26459632  0.58057255  0.76190656  1
  O  O274  1  0.25820026  0.91125729  0.27020773  1
  O  O275  1  0.25897740  0.89817052  0.77592070  1
  O  O276  1  0.59313472  0.24776738  0.27056531  1
  O  O277  1  0.61057758  0.23892370  0.77031962  1
  O  O278  1  0.59127817  0.57051774  0.28030495  1
  O  O279  1  0.58792327  0.57714233  0.76858975  1
  O  O280  1  0.59795414  0.89645958  0.26238486  1
  O  O281  1  0.58823646  0.89742821  0.77179226  1
  O  O282  1  0.93226189  0.23755410  0.27090070  1
  O  O283  1  0.92359443  0.23709646  0.77573604  1
  O  O284  1  0.93069535  0.57864387  0.26436489  1
  O  O285  1  0.92604670  0.57561908  0.77027629  1
  O  O286  1  0.92295510  0.90690409  0.26623272  1
  O  O287  1  0.94076605  0.90166689  0.77216021  1
  O  O288  1  0.25817880  0.24036363  0.47929573  1
  O  O289  1  0.27124445  0.22526418  0.98173057  1
  O  O290  1  0.26728897  0.58037489  0.46941541  1
  O  O291  1  0.26213842  0.57219279  0.99633042  1
  O  O292  1  0.25550252  0.91000026  0.47741044  1
  O  O293  1  0.26079501  0.90252966  0.96760777  1
  O  O294  1  0.59023564  0.23934122  0.48427151  1
  O  O295  1  0.60174231  0.24236231  0.96918008  1
  O  O296  1  0.59438662  0.56402793  0.47429831  1
  O  O297  1  0.58200903  0.58604025  0.97365738  1
  O  O298  1  0.59140647  0.91576638  0.48037659  1
  O  O299  1  0.59034900  0.89909468  0.98339378  1
  O  O300  1  0.94166644  0.22347484  0.48539007  1
  O  O301  1  0.92279175  0.24524623  0.97724925  1
  O  O302  1  0.92948169  0.57053636  0.48511086  1
  O  O303  1  0.91790211  0.57365076  0.97800064  1
  O  O304  1  0.93195158  0.91179829  0.47952973  1
  O  O305  1  0.93635951  0.90104237  0.97408769  1
  O  O306  1  0.23571840  0.06217104  0.47934667  1
  O  O307  1  0.23350630  0.06371567  0.97159573  1
  O  O308  1  0.25040684  0.41858613  0.47118267  1
  O  O309  1  0.23062566  0.38718417  0.98573883  1
  O  O310  1  0.23302000  0.73335991  0.48204741  1
  O  O311  1  0.23856853  0.74783067  0.97669298  1
  O  O312  1  0.56803008  0.06774359  0.47328924  1
  O  O313  1  0.57773325  0.08048299  0.97957552  1
  O  O314  1  0.56924868  0.40906655  0.47092114  1
  O  O315  1  0.57413524  0.40045395  0.98680647  1
  O  O316  1  0.56837610  0.73575947  0.47969446  1
  O  O317  1  0.56438443  0.74793573  0.96502158  1
  O  O318  1  0.90661337  0.06388955  0.47121616  1
  O  O319  1  0.91877061  0.06823949  0.98352174  1
  O  O320  1  0.88898726  0.39877400  0.48194593  1
  O  O321  1  0.89899522  0.40649066  0.97111158  1
  O  O322  1  0.91135937  0.73553267  0.48630275  1
  O  O323  1  0.90128872  0.74286960  0.97318295  1
  O  O324  1  0.09906950  0.26296964  0.22573733  1
  O  O325  1  0.09554100  0.25736264  0.71942122  1
  O  O326  1  0.09733278  0.60435563  0.22736226  1
  O  O327  1  0.09316542  0.60790274  0.72470534  1
  O  O328  1  0.10073241  0.93256331  0.23440508  1
  O  O329  1  0.09900693  0.93247862  0.72460977  1
  O  O330  1  0.42869499  0.26324552  0.22470571  1
  O  O331  1  0.42905242  0.25997143  0.72866223  1
  O  O332  1  0.42336914  0.59965728  0.23119062  1
  O  O333  1  0.43236397  0.60118274  0.74205551  1
  O  O334  1  0.43369787  0.92682890  0.23712659  1
  O  O335  1  0.42285037  0.92518531  0.73430693  1
  O  O336  1  0.75680139  0.26646097  0.23683741  1
  O  O337  1  0.77156468  0.26767526  0.73057567  1
  O  O338  1  0.75858423  0.58953916  0.23583323  1
  O  O339  1  0.76778993  0.59292951  0.72599233  1
  O  O340  1  0.76583949  0.92888508  0.23909910  1
  O  O341  1  0.75955767  0.92634746  0.73179719  1
  O  O342  1  0.07449210  0.09803582  0.23085993  1
  O  O343  1  0.06669230  0.09136588  0.72444701  1
  O  O344  1  0.07503921  0.41891246  0.23440650  1
  O  O345  1  0.07383729  0.42402366  0.72185361  1
  O  O346  1  0.07673517  0.75556078  0.23583794  1
  O  O347  1  0.06235058  0.76950918  0.72852287  1
  O  O348  1  0.39757236  0.09922434  0.22413156  1
  O  O349  1  0.39868629  0.08488113  0.73844825  1
  O  O350  1  0.40198210  0.43104969  0.21893372  1
  O  O351  1  0.41326400  0.42963063  0.73632816  1
  O  O352  1  0.40355160  0.76560179  0.23196678  1
  O  O353  1  0.39778565  0.76609271  0.74036304  1
  O  O354  1  0.73261233  0.08443509  0.23841625  1
  O  O355  1  0.74026612  0.10642609  0.72735476  1
  O  O356  1  0.73275734  0.42588401  0.24053997  1
  O  O357  1  0.73914556  0.43351061  0.72329567  1
  O  O358  1  0.73918506  0.77093020  0.22948271  1
  O  O359  1  0.74784749  0.75535431  0.71793230  1
