# generated using pymatgen
data_BaLaInIrO6
_symmetry_space_group_name_H-M   'P 1'
_cell_length_a   17.51173409
_cell_length_b   17.53688916
_cell_length_c   16.48382525
_cell_angle_alpha   90.04471742
_cell_angle_beta   90.00462382
_cell_angle_gamma   90.03117095
_symmetry_Int_Tables_number   1
_chemical_formula_structural   BaLaInIrO6
_chemical_formula_sum   'Ba36 La36 In36 Ir36 O216'
_cell_volume   5062.20251436
_cell_formula_units_Z   36
loop_
 _symmetry_equiv_pos_site_id
 _symmetry_equiv_pos_as_xyz
  1  'x, y, z'
loop_
 _atom_site_type_symbol
 _atom_site_label
 _atom_site_symmetry_multiplicity
 _atom_site_fract_x
 _atom_site_fract_y
 _atom_site_fract_z
 _atom_site_occupancy
  Ba  Ba0  1  0.00080957  0.16001691  0.37637834  1
  Ba  Ba1  1  0.66945948  0.84018454  0.12193055  1
  Ba  Ba2  1  0.50003171  0.66293610  0.88102227  1
  Ba  Ba3  1  0.83456512  0.00969274  0.62640654  1
  Ba  Ba4  1  0.83225168  0.01049328  0.12481406  1
  Ba  Ba5  1  0.00582717  0.16260776  0.87509087  1
  Ba  Ba6  1  0.33353160  0.48870822  0.87309030  1
  Ba  Ba7  1  0.33393383  0.82158046  0.87442258  1
  Ba  Ba8  1  0.66707377  0.15906136  0.87441423  1
  Ba  Ba9  1  -0.00308390  0.48897120  0.87604737  1
  Ba  Ba10  1  0.49766459  0.65767135  0.37386275  1
  Ba  Ba11  1  0.83733049  0.67281398  0.62192875  1
  Ba  Ba12  1  0.16933890  0.99059638  0.37598734  1
  Ba  Ba13  1  0.16850397  0.00662345  0.62311635  1
  Ba  Ba14  1  0.83455123  0.67214245  0.12533921  1
  Ba  Ba15  1  0.32903984  0.15102316  0.37322548  1
  Ba  Ba16  1  0.33557042  0.84528043  0.62353929  1
  Ba  Ba17  1  0.66704466  0.82953184  0.87728078  1
  Ba  Ba18  1  0.82989940  0.65507547  0.37057212  1
  Ba  Ba19  1  0.66895903  0.51046435  0.13056706  1
  Ba  Ba20  1  0.33443079  0.84571894  0.12547369  1
  Ba  Ba21  1  0.83544355  0.99271827  0.37689680  1
  Ba  Ba22  1  0.33073533  0.48958916  0.37360839  1
  Ba  Ba23  1  0.99963397  0.17867617  0.62514470  1
  Ba  Ba24  1  0.33261415  0.82564595  0.37322546  1
  Ba  Ba25  1  0.50748758  0.99080053  0.87656312  1
  Ba  Ba26  1  1.00247752  0.17895316  0.12622005  1
  Ba  Ba27  1  0.66801220  0.16164451  0.37588682  1
  Ba  Ba28  1  0.66473225  0.17286116  0.12497056  1
  Ba  Ba29  1  0.50386426  0.98944633  0.37147400  1
  Ba  Ba30  1  0.83188515  0.99554384  0.87392167  1
  Ba  Ba31  1  0.50025752  0.00830401  0.12568434  1
  Ba  Ba32  1  0.66541254  0.49499234  0.37378193  1
  Ba  Ba33  1  0.66597816  0.17229751  0.62482057  1
  Ba  Ba34  1  0.82964320  0.33820244  0.62511619  1
  Ba  Ba35  1  0.16185377  0.33942830  0.62220546  1
  La  La36  1  0.15642601  0.68205257  0.12804153  1
  La  La37  1  0.15753755  0.67853766  0.61938358  1
  La  La38  1  0.83891141  0.31645067  0.87782999  1
  La  La39  1  0.16191193  0.01856419  0.12865120  1
  La  La40  1  0.50129619  0.32283708  0.37301129  1
  La  La41  1  1.00748804  0.85031711  0.62224078  1
  La  La42  1  0.49638254  0.68109957  0.62234054  1
  La  La43  1  0.16029548  0.33072830  0.86780593  1
  La  La44  1  0.16191420  0.34551064  0.12972600  1
  La  La45  1  0.99970622  0.50517651  0.62374391  1
  La  La46  1  0.49706792  0.34286614  0.12965827  1
  La  La47  1  0.66870039  0.82927363  0.36441778  1
  La  La48  1  -0.00403962  0.81747165  0.37692447  1
  La  La49  1  1.00762570  0.85372678  0.12861771  1
  La  La50  1  0.17111524  0.64975151  0.37392389  1
  La  La51  1  0.83379605  0.31841309  0.37483892  1
  La  La52  1  -0.00631346  0.48027579  0.37475521  1
  La  La53  1  0.50370394  0.32473207  0.87917183  1
  La  La54  1  0.66053526  0.49162771  0.87800736  1
  La  La55  1  -0.01103980  0.82174782  0.86976512  1
  La  La56  1  0.34011177  0.18436742  0.62166183  1
  La  La57  1  0.33850026  0.51436035  0.12451522  1
  La  La58  1  0.17095483  0.31338333  0.37465904  1
  La  La59  1  0.33320296  0.51495348  0.62346107  1
  La  La60  1  0.49245615  0.01733717  0.62319721  1
  La  La61  1  0.99911493  0.51506161  0.12749568  1
  La  La62  1  0.17505170  0.98390273  0.87781661  1
  La  La63  1  0.33817324  0.18061866  0.12949384  1
  La  La64  1  0.66590706  0.84620246  0.62514920  1
  La  La65  1  0.49596227  0.34784118  0.61763029  1
  La  La66  1  0.66969879  0.51307451  0.62218358  1
  La  La67  1  0.82538485  0.66269308  0.87246796  1
  La  La68  1  0.49902191  0.68619093  0.12849999  1
  La  La69  1  0.17759285  0.64495882  0.87194179  1
  La  La70  1  0.83068151  0.34293837  0.12644594  1
  La  La71  1  0.32546729  0.15249864  0.87767389  1
  In  In72  1  0.83786480  0.83188924  -0.00038282  1
  In  In73  1  0.16885234  0.16422242  0.50186165  1
  In  In74  1  0.83016945  0.49916753  0.74952912  1
  In  In75  1  0.33113025  0.66471087  0.00081593  1
  In  In76  1  0.33188150  0.66544373  0.49937148  1
  In  In77  1  0.16677703  0.83087442  0.49471851  1
  In  In78  1  0.67108973  0.00102930  0.24920277  1
  In  In79  1  0.83338743  0.49922271  0.00024603  1
  In  In80  1  0.49849694  0.50237437  0.75060314  1
  In  In81  1  0.33405186  0.00177363  0.75065037  1
  In  In82  1  0.00233224  0.66290584  0.75047970  1
  In  In83  1  0.66579871  0.33683768  0.49990370  1
  In  In84  1  0.16761807  0.49500417  0.00390433  1
  In  In85  1  0.16552605  0.49534176  0.49723600  1
  In  In86  1  0.49519728  0.17163285  0.75218804  1
  In  In87  1  0.83912869  0.83106874  0.25006603  1
  In  In88  1  0.17031786  0.16886028  0.74972949  1
  In  In89  1  0.83434678  0.16659553  0.50172711  1
  In  In90  1  0.17070613  0.17308622  0.00322224  1
  In  In91  1  0.49702348  0.17036109  0.00043012  1
  In  In92  1  0.16312925  0.83172152  -0.00075877  1
  In  In93  1  0.66737112  0.33571062  0.24951830  1
  In  In94  1  0.49912184  0.83233352  0.74980561  1
  In  In95  1  0.66478125  -0.00281222  0.49883201  1
  In  In96  1  0.49810017  0.16615284  0.25254680  1
  In  In97  1  0.66372361  -0.00028858  0.74680765  1
  In  In98  1  0.32848007  0.66691022  0.24815453  1
  In  In99  1  0.66559384  0.66683907  0.00247951  1
  In  In100  1  0.66654794  0.66823707  0.50027265  1
  In  In101  1  0.00433641  0.66601837  -0.00286301  1
  In  In102  1  0.16433851  0.82918903  0.74963926  1
  In  In103  1  0.33280914  0.33480931  -0.00176927  1
  In  In104  1  0.00554827  0.00295066  -0.00084305  1
  In  In105  1  0.00543944  0.00246022  0.75073859  1
  In  In106  1  0.66346487  0.33653199  0.75226102  1
  In  In107  1  0.83229392  0.83166425  0.74474357  1
  Ir  Ir108  1  -0.00168064  0.33752859  0.75155671  1
  Ir  Ir109  1  0.32770786  -0.00277515  0.24756083  1
  Ir  Ir110  1  0.33418118  0.33491818  0.49718298  1
  Ir  Ir111  1  0.66283099  0.66620481  0.25093755  1
  Ir  Ir112  1  0.00419850  0.00170996  0.25338994  1
  Ir  Ir113  1  0.17032043  0.16816006  0.24981885  1
  Ir  Ir114  1  0.16335907  0.49599547  0.25020569  1
  Ir  Ir115  1  0.00578841  0.66408796  0.25436236  1
  Ir  Ir116  1  0.33504868  0.33629691  0.74382344  1
  Ir  Ir117  1  -0.00072796  0.33743194  0.49845586  1
  Ir  Ir118  1  -0.00001245  -0.00275019  0.49542551  1
  Ir  Ir119  1  0.16188157  0.83307896  0.24951694  1
  Ir  Ir120  1  0.00080612  0.66377410  0.49625926  1
  Ir  Ir121  1  0.49915622  0.49752841  0.49910375  1
  Ir  Ir122  1  0.49777077  0.83689942  0.00518231  1
  Ir  Ir123  1  0.16902089  0.49608241  0.74577202  1
  Ir  Ir124  1  0.83506737  0.17042690  0.75450923  1
  Ir  Ir125  1  0.84030725  0.17077154  0.24593324  1
  Ir  Ir126  1  0.83418107  0.16999485  0.00191347  1
  Ir  Ir127  1  0.83667127  0.49977616  0.49708549  1
  Ir  Ir128  1  0.32827818  0.33662150  0.25158046  1
  Ir  Ir129  1  0.83642897  0.82982053  0.50090486  1
  Ir  Ir130  1  0.50068283  0.50032812  0.00603427  1
  Ir  Ir131  1  0.83865830  0.49731819  0.25499940  1
  Ir  Ir132  1  0.00155613  0.33568923  0.24973197  1
  Ir  Ir133  1  0.49858569  0.83280510  0.25114954  1
  Ir  Ir134  1  0.33811146  -0.00089799  0.49654238  1
  Ir  Ir135  1  0.66769372  0.33717952  0.00107500  1
  Ir  Ir136  1  0.33170959  0.00059422  0.00249139  1
  Ir  Ir137  1  -0.00311137  0.33533594  0.00525058  1
  Ir  Ir138  1  0.50213245  0.82983091  0.49696559  1
  Ir  Ir139  1  0.66765355  0.00286021  0.00059604  1
  Ir  Ir140  1  0.49549875  0.16999628  0.49881299  1
  Ir  Ir141  1  0.49674978  0.49979965  0.24837139  1
  Ir  Ir142  1  0.66249281  0.66452579  0.74587970  1
  Ir  Ir143  1  0.32888875  0.66180672  0.74681948  1
  O  O144  1  0.29961946  0.32589347  0.13251120  1
  O  O145  1  0.30917877  0.32475804  0.62082240  1
  O  O146  1  0.29525927  0.65779391  0.12638003  1
  O  O147  1  0.29873966  0.65822792  0.62788665  1
  O  O148  1  0.29847137  0.99773178  0.12497925  1
  O  O149  1  0.32350258  1.00135613  0.61568673  1
  O  O150  1  0.63544869  0.33040527  0.12111566  1
  O  O151  1  0.63244702  0.33083199  0.62481209  1
  O  O152  1  0.63380107  0.66312458  0.13193813  1
  O  O153  1  0.63310093  0.65006847  0.62657283  1
  O  O154  1  0.65396543  1.00383843  0.11984818  1
  O  O155  1  0.62783022  0.98752077  0.61883030  1
  O  O156  1  0.96668715  0.33499036  0.12781886  1
  O  O157  1  0.97660510  0.34438512  0.62448925  1
  O  O158  1  0.98508514  0.65284305  0.13607781  1
  O  O159  1  0.98404701  0.64350172  0.61467815  1
  O  O160  1  0.98459184  0.99525220  0.13399237  1
  O  O161  1  0.98168275  0.98954404  0.61399120  1
  O  O162  1  0.20096661  0.16511618  0.13136771  1
  O  O163  1  0.20347661  0.17068947  0.62451703  1
  O  O164  1  0.19990256  0.48013332  0.13373014  1
  O  O165  1  0.19610462  0.49126655  0.62638753  1
  O  O166  1  0.18660232  0.82022412  0.13245649  1
  O  O167  1  0.18839242  0.81430959  0.62063202  1
  O  O168  1  0.50800152  0.17631296  0.12616190  1
  O  O169  1  0.51154691  0.16521886  0.61804046  1
  O  O170  1  0.52087006  0.48151296  0.12779593  1
  O  O171  1  0.53062026  0.48491654  0.61927445  1
  O  O172  1  0.51893874  0.82742589  0.13005593  1
  O  O173  1  0.52441656  0.82270278  0.61655265  1
  O  O174  1  0.85451539  0.17503911  0.12245499  1
  O  O175  1  0.84935323  0.17456463  0.63401756  1
  O  O176  1  0.86533184  0.48801704  0.13509040  1
  O  O177  1  0.86431344  0.49797835  0.61616237  1
  O  O178  1  0.87272144  0.82725165  0.12583138  1
  O  O179  1  0.87114212  0.82693236  0.61710479  1
  O  O180  1  0.15171040  0.17347046  0.37195768  1
  O  O181  1  0.15946010  0.19533106  0.87756018  1
  O  O182  1  0.13042075  0.51124388  0.36888052  1
  O  O183  1  0.14983952  0.50114099  0.86890394  1
  O  O184  1  0.13259969  0.83604709  0.36795068  1
  O  O185  1  0.12644039  0.84589086  0.87507565  1
  O  O186  1  0.47403134  0.18071178  0.37975043  1
  O  O187  1  0.46041651  0.18098411  0.87800683  1
  O  O188  1  0.47519886  0.50591254  0.37445731  1
  O  O189  1  0.48042470  0.50827449  0.88662279  1
  O  O190  1  0.47981606  0.83184073  0.37412108  1
  O  O191  1  0.48425563  0.83307270  0.88319544  1
  O  O192  1  0.82323124  0.17817861  0.36621683  1
  O  O193  1  0.81453531  0.17760661  0.88074123  1
  O  O194  1  0.81539972  0.49814117  0.37612611  1
  O  O195  1  0.80021868  0.51643959  0.87475906  1
  O  O196  1  0.80687554  0.83092324  0.38161480  1
  O  O197  1  0.81788713  0.83402724  0.87217197  1
  O  O198  1  0.02041220  0.00376982  0.37409374  1
  O  O199  1  0.04119105  0.00723144  0.87572309  1
  O  O200  1  0.03317519  0.34202042  0.37354914  1
  O  O201  1  0.02642052  0.33609706  0.87892879  1
  O  O202  1  0.03578801  0.67765667  0.37598914  1
  O  O203  1  0.04630353  0.67755319  0.87284618  1
  O  O204  1  0.35462814  -0.00457199  0.37208421  1
  O  O205  1  0.35834468  0.01260844  0.88443385  1
  O  O206  1  0.36419485  0.33863210  0.37488933  1
  O  O207  1  0.36514950  0.33888769  0.86452028  1
  O  O208  1  0.34490497  0.66278339  0.37228597  1
  O  O209  1  0.34799823  0.65871594  0.86824044  1
  O  O210  1  0.68170220  -0.01635524  0.37555408  1
  O  O211  1  0.67893714  0.00062257  0.87951354  1
  O  O212  1  0.69800596  0.34032388  0.37388782  1
  O  O213  1  0.70071948  0.35237243  0.88279204  1
  O  O214  1  0.67951118  0.68098699  0.37264859  1
  O  O215  1  0.68845400  0.67149807  0.86677470  1
  O  O216  1  0.08241753  0.09561120  0.02534939  1
  O  O217  1  0.07317206  0.08598984  0.51428052  1
  O  O218  1  0.06344589  0.42839950  0.03121999  1
  O  O219  1  0.06167651  0.43486398  0.51560559  1
  O  O220  1  0.06658298  0.76365151  0.03698726  1
  O  O221  1  0.06235618  0.75819509  0.52044716  1
  O  O222  1  0.39359876  0.09744477  0.02614990  1
  O  O223  1  0.40437727  0.09746266  0.52326556  1
  O  O224  1  0.40324496  0.43651853  0.02747736  1
  O  O225  1  0.40219504  0.42997501  0.52532153  1
  O  O226  1  0.41164810  0.75855919  0.02020891  1
  O  O227  1  0.40981133  0.75976931  0.51862242  1
  O  O228  1  0.73969992  0.09749949  0.01508041  1
  O  O229  1  0.74252791  0.08894269  0.51187467  1
  O  O230  1  0.74119347  0.41978777  0.02885000  1
  O  O231  1  0.74019947  0.43685511  0.52376926  1
  O  O232  1  0.74444369  0.75584804  0.01565871  1
  O  O233  1  0.74195060  0.76391393  0.52563074  1
  O  O234  1  0.09608396  0.27400718  0.02525905  1
  O  O235  1  0.09036319  0.26446799  0.50705593  1
  O  O236  1  0.10353277  0.59534221  0.02583383  1
  O  O237  1  0.09648307  0.60015804  0.51478767  1
  O  O238  1  0.10322835  0.93276612  0.03407010  1
  O  O239  1  0.08613895  0.92167352  0.51426318  1
  O  O240  1  0.43713802  0.27896352  0.02046010  1
  O  O241  1  0.42858061  0.26801114  0.52208992  1
  O  O242  1  0.43552700  0.59405155  0.03450328  1
  O  O243  1  0.43012241  0.58898004  0.53121335  1
  O  O244  1  0.42559145  0.93023336  0.01812102  1
  O  O245  1  0.43859192  0.93152053  0.51684845  1
  O  O246  1  0.76453160  0.26949165  0.02208743  1
  O  O247  1  0.75947740  0.26105761  0.50600408  1
  O  O248  1  0.75923888  0.59181677  0.01661596  1
  O  O249  1  0.76145311  0.58762778  0.51687327  1
  O  O250  1  0.75737183  0.93058081  0.01222594  1
  O  O251  1  0.76340135  0.91429320  0.52510471  1
  O  O252  1  0.23298727  0.06691918  0.26163965  1
  O  O253  1  0.23857376  0.07275833  0.78684584  1
  O  O254  1  0.22738152  0.39995814  0.27634161  1
  O  O255  1  0.23583060  0.39876811  0.76949085  1
  O  O256  1  0.22146561  0.73470530  0.27019648  1
  O  O257  1  0.23302089  0.72526692  0.77247774  1
  O  O258  1  0.57851639  0.07778037  0.26390921  1
  O  O259  1  0.56776504  0.07471763  0.75210020  1
  O  O260  1  0.56373590  0.40836369  0.27176923  1
  O  O261  1  0.56898721  0.41077487  0.78656523  1
  O  O262  1  0.57122495  0.74022946  0.26845595  1
  O  O263  1  0.56600541  0.72564631  0.75331007  1
  O  O264  1  0.91135271  0.07475596  0.26782396  1
  O  O265  1  0.90808511  0.08318270  0.76491064  1
  O  O266  1  0.90621978  0.40190071  0.27919891  1
  O  O267  1  0.90182975  0.39969504  0.77489074  1
  O  O268  1  0.91860724  0.73753236  0.27771547  1
  O  O269  1  0.90259370  0.73263086  0.77496267  1
  O  O270  1  0.25922184  0.24431805  0.27537352  1
  O  O271  1  0.27490638  0.24191915  0.76798964  1
  O  O272  1  0.25031637  0.56742843  0.26839901  1
  O  O273  1  0.26287237  0.56484102  0.76374140  1
  O  O274  1  0.25707236  0.90137707  0.26629955  1
  O  O275  1  0.25601330  0.90963062  0.77139743  1
  O  O276  1  0.58374655  0.25175491  0.27387745  1
  O  O277  1  0.58311580  0.25024375  0.78107657  1
  O  O278  1  0.58757202  0.57233504  0.26823566  1
  O  O279  1  0.60230888  0.56768663  0.77051180  1
  O  O280  1  0.59170663  0.89924639  0.26603462  1
  O  O281  1  0.59837781  0.89634012  0.75628590  1
  O  O282  1  0.92913561  0.24776836  0.27163397  1
  O  O283  1  0.92496592  0.24686803  0.77714564  1
  O  O284  1  0.94118636  0.56446670  0.27403508  1
  O  O285  1  0.92629770  0.57109538  0.76464658  1
  O  O286  1  0.94223794  0.90408252  0.27237078  1
  O  O287  1  0.93345676  0.90282796  0.76706087  1
  O  O288  1  0.26439355  0.24520190  0.47882494  1
  O  O289  1  0.28214721  0.22392975  0.99386371  1
  O  O290  1  0.26028925  0.56677325  0.48863488  1
  O  O291  1  0.26863962  0.56052741  0.99219395  1
  O  O292  1  0.26568387  0.90860660  0.48542447  1
  O  O293  1  0.26228686  0.91003808  0.97782112  1
  O  O294  1  0.58176434  0.24372901  0.47820718  1
  O  O295  1  0.59444253  0.25312394  0.97493007  1
  O  O296  1  0.59135926  0.56540473  0.48906248  1
  O  O297  1  0.59521480  0.56507985  0.98189013  1
  O  O298  1  0.60012563  0.88644476  0.47916411  1
  O  O299  1  0.59358417  0.91098718  0.98892975  1
  O  O300  1  0.92642947  0.25016955  0.48139515  1
  O  O301  1  0.92581582  0.24291360  0.97991315  1
  O  O302  1  0.93712592  0.56433992  0.47333577  1
  O  O303  1  0.93596770  0.56497818  0.99856644  1
  O  O304  1  0.93194855  0.89883123  0.47419715  1
  O  O305  1  0.94203876  0.89911149  0.98073904  1
  O  O306  1  0.24795469  0.06962542  0.48381689  1
  O  O307  1  0.23912711  0.06526375  0.97902280  1
  O  O308  1  0.23677695  0.39646343  0.47177035  1
  O  O309  1  0.22608865  0.38911566  0.98163187  1
  O  O310  1  0.22665084  0.72736042  0.47686301  1
  O  O311  1  0.22995508  0.73098529  0.97525290  1
  O  O312  1  0.56353182  0.07826560  0.48736533  1
  O  O313  1  0.57798156  0.07780429  0.98791931  1
  O  O314  1  0.56058563  0.40247517  0.47445243  1
  O  O315  1  0.57153703  0.40604659  0.97653595  1
  O  O316  1  0.56273629  0.73328168  0.49240926  1
  O  O317  1  0.56763041  0.74474459  0.99868206  1
  O  O318  1  0.91417879  0.07349690  0.48594007  1
  O  O319  1  0.90560355  0.07995603  0.98651386  1
  O  O320  1  0.90422630  0.40528255  0.47054664  1
  O  O321  1  0.90039924  0.39597150  0.98140154  1
  O  O322  1  0.91074250  0.73790923  0.47291482  1
  O  O323  1  0.90675274  0.73001463  0.96296592  1
  O  O324  1  0.10254965  0.26931339  0.23290990  1
  O  O325  1  0.09157381  0.27007196  0.74037653  1
  O  O326  1  0.09918521  0.59240321  0.22377982  1
  O  O327  1  0.10471793  0.58975506  0.72292226  1
  O  O328  1  0.09816181  0.93138610  0.22520889  1
  O  O329  1  0.08994779  0.92000455  0.71868992  1
  O  O330  1  0.41942282  0.26878201  0.22802973  1
  O  O331  1  0.42826662  0.27447256  0.71748895  1
  O  O332  1  0.42628250  0.58894043  0.21765602  1
  O  O333  1  0.42287211  0.59422708  0.71710666  1
  O  O334  1  0.42650277  0.92550866  0.23264123  1
  O  O335  1  0.43307357  0.93349597  0.72781498  1
  O  O336  1  0.77149513  0.26358049  0.23095217  1
  O  O337  1  0.76201675  0.25974594  0.74853329  1
  O  O338  1  0.76000809  0.59155566  0.23512460  1
  O  O339  1  0.75304624  0.59812666  0.72755172  1
  O  O340  1  0.76088954  0.92039452  0.23638451  1
  O  O341  1  0.75378005  0.92086484  0.72035966  1
  O  O342  1  0.07939144  0.09410699  0.22717359  1
  O  O343  1  0.07680812  0.09746899  0.72771291  1
  O  O344  1  0.06905640  0.42872450  0.22294937  1
  O  O345  1  0.06880898  0.43355032  0.72723724  1
  O  O346  1  0.06699449  0.76397396  0.22661688  1
  O  O347  1  0.06753963  0.75728068  0.71262920  1
  O  O348  1  0.39427565  0.09262829  0.22930894  1
  O  O349  1  0.39442979  0.10644421  0.72776638  1
  O  O350  1  0.40104589  0.42807801  0.22172456  1
  O  O351  1  0.39967571  0.42993827  0.71734731  1
  O  O352  1  0.41206272  0.75646638  0.22948925  1
  O  O353  1  0.40252839  0.75092511  0.72937296  1
  O  O354  1  0.75142637  0.09956217  0.23724167  1
  O  O355  1  0.74711776  0.09599430  0.73928010  1
  O  O356  1  0.75178026  0.42421607  0.22906523  1
  O  O357  1  0.72998941  0.43530755  0.72384589  1
  O  O358  1  0.73739734  0.75301569  0.23783465  1
  O  O359  1  0.72645855  0.75811303  0.72045824  1
