# generated using pymatgen
data_BaLaInIrO6
_symmetry_space_group_name_H-M   'P 1'
_cell_length_a   17.52915998
_cell_length_b   17.55508086
_cell_length_c   16.49710618
_cell_angle_alpha   89.97082240
_cell_angle_beta   89.99187998
_cell_angle_gamma   89.97650869
_symmetry_Int_Tables_number   1
_chemical_formula_structural   BaLaInIrO6
_chemical_formula_sum   'Ba36 La36 In36 Ir36 O216'
_cell_volume   5076.58440614
_cell_formula_units_Z   36
loop_
 _symmetry_equiv_pos_site_id
 _symmetry_equiv_pos_as_xyz
  1  'x, y, z'
loop_
 _atom_site_type_symbol
 _atom_site_label
 _atom_site_symmetry_multiplicity
 _atom_site_fract_x
 _atom_site_fract_y
 _atom_site_fract_z
 _atom_site_occupancy
  Ba  Ba0  1  0.33199884  0.16160721  0.87267174  1
  Ba  Ba1  1  0.16739971  0.67157464  0.62454956  1
  Ba  Ba2  1  0.66656743  0.82033242  0.37468991  1
  Ba  Ba3  1  0.33171496  0.82528541  0.87392276  1
  Ba  Ba4  1  0.66265442  0.16254076  0.87219330  1
  Ba  Ba5  1  1.00142608  0.17733000  0.62654293  1
  Ba  Ba6  1  1.00075420  0.51061550  0.12137441  1
  Ba  Ba7  1  0.33766398  0.50456126  0.12509660  1
  Ba  Ba8  1  0.16732813  0.33546931  0.62869468  1
  Ba  Ba9  1  0.66862559  0.84085315  0.12615507  1
  Ba  Ba10  1  0.00195461  0.82593544  0.37609808  1
  Ba  Ba11  1  0.16794158  0.32309102  0.37761324  1
  Ba  Ba12  1  0.66296808  0.82247162  0.87557388  1
  Ba  Ba13  1  0.49763403  0.99231778  0.37684691  1
  Ba  Ba14  1  0.50390828  0.00596806  0.12284330  1
  Ba  Ba15  1  0.16451628  0.00819639  0.62663758  1
  Ba  Ba16  1  0.66625703  0.51250266  0.12536576  1
  Ba  Ba17  1  0.49959684  0.32957657  0.88054708  1
  Ba  Ba18  1  0.00248704  0.49669935  0.37373442  1
  Ba  Ba19  1  0.66212522  0.48837513  0.87542019  1
  Ba  Ba20  1  0.16521835  0.67438432  0.12423039  1
  Ba  Ba21  1  0.16253011  0.99404055  0.87116909  1
  Ba  Ba22  1  0.33231151  0.15926052  0.37685664  1
  Ba  Ba23  1  1.00019203  0.17551042  0.12872581  1
  Ba  Ba24  1  0.66486025  0.51366890  0.62281462  1
  Ba  Ba25  1  0.32641635  0.16709610  0.12478299  1
  Ba  Ba26  1  -0.00496447  0.15871654  0.87275334  1
  Ba  Ba27  1  -0.00086102  0.49154281  0.87522258  1
  Ba  Ba28  1  0.16505581  0.99752943  0.37657312  1
  Ba  Ba29  1  1.00155112  0.50362471  0.62310896  1
  Ba  Ba30  1  0.33005736  0.17295097  0.62260623  1
  Ba  Ba31  1  0.50431521  0.65621286  0.87343144  1
  Ba  Ba32  1  0.83318829  0.65989522  0.37633719  1
  Ba  Ba33  1  0.16320277  0.32426154  0.87871873  1
  Ba  Ba34  1  0.83130454  0.67357203  0.12977711  1
  Ba  Ba35  1  0.50418688  0.01000629  0.62484711  1
  La  La36  1  0.83138045  0.68015611  0.62100609  1
  La  La37  1  0.82256218  0.01503756  0.12529359  1
  La  La38  1  -0.00137649  0.81713522  0.87367574  1
  La  La39  1  0.67104282  0.19139782  0.62277366  1
  La  La40  1  0.65992393  0.15264197  0.37547205  1
  La  La41  1  1.00068618  0.84891349  0.12219513  1
  La  La42  1  0.49532116  0.68501373  0.12085627  1
  La  La43  1  0.66670568  0.48793100  0.37269524  1
  La  La44  1  0.16283249  0.35070042  0.12620853  1
  La  La45  1  0.66586357  0.83955757  0.62454795  1
  La  La46  1  1.00241693  0.84771611  0.62320879  1
  La  La47  1  0.84121787  0.32678481  0.37432915  1
  La  La48  1  0.49741618  0.34269481  0.63358513  1
  La  La49  1  0.84249706  0.98011581  0.37610708  1
  La  La50  1  0.82914344  0.35476095  0.12242586  1
  La  La51  1  0.17424221  0.00045218  0.11630306  1
  La  La52  1  0.32326855  0.82073867  0.37557120  1
  La  La53  1  0.82405701  0.01710574  0.62138859  1
  La  La54  1  0.50419880  0.31870366  0.37597503  1
  La  La55  1  0.50548306  0.98826192  0.87386201  1
  La  La56  1  0.50845718  0.65165258  0.36980013  1
  La  La57  1  0.67677752  0.18663347  0.12506318  1
  La  La58  1  0.34097233  0.84693642  0.12491318  1
  La  La59  1  0.32822190  0.47847416  0.37502573  1
  La  La60  1  0.34169014  0.50666599  0.62493009  1
  La  La61  1  0.84054436  0.32195956  0.87678822  1
  La  La62  1  0.83014821  0.35247764  0.62758141  1
  La  La63  1  0.17055199  0.64563113  0.37409063  1
  La  La64  1  0.17234061  0.64647538  0.87426822  1
  La  La65  1  0.33187505  0.47985139  0.87819903  1
  La  La66  1  0.49585024  0.68147742  0.62451186  1
  La  La67  1  0.50950746  0.33720012  0.12623102  1
  La  La68  1  0.84298422  0.98122349  0.87440934  1
  La  La69  1  0.33682984  0.85102864  0.62466167  1
  La  La70  1  0.83344686  0.65085671  0.87884906  1
  La  La71  1  0.00039472  0.14907340  0.38179909  1
  In  In72  1  -0.00133820  0.33597158  0.74938025  1
  In  In73  1  0.33575886  0.00158046  0.49920366  1
  In  In74  1  0.16674509  0.83367647  0.24772463  1
  In  In75  1  0.66965073  0.00047954  0.75025714  1
  In  In76  1  0.49999858  0.16754477  0.74973261  1
  In  In77  1  0.16615271  0.83030291  -0.00291413  1
  In  In78  1  0.00152629  0.67054174  0.24840944  1
  In  In79  1  0.49864508  0.83113884  0.75019830  1
  In  In80  1  0.49973044  0.83477197  0.25515484  1
  In  In81  1  0.83215710  0.17051590  0.25449241  1
  In  In82  1  0.66791103  0.66570165  0.74852636  1
  In  In83  1  0.67073602  0.00188342  -0.00309399  1
  In  In84  1  0.33299219  0.66493452  -0.00151870  1
  In  In85  1  0.66700816  -0.00106371  0.49719943  1
  In  In86  1  0.33587929  0.32857770  0.24916606  1
  In  In87  1  0.33242585  0.32867343  0.00433287  1
  In  In88  1  0.00069811  0.66650203  0.50173116  1
  In  In89  1  0.16496872  0.16533836  0.75186435  1
  In  In90  1  0.83368103  0.50202603  0.25299326  1
  In  In91  1  -0.00367362  0.00241920  0.24519893  1
  In  In92  1  0.16307626  0.16660619  0.24971622  1
  In  In93  1  -0.00214981  0.66448821  0.74863837  1
  In  In94  1  0.33488280  0.00025567  -0.00605809  1
  In  In95  1  0.50392508  0.16432107  0.24776667  1
  In  In96  1  0.16724924  0.83061881  0.50043347  1
  In  In97  1  0.50263378  0.49921493  0.49776702  1
  In  In98  1  0.83000049  0.16682911  0.74948749  1
  In  In99  1  0.50103154  0.50131954  0.00364429  1
  In  In100  1  0.50232240  0.16603950  0.00114176  1
  In  In101  1  0.33852092  0.66421641  0.49725689  1
  In  In102  1  0.83427576  0.83112487  0.00136717  1
  In  In103  1  0.33586368  0.66505558  0.25035222  1
  In  In104  1  0.82951226  0.17106066  0.49840300  1
  In  In105  1  0.16574033  0.82955396  0.74893692  1
  In  In106  1  0.17130807  0.49498483  0.50471191  1
  In  In107  1  -0.00117486  0.33228740  0.00556719  1
  Ir  Ir108  1  0.49853114  0.82993394  0.50002285  1
  Ir  Ir109  1  0.83526313  0.83269249  0.74740576  1
  Ir  Ir110  1  0.66366693  0.66484342  0.25190907  1
  Ir  Ir111  1  0.83022972  0.50180003  -0.00366813  1
  Ir  Ir112  1  0.16724203  0.49973737  -0.00139204  1
  Ir  Ir113  1  0.66896828  0.33804046  0.49767577  1
  Ir  Ir114  1  0.16143606  0.16829055  0.50074605  1
  Ir  Ir115  1  0.33288486  0.33716660  0.74734193  1
  Ir  Ir116  1  0.66720984  0.66686337  0.00263050  1
  Ir  Ir117  1  -0.00009672  0.33464831  0.25314521  1
  Ir  Ir118  1  0.17399677  0.49902688  0.75317162  1
  Ir  Ir119  1  0.66708536  0.33944403  0.74618115  1
  Ir  Ir120  1  0.83427439  0.83413648  0.50404287  1
  Ir  Ir121  1  0.82969333  0.50197345  0.74986493  1
  Ir  Ir122  1  0.83149819  0.16786705  0.00182782  1
  Ir  Ir123  1  -0.00679102  0.00024780  -0.00287111  1
  Ir  Ir124  1  -0.00364587  0.33330136  0.49444336  1
  Ir  Ir125  1  -0.00799916  -0.00508355  0.74982227  1
  Ir  Ir126  1  0.67399395  0.33429938  0.00076474  1
  Ir  Ir127  1  0.33428955  0.65972849  0.74877765  1
  Ir  Ir128  1  0.83326863  0.83412950  0.25211115  1
  Ir  Ir129  1  -0.00656473  -0.00048296  0.50348711  1
  Ir  Ir130  1  0.50605735  0.17280628  0.49996073  1
  Ir  Ir131  1  0.33389750  -0.00292960  0.24937045  1
  Ir  Ir132  1  0.82884391  0.49982661  0.50238997  1
  Ir  Ir133  1  0.16047316  0.16168142  0.00287982  1
  Ir  Ir134  1  0.33557355  -0.00014663  0.74825165  1
  Ir  Ir135  1  0.50112492  0.49820893  0.25359317  1
  Ir  Ir136  1  0.50165814  0.83253596  0.00140734  1
  Ir  Ir137  1  0.66475311  0.66826655  0.49661285  1
  Ir  Ir138  1  0.67160357  0.00162695  0.25109997  1
  Ir  Ir139  1  0.49843194  0.49864202  0.74839973  1
  Ir  Ir140  1  0.16937751  0.49755417  0.25043784  1
  Ir  Ir141  1  0.67094070  0.33630853  0.25410902  1
  Ir  Ir142  1  0.33806048  0.33201137  0.50424608  1
  Ir  Ir143  1  -0.00024825  0.66698003  -0.00382933  1
  O  O144  1  0.29918063  0.33435524  0.12711645  1
  O  O145  1  0.31773988  0.34864830  0.62486726  1
  O  O146  1  0.31366121  0.66012356  0.12534192  1
  O  O147  1  0.31479538  0.64581895  0.63002007  1
  O  O148  1  0.31213031  0.98683433  0.12798232  1
  O  O149  1  0.31517981  0.99301633  0.62763902  1
  O  O150  1  0.64374077  0.32580668  0.12966164  1
  O  O151  1  0.63356275  0.33321861  0.62013535  1
  O  O152  1  0.63441857  0.66742978  0.12758346  1
  O  O153  1  0.63687395  0.67231811  0.61502485  1
  O  O154  1  0.65518029  0.99929064  0.13101413  1
  O  O155  1  0.65498378  0.97668232  0.62257381  1
  O  O156  1  0.96723383  0.33480142  0.13425609  1
  O  O157  1  0.96768505  0.33435425  0.61540165  1
  O  O158  1  0.98128934  0.66292927  0.11474641  1
  O  O159  1  0.96475546  0.65515338  0.62585702  1
  O  O160  1  0.95965837  0.99528794  0.11608483  1
  O  O161  1  0.96011093  0.99129560  0.62834651  1
  O  O162  1  0.17076437  0.14117215  0.12178716  1
  O  O163  1  0.17542872  0.16698468  0.62080644  1
  O  O164  1  0.18852197  0.49005119  0.12427642  1
  O  O165  1  0.20462237  0.49673068  0.63370023  1
  O  O166  1  0.20259655  0.83349101  0.12265146  1
  O  O167  1  0.20221908  0.82793554  0.62660212  1
  O  O168  1  0.54243873  0.16555362  0.12671292  1
  O  O169  1  0.53421306  0.17108859  0.61972073  1
  O  O170  1  0.51804887  0.47550964  0.13479129  1
  O  O171  1  0.51495363  0.48216949  0.62737317  1
  O  O172  1  0.51879983  0.82814084  0.12242966  1
  O  O173  1  0.53041681  0.82168988  0.61832590  1
  O  O174  1  0.84989196  0.15533253  0.12330472  1
  O  O175  1  0.85470278  0.15420463  0.62233719  1
  O  O176  1  0.84846839  0.49306570  0.11910170  1
  O  O177  1  0.85348997  0.48904303  0.62705559  1
  O  O178  1  0.86274527  0.82989547  0.13080550  1
  O  O179  1  0.86531341  0.81907093  0.62650119  1
  O  O180  1  0.13896048  0.16719437  0.38078266  1
  O  O181  1  0.14808761  0.16610261  0.88283326  1
  O  O182  1  0.15372708  0.50181590  0.37098961  1
  O  O183  1  0.14623852  0.50719943  0.87604758  1
  O  O184  1  0.15114202  0.84708436  0.37433580  1
  O  O185  1  0.13253861  0.83848581  0.87237949  1
  O  O186  1  0.48612241  0.18105779  0.37870267  1
  O  O187  1  0.48357387  0.18049585  0.87463027  1
  O  O188  1  0.46881276  0.51426360  0.37174658  1
  O  O189  1  0.47417535  0.50237054  0.86852860  1
  O  O190  1  0.46360872  0.83422359  0.38248640  1
  O  O191  1  0.48310295  0.83952898  0.88038122  1
  O  O192  1  0.79270687  0.19006759  0.37617110  1
  O  O193  1  0.81147329  0.18271648  0.88091581  1
  O  O194  1  0.80147060  0.50048620  0.38234357  1
  O  O195  1  0.80685712  0.51445860  0.87192636  1
  O  O196  1  0.81136756  0.84632036  0.37858105  1
  O  O197  1  0.81190153  0.84360162  0.86787166  1
  O  O198  1  0.01100175  0.00200977  0.38232457  1
  O  O199  1  0.01418290  -0.00163536  0.87302629  1
  O  O200  1  0.02093012  0.34028947  0.37293082  1
  O  O201  1  0.00730750  0.33611083  0.87902082  1
  O  O202  1  0.03330265  0.67125384  0.37535134  1
  O  O203  1  0.03051139  0.67641177  0.87732555  1
  O  O204  1  0.34755593  0.00234981  0.37023477  1
  O  O205  1  0.36766558  0.00127344  0.86651152  1
  O  O206  1  0.36460232  0.33340998  0.38309085  1
  O  O207  1  0.34718107  0.33394909  0.86948343  1
  O  O208  1  0.37551971  0.68256360  0.37328722  1
  O  O209  1  0.35640467  0.66641555  0.86625970  1
  O  O210  1  0.70347189  0.01017263  0.37075297  1
  O  O211  1  0.70920359  0.00212470  0.87264951  1
  O  O212  1  0.70405066  0.34839485  0.37622659  1
  O  O213  1  0.70313469  0.33605357  0.87391464  1
  O  O214  1  0.68561719  0.66350748  0.37486838  1
  O  O215  1  0.69365493  0.66733659  0.87951047  1
  O  O216  1  0.06143350  0.09339457  0.01288566  1
  O  O217  1  0.06020198  0.10078411  0.50763872  1
  O  O218  1  0.08054577  0.42479916  0.02052851  1
  O  O219  1  0.07245309  0.41814295  0.51344657  1
  O  O220  1  0.05891536  0.76582633  0.01861615  1
  O  O221  1  0.06688449  0.76617870  0.53024524  1
  O  O222  1  0.40684793  0.09208502  0.01718716  1
  O  O223  1  0.41761475  0.09771373  0.51412868  1
  O  O224  1  0.40405894  0.42866671  0.00176636  1
  O  O225  1  0.40379355  0.42661005  0.51728545  1
  O  O226  1  0.40828438  0.76448026  0.02225931  1
  O  O227  1  0.40692255  0.76428561  0.53230214  1
  O  O228  1  0.73765724  0.10469919  0.02568174  1
  O  O229  1  0.73111856  0.10140328  0.52394167  1
  O  O230  1  0.74310490  0.42640200  0.02184355  1
  O  O231  1  0.73795846  0.42797805  0.52265465  1
  O  O232  1  0.73873471  0.75571024  0.01557276  1
  O  O233  1  0.73556303  0.76690838  0.52570359  1
  O  O234  1  0.09754106  0.25940615  0.02797876  1
  O  O235  1  0.08812203  0.26229494  0.51564057  1
  O  O236  1  0.09606628  0.59645174  0.00987630  1
  O  O237  1  0.09757133  0.58954178  0.51044335  1
  O  O238  1  0.08448626  0.93148078  0.02710053  1
  O  O239  1  0.08303524  0.92917689  0.52499632  1
  O  O240  1  0.43463162  0.26639936  0.03192144  1
  O  O241  1  0.43965699  0.26977717  0.52321637  1
  O  O242  1  0.43523731  0.60055987  0.02436959  1
  O  O243  1  0.43912166  0.59842953  0.52562121  1
  O  O244  1  0.42883508  0.91900194  0.01599725  1
  O  O245  1  0.43137094  0.92001740  0.52423502  1
  O  O246  1  0.77017408  0.26646898  0.02734925  1
  O  O247  1  0.75890121  0.27121627  0.53186564  1
  O  O248  1  0.76408260  0.59981727  0.01213479  1
  O  O249  1  0.76306478  0.60137257  0.52480169  1
  O  O250  1  0.77151686  0.93425177  0.02040356  1
  O  O251  1  0.77400576  0.93253434  0.51511768  1
  O  O252  1  0.23874706  0.06213643  0.25265230  1
  O  O253  1  0.24788960  0.07458538  0.76380186  1
  O  O254  1  0.24245149  0.41068037  0.26940624  1
  O  O255  1  0.24503124  0.41055320  0.77792148  1
  O  O256  1  0.23637881  0.73329656  0.28226445  1
  O  O257  1  0.23846418  0.72426866  0.77199297  1
  O  O258  1  0.58420736  0.07407027  0.27770366  1
  O  O259  1  0.56841416  0.06826698  0.77432280  1
  O  O260  1  0.57143311  0.40192986  0.28117988  1
  O  O261  1  0.56649662  0.40411769  0.76503425  1
  O  O262  1  0.56808516  0.73059158  0.26826578  1
  O  O263  1  0.57239790  0.73640224  0.75716341  1
  O  O264  1  0.89661429  0.07038571  0.27694832  1
  O  O265  1  0.89648428  0.06070716  0.76863927  1
  O  O266  1  0.90320113  0.39976385  0.27174845  1
  O  O267  1  0.89322263  0.40689907  0.76828555  1
  O  O268  1  0.90225179  0.74658969  0.26989398  1
  O  O269  1  0.89629205  0.73862456  0.77640217  1
  O  O270  1  0.25878553  0.23692528  0.26652305  1
  O  O271  1  0.26132676  0.24775868  0.75614683  1
  O  O272  1  0.26294339  0.56520200  0.27900700  1
  O  O273  1  0.26999587  0.56515499  0.77817065  1
  O  O274  1  0.27473430  0.89881918  0.26519001  1
  O  O275  1  0.26224618  0.91180506  0.76357915  1
  O  O276  1  0.60611592  0.24309806  0.27733952  1
  O  O277  1  0.59904992  0.24831760  0.75465455  1
  O  O278  1  0.59741637  0.56599502  0.27624935  1
  O  O279  1  0.58991070  0.56792731  0.75992231  1
  O  O280  1  0.59893763  0.91171233  0.26821530  1
  O  O281  1  0.59048128  0.90839445  0.76718875  1
  O  O282  1  0.93278336  0.24212752  0.28055444  1
  O  O283  1  0.91416818  0.24890009  0.76747685  1
  O  O284  1  0.92466914  0.57792816  0.26164238  1
  O  O285  1  0.91700641  0.57371592  0.77395785  1
  O  O286  1  0.92142303  0.90574821  0.26772776  1
  O  O287  1  0.92959220  0.89697083  0.77477667  1
  O  O288  1  0.26146986  0.23867135  0.48826368  1
  O  O289  1  0.25178238  0.23139431  0.99146783  1
  O  O290  1  0.27254907  0.56323364  0.47430703  1
  O  O291  1  0.26027720  0.56545904  0.97088176  1
  O  O292  1  0.27286308  0.89702650  0.48711133  1
  O  O293  1  0.25726613  0.90975724  0.98395287  1
  O  O294  1  0.60167119  0.24338528  0.47215187  1
  O  O295  1  0.60732545  0.24328800  0.99289373  1
  O  O296  1  0.60086165  0.57236611  0.47085542  1
  O  O297  1  0.59798014  0.57709189  0.98767018  1
  O  O298  1  0.58975456  0.90007707  0.48252662  1
  O  O299  1  0.58951148  0.90633033  0.98316355  1
  O  O300  1  0.92653997  0.24341318  0.46766593  1
  O  O301  1  0.91939871  0.23818711  0.98642798  1
  O  O302  1  0.91815241  0.56802230  0.48402827  1
  O  O303  1  0.92219078  0.57757446  0.97237459  1
  O  O304  1  0.92934014  0.90202122  0.48736957  1
  O  O305  1  0.93425100  0.90200919  0.97501635  1
  O  O306  1  0.23617128  0.07994687  0.48995702  1
  O  O307  1  0.22875341  0.06878400  0.99166223  1
  O  O308  1  0.25026637  0.40299818  0.47947168  1
  O  O309  1  0.23795749  0.41068941  0.98356234  1
  O  O310  1  0.23801904  0.72966463  0.47043857  1
  O  O311  1  0.23233623  0.73005702  0.97103991  1
  O  O312  1  0.57629038  0.08291027  0.47610801  1
  O  O313  1  0.57126441  0.06610524  0.97072590  1
  O  O314  1  0.57753853  0.40597234  0.46497558  1
  O  O315  1  0.57989110  0.40320774  0.99310284  1
  O  O316  1  0.56337027  0.73155725  0.47472741  1
  O  O317  1  0.57006686  0.73546505  0.99047042  1
  O  O318  1  0.90001011  0.06849023  0.47544477  1
  O  O319  1  0.89217895  0.06770870  0.97619251  1
  O  O320  1  0.89522412  0.40033006  0.47997079  1
  O  O321  1  0.89460902  0.40529408  0.98414693  1
  O  O322  1  0.89771848  0.73974926  0.49141904  1
  O  O323  1  0.90872095  0.73552414  0.96949387  1
  O  O324  1  0.09405368  0.27148890  0.22619507  1
  O  O325  1  0.08719868  0.25559460  0.74006285  1
  O  O326  1  0.10191112  0.58964097  0.24041848  1
  O  O327  1  0.10211508  0.58971815  0.74106925  1
  O  O328  1  0.09191645  0.93317962  0.21420324  1
  O  O329  1  0.07988492  0.92420545  0.72549630  1
  O  O330  1  0.44285020  0.26992393  0.23498578  1
  O  O331  1  0.42491785  0.26804710  0.72420069  1
  O  O332  1  0.44470208  0.59560339  0.22777605  1
  O  O333  1  0.43156588  0.59327383  0.71984462  1
  O  O334  1  0.42466881  0.92945840  0.23256495  1
  O  O335  1  0.42027357  0.92223348  0.72728563  1
  O  O336  1  0.76457201  0.27142036  0.22298022  1
  O  O337  1  0.75660160  0.26986129  0.71929491  1
  O  O338  1  0.75183758  0.59361907  0.23785121  1
  O  O339  1  0.76764985  0.59956436  0.72656570  1
  O  O340  1  0.76819810  0.93419434  0.23066619  1
  O  O341  1  0.77474011  0.92674883  0.72115663  1
  O  O342  1  0.05991019  0.10332496  0.25504765  1
  O  O343  1  0.06502042  0.08306613  0.73651834  1
  O  O344  1  0.07576659  0.42499033  0.22541786  1
  O  O345  1  0.08223571  0.42920495  0.73509221  1
  O  O346  1  0.06506298  0.76971856  0.21858947  1
  O  O347  1  0.06102348  0.76570545  0.72817506  1
  O  O348  1  0.40532533  0.08955662  0.23624169  1
  O  O349  1  0.40606611  0.08811166  0.73000647  1
  O  O350  1  0.40789006  0.43222911  0.24698065  1
  O  O351  1  0.39936660  0.43531848  0.73402044  1
  O  O352  1  0.40532795  0.76457501  0.21995168  1
  O  O353  1  0.40077052  0.75352665  0.71986908  1
  O  O354  1  0.73380810  0.09762948  0.22841916  1
  O  O355  1  0.73182338  0.10164204  0.71681328  1
  O  O356  1  0.73904638  0.42573397  0.23334792  1
  O  O357  1  0.73922713  0.42924067  0.72664620  1
  O  O358  1  0.73556031  0.75923030  0.23527380  1
  O  O359  1  0.74217697  0.76657580  0.72019721  1
