# generated using pymatgen
data_BaLaInIrO6
_symmetry_space_group_name_H-M   'P 1'
_cell_length_a   17.51266268
_cell_length_b   17.54278942
_cell_length_c   16.48564043
_cell_angle_alpha   89.98176848
_cell_angle_beta   89.97949155
_cell_angle_gamma   89.89219261
_symmetry_Int_Tables_number   1
_chemical_formula_structural   BaLaInIrO6
_chemical_formula_sum   'Ba36 La36 In36 Ir36 O216'
_cell_volume   5064.72462880
_cell_formula_units_Z   36
loop_
 _symmetry_equiv_pos_site_id
 _symmetry_equiv_pos_as_xyz
  1  'x, y, z'
loop_
 _atom_site_type_symbol
 _atom_site_label
 _atom_site_symmetry_multiplicity
 _atom_site_fract_x
 _atom_site_fract_y
 _atom_site_fract_z
 _atom_site_occupancy
  Ba  Ba0  1  0.82917841  0.32738541  0.37769154  1
  Ba  Ba1  1  0.66796373  0.50892365  0.62065575  1
  Ba  Ba2  1  0.82764546  0.00766602  0.12452524  1
  Ba  Ba3  1  0.16599075  0.67598896  0.63240020  1
  Ba  Ba4  1  0.82890270  0.67200404  0.12565272  1
  Ba  Ba5  1  0.66225193  0.16374547  0.87284623  1
  Ba  Ba6  1  0.50588916  0.99024861  0.37198820  1
  Ba  Ba7  1  0.16943284  0.65622392  0.37697001  1
  Ba  Ba8  1  0.49912100  0.00602145  0.11984931  1
  Ba  Ba9  1  0.83058373  0.99242832  0.37931400  1
  Ba  Ba10  1  0.66881051  0.50247229  0.12664648  1
  Ba  Ba11  1  0.33282588  0.82381771  0.87910518  1
  Ba  Ba12  1  0.66587567  0.49224536  0.87450033  1
  Ba  Ba13  1  0.33213252  0.49627073  0.87071952  1
  Ba  Ba14  1  1.00016324  0.17867878  0.62254162  1
  Ba  Ba15  1  0.83674657  0.32880187  0.87520072  1
  Ba  Ba16  1  0.33450307  0.84177768  0.62404752  1
  Ba  Ba17  1  0.99990334  0.50743939  0.11926223  1
  Ba  Ba18  1  0.16983272  0.32684599  0.86930449  1
  Ba  Ba19  1  0.83538851  0.65754558  0.37141463  1
  Ba  Ba20  1  0.66381073  0.17418875  0.12422203  1
  Ba  Ba21  1  0.99875266  0.84015547  0.12773930  1
  Ba  Ba22  1  0.33695530  0.17778753  0.12340666  1
  Ba  Ba23  1  0.50396299  0.67150479  0.12968227  1
  Ba  Ba24  1  0.82936204  0.33996522  0.12640514  1
  Ba  Ba25  1  0.33001986  0.15757569  0.87225264  1
  Ba  Ba26  1  0.49666062  0.67268222  0.62791202  1
  Ba  Ba27  1  0.50139679  0.33720925  0.12539207  1
  Ba  Ba28  1  0.50397120  0.32281127  0.37286298  1
  Ba  Ba29  1  0.66066602  0.16076622  0.37353881  1
  Ba  Ba30  1  0.49987232  0.65621158  0.87548278  1
  Ba  Ba31  1  0.83484002  0.34549851  0.62517995  1
  Ba  Ba32  1  0.33652142  0.15615439  0.37197840  1
  Ba  Ba33  1  0.00234129  0.48963679  0.87300117  1
  Ba  Ba34  1  0.66466024  0.82566369  0.87904338  1
  Ba  Ba35  1  0.66826453  0.49162624  0.37416069  1
  La  La36  1  1.00907069  0.84991290  0.62829773  1
  La  La37  1  -0.00656262  0.81483642  0.87208475  1
  La  La38  1  0.67628240  0.84484664  0.12887698  1
  La  La39  1  0.17367486  0.65339299  0.88108712  1
  La  La40  1  0.66644040  0.84371313  0.62557092  1
  La  La41  1  0.16105046  0.68019959  0.12230706  1
  La  La42  1  0.33252887  0.18435097  0.62103090  1
  La  La43  1  0.16348532  0.01277252  0.12600536  1
  La  La44  1  0.33547444  0.81517001  0.37770025  1
  La  La45  1  0.16545810  0.34751219  0.12252705  1
  La  La46  1  0.83743752  0.98325943  0.87456623  1
  La  La47  1  0.49714385  0.34728935  0.61749458  1
  La  La48  1  0.17197961  0.32106320  0.37370110  1
  La  La49  1  0.16077004  0.35373136  0.62168009  1
  La  La50  1  -0.00646189  0.15468614  0.87265478  1
  La  La51  1  0.66593986  0.81807775  0.37408992  1
  La  La52  1  0.50324471  0.98373825  0.87494388  1
  La  La53  1  0.66847978  0.18661264  0.62392743  1
  La  La54  1  0.33855415  0.84487400  0.13367812  1
  La  La55  1  0.17274760  0.98432433  0.37593933  1
  La  La56  1  -0.00674327  0.48809716  0.37568636  1
  La  La57  1  0.33920029  0.51293974  0.62341955  1
  La  La58  1  1.00302050  0.51042231  0.62530612  1
  La  La59  1  0.34081086  0.51155588  0.12692011  1
  La  La60  1  0.50748423  0.65308690  0.38267599  1
  La  La61  1  0.83024368  0.67745081  0.62073109  1
  La  La62  1  0.49662746  0.01234837  0.62575504  1
  La  La63  1  0.82897516  0.01923364  0.62704783  1
  La  La64  1  0.16926515  0.98763769  0.87245050  1
  La  La65  1  0.50034087  0.33213266  0.88200441  1
  La  La66  1  0.83711748  0.65034243  0.87222610  1
  La  La67  1  1.00280712  0.17875827  0.12521298  1
  La  La68  1  0.33101240  0.48401297  0.37624229  1
  La  La69  1  -0.00588228  0.81351805  0.38208732  1
  La  La70  1  -0.00978291  0.15454624  0.37449061  1
  La  La71  1  0.16170962  0.01486543  0.62693403  1
  In  In72  1  0.16621024  0.83494427  0.00037597  1
  In  In73  1  0.66631857  0.66575826  0.00025171  1
  In  In74  1  0.83592771  0.83328005  0.25701728  1
  In  In75  1  0.16487417  0.16868243  -0.00252018  1
  In  In76  1  -0.00055385  0.00100091  0.00085415  1
  In  In77  1  0.83620257  0.83365900  0.74446546  1
  In  In78  1  0.00147582  0.33056929  0.74860611  1
  In  In79  1  0.16960602  0.83422319  0.25171523  1
  In  In80  1  0.66516915  0.00272219  0.74945489  1
  In  In81  1  0.50202110  0.49847704  0.74901473  1
  In  In82  1  0.32924311  -0.00170690  -0.00189064  1
  In  In83  1  0.00262667  0.33349790  0.49640934  1
  In  In84  1  0.50117878  0.83380925  0.49928218  1
  In  In85  1  0.66601124  0.33199866  0.24992941  1
  In  In86  1  0.16637534  0.16761912  0.49853768  1
  In  In87  1  0.00075466  -0.00003312  0.50230070  1
  In  In88  1  0.16714688  0.83184248  0.50307610  1
  In  In89  1  0.32972417  0.66973664  0.75129614  1
  In  In90  1  0.49722461  0.16459823  0.50177183  1
  In  In91  1  0.83322310  0.16564931  0.24857169  1
  In  In92  1  0.66782532  0.00251275  -0.00529483  1
  In  In93  1  0.50038604  0.83294344  0.74971064  1
  In  In94  1  0.16586088  0.16603526  0.25047057  1
  In  In95  1  0.49520772  0.16699630  -0.00517552  1
  In  In96  1  0.66609060  -0.00267394  0.50147108  1
  In  In97  1  0.83523887  0.50243717  0.50124957  1
  In  In98  1  0.49632782  0.16817649  0.74767422  1
  In  In99  1  0.00198003  -0.00040065  0.25286937  1
  In  In100  1  0.33219213  0.33508347  0.74605411  1
  In  In101  1  0.16911184  0.50108522  0.25139488  1
  In  In102  1  0.49752408  0.49901677  0.25217494  1
  In  In103  1  0.83483505  0.83052858  -0.00047011  1
  In  In104  1  0.00255157  0.33178064  -0.00025588  1
  In  In105  1  0.83491138  0.49965400  -0.00048226  1
  In  In106  1  0.49844212  0.82942112  0.00570420  1
  In  In107  1  0.00371917  0.66373442  0.24738112  1
  Ir  Ir108  1  0.17367024  0.50143158  0.00072706  1
  Ir  Ir109  1  0.33092024  0.33318665  0.25180391  1
  Ir  Ir110  1  0.16582818  0.50403506  0.74688802  1
  Ir  Ir111  1  0.00554683  0.33588077  0.24856919  1
  Ir  Ir112  1  0.00042292  0.66542865  0.50622762  1
  Ir  Ir113  1  0.66397975  0.33454010  0.50505052  1
  Ir  Ir114  1  0.50116178  0.83090839  0.25282938  1
  Ir  Ir115  1  0.83678993  0.49939889  0.25261707  1
  Ir  Ir116  1  0.00040788  0.00282172  0.75087681  1
  Ir  Ir117  1  0.66680662  0.66859782  0.50214293  1
  Ir  Ir118  1  0.83043560  0.16642825  0.74943731  1
  Ir  Ir119  1  0.83762347  0.82911849  0.50595761  1
  Ir  Ir120  1  0.33075450  -0.00086516  0.50013904  1
  Ir  Ir121  1  0.66751192  0.33246322  -0.00509904  1
  Ir  Ir122  1  0.33199054  0.33863731  0.00090942  1
  Ir  Ir123  1  0.83328626  0.16632823  -0.00795991  1
  Ir  Ir124  1  0.67156857  0.66686903  0.74351855  1
  Ir  Ir125  1  0.32863121  0.33683704  0.49701722  1
  Ir  Ir126  1  0.66457420  0.66697620  0.25709512  1
  Ir  Ir127  1  -0.00033362  0.66536350  0.74933797  1
  Ir  Ir128  1  0.83082781  0.16776087  0.50429066  1
  Ir  Ir129  1  0.66320414  -0.00252145  0.25070529  1
  Ir  Ir130  1  0.16016794  0.83787360  0.75241565  1
  Ir  Ir131  1  0.49725614  0.50003163  0.49935363  1
  Ir  Ir132  1  0.00493811  0.66592611  -0.00676770  1
  Ir  Ir133  1  0.33554077  0.66239410  0.49533935  1
  Ir  Ir134  1  0.66798337  0.33340249  0.74925377  1
  Ir  Ir135  1  0.33568097  0.66529707  0.25296078  1
  Ir  Ir136  1  0.32772379  0.00102406  0.74284307  1
  Ir  Ir137  1  0.49549906  0.16296766  0.24807175  1
  Ir  Ir138  1  0.32854005  0.66166617  0.00826283  1
  Ir  Ir139  1  0.49664860  0.49751659  0.00178911  1
  Ir  Ir140  1  0.16681902  0.16469568  0.74575050  1
  Ir  Ir141  1  0.16657400  0.50379251  0.50050716  1
  Ir  Ir142  1  0.33381633  -0.00532150  0.25796660  1
  Ir  Ir143  1  0.83542043  0.50372081  0.74724369  1
  O  O144  1  0.30131462  0.33401959  0.12628926  1
  O  O145  1  0.29514737  0.32822244  0.61525295  1
  O  O146  1  0.29715861  0.65189279  0.13247662  1
  O  O147  1  0.31420498  0.65354372  0.61660266  1
  O  O148  1  0.29964854  0.98559731  0.13781899  1
  O  O149  1  0.29555639  0.99450348  0.62015567  1
  O  O150  1  0.65467115  0.33695816  0.11585718  1
  O  O151  1  0.63798100  0.33833953  0.62804777  1
  O  O152  1  0.65344508  0.65949582  0.13760015  1
  O  O153  1  0.64491519  0.66550816  0.62243395  1
  O  O154  1  0.65149264  0.98590711  0.13040648  1
  O  O155  1  0.63282337  0.98158084  0.62542773  1
  O  O156  1  0.97846413  0.32230683  0.13146176  1
  O  O157  1  0.98592796  0.33790133  0.62400762  1
  O  O158  1  0.98300049  0.66554203  0.11320772  1
  O  O159  1  0.96720294  0.65313467  0.62768699  1
  O  O160  1  0.97595076  0.99591693  0.12683400  1
  O  O161  1  0.96511049  0.98844558  0.63110559  1
  O  O162  1  0.19069843  0.14841570  0.12499978  1
  O  O163  1  0.19989138  0.15339035  0.62697053  1
  O  O164  1  0.20249549  0.48931247  0.12086687  1
  O  O165  1  0.20016657  0.49567792  0.62364785  1
  O  O166  1  0.20225098  0.81959929  0.12581991  1
  O  O167  1  0.18433731  0.82992239  0.63364239  1
  O  O168  1  0.50772735  0.16572583  0.12718883  1
  O  O169  1  0.53028000  0.14969221  0.62611077  1
  O  O170  1  0.51209171  0.49870063  0.12175902  1
  O  O171  1  0.51962033  0.49069689  0.61885955  1
  O  O172  1  0.53623618  0.82851962  0.13640514  1
  O  O173  1  0.52964613  0.83057311  0.62379063  1
  O  O174  1  0.86337160  0.16499962  0.11367142  1
  O  O175  1  0.85407796  0.15989107  0.62809428  1
  O  O176  1  0.84736368  0.50191825  0.13227416  1
  O  O177  1  0.86371074  0.50502197  0.62810455  1
  O  O178  1  0.84806623  0.83364460  0.12906220  1
  O  O179  1  0.87529448  0.81542621  0.62252393  1
  O  O180  1  0.12917009  0.18224904  0.37414629  1
  O  O181  1  0.13391770  0.17312653  0.86410501  1
  O  O182  1  0.13268728  0.50379076  0.38100426  1
  O  O183  1  0.14765852  0.51647647  0.87372163  1
  O  O184  1  0.13119068  0.84449931  0.37908215  1
  O  O185  1  0.12787350  0.84787928  0.87018176  1
  O  O186  1  0.48668438  0.16563817  0.37117352  1
  O  O187  1  0.47830118  0.19657028  0.86922767  1
  O  O188  1  0.46663581  0.51016100  0.38001086  1
  O  O189  1  0.48231691  0.49041709  0.87986212  1
  O  O190  1  0.47022957  0.83345746  0.37133878  1
  O  O191  1  0.47874126  0.84495361  0.87654798  1
  O  O192  1  0.81241552  0.16836308  0.38626597  1
  O  O193  1  0.80929987  0.17229864  0.86998157  1
  O  O194  1  0.82212646  0.50267625  0.37222242  1
  O  O195  1  0.81702450  0.51011290  0.86642308  1
  O  O196  1  0.80356471  0.83291828  0.38781445  1
  O  O197  1  0.81680971  0.83970883  0.86941440  1
  O  O198  1  0.03718822  0.01847937  0.37940353  1
  O  O199  1  0.03248274  0.01709488  0.86857089  1
  O  O200  1  0.03686136  0.34858526  0.36837884  1
  O  O201  1  0.02038432  0.32696799  0.87251256  1
  O  O202  1  0.02178295  0.67402143  0.38558564  1
  O  O203  1  0.03655468  0.67381923  0.87020747  1
  O  O204  1  0.36016136  0.00166761  0.38083940  1
  O  O205  1  0.36216065  0.00170411  0.86039558  1
  O  O206  1  0.35651221  0.34619278  0.37401569  1
  O  O207  1  0.36074066  0.34210147  0.87805233  1
  O  O208  1  0.36931293  0.67393830  0.37302614  1
  O  O209  1  0.34710204  0.66412541  0.88664950  1
  O  O210  1  0.67886827  0.00381263  0.37074527  1
  O  O211  1  0.70597174  0.00588541  0.86964927  1
  O  O212  1  0.67670634  0.32744206  0.38418992  1
  O  O213  1  0.68704724  0.32703432  0.86978509  1
  O  O214  1  0.68758686  0.67775704  0.38055117  1
  O  O215  1  0.70055839  0.66906789  0.86194158  1
  O  O216  1  0.05728342  0.10823604  0.01462072  1
  O  O217  1  0.07895330  0.09001872  0.52986057  1
  O  O218  1  0.08758754  0.42786801  0.01795698  1
  O  O219  1  0.07589078  0.43798064  0.52723163  1
  O  O220  1  0.07283612  0.75644580  0.01294778  1
  O  O221  1  0.06243144  0.76249764  0.52572021  1
  O  O222  1  0.40326394  0.09024821  0.00975234  1
  O  O223  1  0.39394239  0.09454828  0.52791151  1
  O  O224  1  0.39914883  0.43164661  0.02501895  1
  O  O225  1  0.39988749  0.43100945  0.52320298  1
  O  O226  1  0.39339036  0.75298442  0.03315926  1
  O  O227  1  0.40451792  0.75475493  0.51075213  1
  O  O228  1  0.74388749  0.10041350  0.01428475  1
  O  O229  1  0.74105946  0.09476100  0.53076097  1
  O  O230  1  0.73950613  0.42041226  0.00442182  1
  O  O231  1  0.74087973  0.42113437  0.51127319  1
  O  O232  1  0.73386418  0.76435666  0.02642627  1
  O  O233  1  0.73779798  0.76312911  0.53087881  1
  O  O234  1  0.09729193  0.26395930  0.03403508  1
  O  O235  1  0.10693046  0.27429918  0.51740294  1
  O  O236  1  0.10595573  0.60029523  0.01792456  1
  O  O237  1  0.09282389  0.59394535  0.53032142  1
  O  O238  1  0.10106214  0.93613159  0.02603766  1
  O  O239  1  0.09604846  0.92761588  0.53367091  1
  O  O240  1  0.42212912  0.27085717  0.01168998  1
  O  O241  1  0.42136057  0.26601597  0.52440983  1
  O  O242  1  0.42102692  0.58752259  0.02959312  1
  O  O243  1  0.42431528  0.58840807  0.52204911  1
  O  O244  1  0.41121474  0.91226962  0.02889554  1
  O  O245  1  0.42785253  0.93598997  0.52350291  1
  O  O246  1  0.76154351  0.26120031  0.01338945  1
  O  O247  1  0.75208383  0.25748840  0.52981785  1
  O  O248  1  0.76409574  0.59588990  0.00133432  1
  O  O249  1  0.76397561  0.60193246  0.52104259  1
  O  O250  1  0.76013082  0.92614136  0.01070491  1
  O  O251  1  0.77252087  0.92338560  0.53256981  1
  O  O252  1  0.23876452  0.06158776  0.27927976  1
  O  O253  1  0.22880651  0.06517775  0.76831394  1
  O  O254  1  0.23947445  0.40234911  0.27563626  1
  O  O255  1  0.24058249  0.41731430  0.76086675  1
  O  O256  1  0.25304776  0.74136752  0.27780991  1
  O  O257  1  0.22630354  0.74463176  0.77906867  1
  O  O258  1  0.56835956  0.07094779  0.25727394  1
  O  O259  1  0.55839118  0.06575469  0.77416013  1
  O  O260  1  0.57719209  0.41147794  0.26373395  1
  O  O261  1  0.57063125  0.39578248  0.76866863  1
  O  O262  1  0.57208305  0.73907492  0.28567473  1
  O  O263  1  0.58367058  0.73650932  0.76396338  1
  O  O264  1  0.91109845  0.08119276  0.28045172  1
  O  O265  1  0.89915117  0.06774781  0.77293321  1
  O  O266  1  0.91531331  0.41098915  0.27718189  1
  O  O267  1  0.90692445  0.41475365  0.76226368  1
  O  O268  1  0.91612587  0.74275778  0.27197594  1
  O  O269  1  0.91006845  0.73412942  0.77614283  1
  O  O270  1  0.25756337  0.24643418  0.27315306  1
  O  O271  1  0.25987943  0.23365428  0.75788555  1
  O  O272  1  0.27197622  0.56940453  0.27820361  1
  O  O273  1  0.24446834  0.58506805  0.76685760  1
  O  O274  1  0.27053563  0.90210679  0.28480044  1
  O  O275  1  0.25281665  0.90980651  0.77405004  1
  O  O276  1  0.58234478  0.23778951  0.25686615  1
  O  O277  1  0.60142940  0.24182745  0.74989851  1
  O  O278  1  0.58542479  0.58423205  0.27768897  1
  O  O279  1  0.59754025  0.57797719  0.76081472  1
  O  O280  1  0.59772654  0.89589443  0.27440331  1
  O  O281  1  0.59016237  0.90964041  0.77363814  1
  O  O282  1  0.93964322  0.24244037  0.27298959  1
  O  O283  1  0.92705389  0.23016684  0.76883887  1
  O  O284  1  0.93263826  0.56603975  0.27004905  1
  O  O285  1  0.92633602  0.57556124  0.77284907  1
  O  O286  1  0.93495527  0.90170331  0.28663701  1
  O  O287  1  0.93800613  0.90772974  0.77495397  1
  O  O288  1  0.26243048  0.24446876  0.47490339  1
  O  O289  1  0.26177976  0.24912247  0.98158174  1
  O  O290  1  0.26735966  0.56562778  0.47609920  1
  O  O291  1  0.26153981  0.57161483  0.98367819  1
  O  O292  1  0.26614609  0.90493115  0.47241180  1
  O  O293  1  0.25175214  0.91124386  0.96839399  1
  O  O294  1  0.59095842  0.24633064  0.50156605  1
  O  O295  1  0.58919745  0.24997744  0.98525072  1
  O  O296  1  0.58967073  0.57628114  0.47542257  1
  O  O297  1  0.58687081  0.56808332  0.98696396  1
  O  O298  1  0.60896289  0.89017676  0.48081584  1
  O  O299  1  0.58345750  0.91511972  0.98435074  1
  O  O300  1  0.92689489  0.23512594  0.47744691  1
  O  O301  1  0.92883261  0.22940672  0.97530094  1
  O  O302  1  0.94020687  0.57003636  0.48462755  1
  O  O303  1  0.93170337  0.58063515  0.97467400  1
  O  O304  1  0.93373715  0.89333499  0.48233838  1
  O  O305  1  0.93272716  0.90348484  0.96743700  1
  O  O306  1  0.23604771  0.06316140  0.47666960  1
  O  O307  1  0.22913034  0.06831513  0.97383883  1
  O  O308  1  0.23444937  0.40840231  0.46970322  1
  O  O309  1  0.23944789  0.40706562  0.98140341  1
  O  O310  1  0.24940699  0.74000749  0.47781819  1
  O  O311  1  0.23399436  0.72767866  0.98541715  1
  O  O312  1  0.56760743  0.06694769  0.49142220  1
  O  O313  1  0.56924539  0.07305286  0.97123905  1
  O  O314  1  0.56947841  0.40566484  0.48510060  1
  O  O315  1  0.56949151  0.40286002  0.97738207  1
  O  O316  1  0.57299520  0.73323779  0.47670534  1
  O  O317  1  0.57020641  0.73510456  0.98533359  1
  O  O318  1  0.90440285  0.07812859  0.48845925  1
  O  O319  1  0.89831202  0.07363897  0.96444694  1
  O  O320  1  0.91594364  0.41420693  0.47730186  1
  O  O321  1  0.91390264  0.41133948  0.99094342  1
  O  O322  1  0.90589694  0.73368460  0.48286107  1
  O  O323  1  0.91202812  0.73316133  0.96684842  1
  O  O324  1  0.09730277  0.27020659  0.22413313  1
  O  O325  1  0.10696030  0.26058597  0.71840227  1
  O  O326  1  0.10342474  0.59663201  0.22273254  1
  O  O327  1  0.08208407  0.58542385  0.72196944  1
  O  O328  1  0.11176453  0.94013457  0.23361240  1
  O  O329  1  0.09444695  0.93486230  0.72334772  1
  O  O330  1  0.42298043  0.25872817  0.23602489  1
  O  O331  1  0.42377963  0.26090739  0.70672822  1
  O  O332  1  0.41937508  0.59157448  0.23061370  1
  O  O333  1  0.41424367  0.58218259  0.73577073  1
  O  O334  1  0.42568435  0.91933360  0.22671042  1
  O  O335  1  0.42296396  0.93790081  0.72185312  1
  O  O336  1  0.75701045  0.25530811  0.23845588  1
  O  O337  1  0.76025786  0.25981184  0.72415710  1
  O  O338  1  0.75855563  0.58924615  0.23553289  1
  O  O339  1  0.77001698  0.60144466  0.72481570  1
  O  O340  1  0.74976038  0.92331338  0.23992733  1
  O  O341  1  0.76594377  0.92970873  0.71656486  1
  O  O342  1  0.06690370  0.10232049  0.22219335  1
  O  O343  1  0.07253209  0.09445907  0.72509983  1
  O  O344  1  0.07665934  0.42313757  0.22351397  1
  O  O345  1  0.08092449  0.42848651  0.72417533  1
  O  O346  1  0.08329163  0.75411470  0.22877554  1
  O  O347  1  0.06185430  0.76875119  0.73116878  1
  O  O348  1  0.40283758  0.08668738  0.23308000  1
  O  O349  1  0.39129336  0.09406532  0.71572971  1
  O  O350  1  0.39511988  0.42892581  0.23428891  1
  O  O351  1  0.40868294  0.42298861  0.71206696  1
  O  O352  1  0.40349443  0.76338290  0.22972676  1
  O  O353  1  0.40595946  0.75843381  0.73596942  1
  O  O354  1  0.73480552  0.08628902  0.23557451  1
  O  O355  1  0.73689599  0.10084665  0.71781566  1
  O  O356  1  0.74938243  0.42505600  0.24307358  1
  O  O357  1  0.74255259  0.43222853  0.73208324  1
  O  O358  1  0.73197825  0.76083381  0.23956958  1
  O  O359  1  0.74178229  0.75671984  0.71522889  1
