# generated using pymatgen
data_BaLaInIrO6
_symmetry_space_group_name_H-M   'P 1'
_cell_length_a   17.54858267
_cell_length_b   17.57462518
_cell_length_c   16.51126787
_cell_angle_alpha   90.02362846
_cell_angle_beta   90.03898015
_cell_angle_gamma   90.00895350
_symmetry_Int_Tables_number   1
_chemical_formula_structural   BaLaInIrO6
_chemical_formula_sum   'Ba36 La36 In36 Ir36 O216'
_cell_volume   5092.23453147
_cell_formula_units_Z   36
loop_
 _symmetry_equiv_pos_site_id
 _symmetry_equiv_pos_as_xyz
  1  'x, y, z'
loop_
 _atom_site_type_symbol
 _atom_site_label
 _atom_site_symmetry_multiplicity
 _atom_site_fract_x
 _atom_site_fract_y
 _atom_site_fract_z
 _atom_site_occupancy
  Ba  Ba0  1  0.16425106  0.67320697  0.62239392  1
  Ba  Ba1  1  0.33563433  0.17431001  0.62584823  1
  Ba  Ba2  1  0.66929316  0.82492415  0.37573938  1
  Ba  Ba3  1  0.33195006  0.82568582  0.87216483  1
  Ba  Ba4  1  0.84021052  0.99220748  0.87586190  1
  Ba  Ba5  1  0.33116682  0.49433980  0.36963068  1
  Ba  Ba6  1  0.49675636  0.67706491  0.12830256  1
  Ba  Ba7  1  0.16249340  0.34302191  0.62615665  1
  Ba  Ba8  1  1.00128694  0.17162016  0.62700581  1
  Ba  Ba9  1  0.66743255  0.15671087  0.36765656  1
  Ba  Ba10  1  0.33342415  0.50825441  0.12638326  1
  Ba  Ba11  1  0.17123654  0.65440607  0.37454132  1
  Ba  Ba12  1  -0.00461987  0.82167382  0.37228139  1
  Ba  Ba13  1  0.82936267  0.65589065  0.87669728  1
  Ba  Ba14  1  0.16746879  0.32323939  0.37309070  1
  Ba  Ba15  1  0.83665777  0.31578307  0.37118130  1
  Ba  Ba16  1  0.83530425  0.32330918  0.87927834  1
  Ba  Ba17  1  0.16731836  0.67197043  0.12717437  1
  Ba  Ba18  1  0.16560385  0.99320771  0.87473723  1
  Ba  Ba19  1  0.50454878  0.99282996  0.37565994  1
  Ba  Ba20  1  -0.00165860  0.48942004  0.37212718  1
  Ba  Ba21  1  0.33336914  0.84547997  0.61920378  1
  Ba  Ba22  1  0.50269239  0.65838628  0.37420693  1
  Ba  Ba23  1  0.49806010  0.34871907  0.12638906  1
  Ba  Ba24  1  0.83034999  0.00998528  0.61964406  1
  Ba  Ba25  1  -0.00428164  0.48869752  0.87859756  1
  Ba  Ba26  1  0.50328174  0.00814996  0.62316494  1
  Ba  Ba27  1  0.66949358  0.84467381  0.62120955  1
  Ba  Ba28  1  0.83468861  0.67383390  0.62693110  1
  Ba  Ba29  1  0.50168333  0.99201203  0.87494799  1
  Ba  Ba30  1  0.66820218  0.84449469  0.12847433  1
  Ba  Ba31  1  0.33756874  0.83885781  0.13000464  1
  Ba  Ba32  1  0.33551325  0.17747448  0.12474068  1
  Ba  Ba33  1  0.33334675  0.82693425  0.37587063  1
  Ba  Ba34  1  0.00006720  0.15953732  0.87458934  1
  Ba  Ba35  1  0.49712678  0.34535652  0.62468428  1
  La  La36  1  0.34325891  0.49883342  0.87559395  1
  La  La37  1  0.82824499  0.68301500  0.12472591  1
  La  La38  1  0.16972570  0.99094014  0.37847785  1
  La  La39  1  0.16848670  0.31637427  0.87881070  1
  La  La40  1  0.16770944  0.00424924  0.63108573  1
  La  La41  1  0.83774274  0.65304004  0.37224820  1
  La  La42  1  1.00586055  0.18152374  0.12368935  1
  La  La43  1  0.66340648  0.15173550  0.87616898  1
  La  La44  1  0.16841657  0.64917810  0.87135283  1
  La  La45  1  0.83440498  0.33923968  0.61992183  1
  La  La46  1  0.50023502  0.31816549  0.87668338  1
  La  La47  1  0.66634715  0.17839172  0.12466180  1
  La  La48  1  0.82929966  0.02033780  0.12692598  1
  La  La49  1  0.66772245  0.52087256  0.12706819  1
  La  La50  1  0.49491352  0.00848344  0.13021512  1
  La  La51  1  0.67071902  0.51568736  0.62836219  1
  La  La52  1  0.32858676  0.14829363  0.87460210  1
  La  La53  1  0.99580832  0.50227461  0.62715315  1
  La  La54  1  0.33173938  0.15641815  0.37385690  1
  La  La55  1  0.82974119  0.34543331  0.12729145  1
  La  La56  1  -0.00714117  0.82090999  0.87295127  1
  La  La57  1  1.00751989  0.85183658  0.62599617  1
  La  La58  1  0.33086207  0.50473873  0.61784103  1
  La  La59  1  1.00288950  0.51253341  0.12276377  1
  La  La60  1  1.00345619  0.84781223  0.12507347  1
  La  La61  1  0.67426880  0.17357130  0.61476014  1
  La  La62  1  0.49788216  0.32529620  0.37507303  1
  La  La63  1  -0.00329712  0.15048945  0.37316236  1
  La  La64  1  0.65964711  0.81783052  0.86924549  1
  La  La65  1  0.16464743  0.34983835  0.12892359  1
  La  La66  1  0.65687786  0.48542769  0.37468378  1
  La  La67  1  0.83489436  0.98447957  0.36981140  1
  La  La68  1  0.66005359  0.48144231  0.87634742  1
  La  La69  1  0.49540748  0.68554906  0.62301758  1
  La  La70  1  0.50307570  0.65576813  0.87926041  1
  La  La71  1  0.16377160  0.01393153  0.12893956  1
  In  In72  1  0.83609968  0.83117734  0.49929656  1
  In  In73  1  0.82924873  0.49736366  0.75326211  1
  In  In74  1  0.66448014  0.33219337  0.74768348  1
  In  In75  1  0.66998376  -0.00270158  0.00067045  1
  In  In76  1  0.49930825  0.16643708  0.00080604  1
  In  In77  1  0.16362665  0.83302355  0.49871761  1
  In  In78  1  0.83067951  0.49732571  0.24990597  1
  In  In79  1  0.16447221  0.83119728  0.75192816  1
  In  In80  1  0.33236333  0.66869846  -0.00187603  1
  In  In81  1  0.33419141  0.66694565  0.25110331  1
  In  In82  1  -0.00075655  0.00198107  0.75187983  1
  In  In83  1  -0.00032067  0.33009872  0.49740486  1
  In  In84  1  -0.00088149  0.66494835  0.75045794  1
  In  In85  1  0.33412804  0.33819394  0.75252588  1
  In  In86  1  0.50230715  0.16907233  0.49915552  1
  In  In87  1  0.33466394  0.33588274  -0.00041488  1
  In  In88  1  0.83307367  0.83276217  0.75060778  1
  In  In89  1  -0.00126858  0.00211423  0.00480477  1
  In  In90  1  0.16713852  0.16632756  0.49689480  1
  In  In91  1  0.00008086  0.66868519  0.00125203  1
  In  In92  1  0.33526202  0.66381245  0.74962622  1
  In  In93  1  0.66927728  0.00206326  0.74962421  1
  In  In94  1  0.16950387  0.16797002  0.74908965  1
  In  In95  1  0.83169976  0.17164868  0.75021607  1
  In  In96  1  0.33511869  0.66498099  0.49975838  1
  In  In97  1  0.82862040  0.49484567  0.49815762  1
  In  In98  1  0.49960724  0.16807997  0.24967266  1
  In  In99  1  0.66718985  0.66604358  0.49982481  1
  In  In100  1  0.16580628  0.49615572  -0.00195316  1
  In  In101  1  0.83124028  0.49918922  0.00313770  1
  In  In102  1  -0.00263308  0.66393892  0.49838017  1
  In  In103  1  0.50194177  0.16809070  0.74983117  1
  In  In104  1  0.33110518  -0.00356381  0.00517987  1
  In  In105  1  0.16305854  0.83436291  0.24880840  1
  In  In106  1  0.50245954  0.83431308  0.00072219  1
  In  In107  1  0.33348501  0.33424586  0.49844388  1
  Ir  Ir108  1  0.33030872  0.00220700  0.25356628  1
  Ir  Ir109  1  -0.00596320  0.66536713  0.24806414  1
  Ir  Ir110  1  0.16505316  0.16632446  0.24680833  1
  Ir  Ir111  1  0.16605568  0.49604742  0.75147157  1
  Ir  Ir112  1  0.67120282  0.66848526  0.24658842  1
  Ir  Ir113  1  0.50211572  0.83675322  0.50009134  1
  Ir  Ir114  1  0.33566011  -0.00179370  0.74799341  1
  Ir  Ir115  1  0.66686059  0.33447184  0.00510357  1
  Ir  Ir116  1  0.00064022  0.33544022  0.75457296  1
  Ir  Ir117  1  0.66635402  0.33387903  0.24819184  1
  Ir  Ir118  1  0.83679549  0.83484252  0.24470833  1
  Ir  Ir119  1  0.83380517  0.16369850  0.49074291  1
  Ir  Ir120  1  0.83302547  0.83273502  0.00317364  1
  Ir  Ir121  1  -0.00128894  0.32715816  0.24512595  1
  Ir  Ir122  1  0.83562462  0.16531788  0.24772318  1
  Ir  Ir123  1  0.50578584  0.83711139  0.25443499  1
  Ir  Ir124  1  -0.00293404  0.00215943  0.24688436  1
  Ir  Ir125  1  0.66850175  0.00102440  0.24670046  1
  Ir  Ir126  1  -0.00011964  0.00295259  0.49347784  1
  Ir  Ir127  1  0.16562555  0.49727738  0.50178232  1
  Ir  Ir128  1  0.33216685  0.33473000  0.24959203  1
  Ir  Ir129  1  0.33412092  0.00184789  0.49604725  1
  Ir  Ir130  1  0.50654490  0.50204127  -0.00108037  1
  Ir  Ir131  1  0.16019351  0.49541351  0.25112821  1
  Ir  Ir132  1  -0.00125273  0.32864760  0.00536047  1
  Ir  Ir133  1  0.83256787  0.17166330  0.00851319  1
  Ir  Ir134  1  0.50540647  0.49674939  0.25132707  1
  Ir  Ir135  1  0.66818578  0.66639735  0.00087925  1
  Ir  Ir136  1  0.66560363  0.33182989  0.49585466  1
  Ir  Ir137  1  0.16850812  0.16863924  0.00573499  1
  Ir  Ir138  1  0.50528268  0.49887216  0.50169103  1
  Ir  Ir139  1  0.50372249  0.50557973  0.74945087  1
  Ir  Ir140  1  0.65914289  0.66508080  0.75335367  1
  Ir  Ir141  1  0.66969252  0.00265270  0.49353071  1
  Ir  Ir142  1  0.16135837  0.83454809  0.00196934  1
  Ir  Ir143  1  0.49865423  0.83254514  0.74804492  1
  O  O144  1  0.30363721  0.33485259  0.12920632  1
  O  O145  1  0.31648442  0.34238398  0.62624413  1
  O  O146  1  0.32151847  0.66396375  0.12479879  1
  O  O147  1  0.32102728  0.64548065  0.62584391  1
  O  O148  1  0.29902955  0.99631655  0.13497825  1
  O  O149  1  0.30482722  0.99968398  0.62094663  1
  O  O150  1  0.64355947  0.31531782  0.12700701  1
  O  O151  1  0.64407514  0.31141962  0.61509610  1
  O  O152  1  0.64342311  0.65916405  0.12346846  1
  O  O153  1  0.62933187  0.65481554  0.63403125  1
  O  O154  1  0.63548737  1.00034610  0.12822473  1
  O  O155  1  0.65492119  1.00634586  0.61425812  1
  O  O156  1  0.96674464  0.31750078  0.12590594  1
  O  O157  1  0.97416930  0.33447717  0.63377330  1
  O  O158  1  0.96576205  0.65691524  0.13005804  1
  O  O159  1  0.98339668  0.63796231  0.62424462  1
  O  O160  1  0.96390272  0.98953423  0.12934553  1
  O  O161  1  0.98012023  0.99580430  0.61315508  1
  O  O162  1  0.19011315  0.15584058  0.12705162  1
  O  O163  1  0.18678606  0.14783934  0.62232662  1
  O  O164  1  0.17862194  0.48905040  0.13088631  1
  O  O165  1  0.19473422  0.49552641  0.62628395  1
  O  O166  1  0.18578346  0.83093531  0.11947487  1
  O  O167  1  0.18234819  0.84218520  0.62397630  1
  O  O168  1  0.52962868  0.15559283  0.12711016  1
  O  O169  1  0.53541429  0.16795995  0.62332872  1
  O  O170  1  0.53539658  0.49950729  0.12423265  1
  O  O171  1  0.53574112  0.49832309  0.62621295  1
  O  O172  1  0.51934846  0.83999342  0.13553239  1
  O  O173  1  0.52165594  0.82829951  0.62428715  1
  O  O174  1  0.86678525  0.16543540  0.12940772  1
  O  O175  1  0.84718035  0.17258058  0.61013304  1
  O  O176  1  0.86462160  0.48583191  0.12765613  1
  O  O177  1  0.85813911  0.48021490  0.62712004  1
  O  O178  1  0.86727814  0.82146335  0.12441869  1
  O  O179  1  0.87031462  0.83108918  0.62315493  1
  O  O180  1  0.13405453  0.16645442  0.36405962  1
  O  O181  1  0.14828159  0.17504176  0.88606880  1
  O  O182  1  0.14416383  0.49689014  0.37762832  1
  O  O183  1  0.14332256  0.50577770  0.87002256  1
  O  O184  1  0.14186985  0.85422060  0.37358830  1
  O  O185  1  0.12991136  0.84055794  0.88333605  1
  O  O186  1  0.47007242  0.17540807  0.37224417  1
  O  O187  1  0.46302444  0.17688784  0.87652060  1
  O  O188  1  0.48276850  0.48941869  0.37739015  1
  O  O189  1  0.47792869  0.51520483  0.87289466  1
  O  O190  1  0.48341744  0.83673768  0.37856512  1
  O  O191  1  0.48281229  0.83090465  0.86641815  1
  O  O192  1  0.81450869  0.15840848  0.36826186  1
  O  O193  1  0.80175495  0.17158059  0.88842361  1
  O  O194  1  0.79406087  0.50796843  0.37142222  1
  O  O195  1  0.79699169  0.49421183  0.88000449  1
  O  O196  1  0.81852836  0.84595257  0.36429830  1
  O  O197  1  0.79755757  0.83800894  0.88740005  1
  O  O198  1  0.03002851  0.01177191  0.36819152  1
  O  O199  1  0.01403765  0.00367477  0.88174991  1
  O  O200  1  0.01752717  0.32998323  0.36393386  1
  O  O201  1  0.03132965  0.33437244  0.88243839  1
  O  O202  1  0.02070928  0.66698727  0.36456216  1
  O  O203  1  0.03623974  0.68121537  0.87734625  1
  O  O204  1  0.35779292  0.01470065  0.37465571  1
  O  O205  1  0.35030334  0.00534449  0.87044607  1
  O  O206  1  0.36030310  0.33833494  0.36825581  1
  O  O207  1  0.36562966  0.36086980  0.87527114  1
  O  O208  1  0.35204068  0.65512414  0.37514807  1
  O  O209  1  0.36531114  0.65634533  0.87272759  1
  O  O210  1  0.69941740  0.00157262  0.36834222  1
  O  O211  1  0.69533940  0.01640272  0.87745381  1
  O  O212  1  0.69112555  0.35117684  0.37203425  1
  O  O213  1  0.68748524  0.34828622  0.88592172  1
  O  O214  1  0.69931406  0.66642772  0.36679542  1
  O  O215  1  0.68357796  0.67894924  0.87698011  1
  O  O216  1  0.07651683  0.09845435  0.03268007  1
  O  O217  1  0.06509211  0.09412917  0.50341574  1
  O  O218  1  0.06420656  0.42081996  0.03067059  1
  O  O219  1  0.06880067  0.43299816  0.52201847  1
  O  O220  1  0.06502648  0.77300655  0.02590773  1
  O  O221  1  0.06167844  0.76623072  0.52289102  1
  O  O222  1  0.40856818  0.08785827  0.02263817  1
  O  O223  1  0.40416497  0.09112606  0.51248453  1
  O  O224  1  0.41050630  0.43999977  0.01162348  1
  O  O225  1  0.40851824  0.43874608  0.51955095  1
  O  O226  1  0.40831324  0.76130774  0.01002041  1
  O  O227  1  0.41719815  0.76075352  0.51744910  1
  O  O228  1  0.74201477  0.10391087  0.03464698  1
  O  O229  1  0.73576260  0.09900103  0.51159996  1
  O  O230  1  0.73084203  0.42740531  0.03502203  1
  O  O231  1  0.73018453  0.42030248  0.52913142  1
  O  O232  1  0.74092448  0.75869762  0.02566090  1
  O  O233  1  0.74079673  0.75811684  0.51651341  1
  O  O234  1  0.09867861  0.26359933  0.02944977  1
  O  O235  1  0.09216796  0.25866260  0.51637716  1
  O  O236  1  0.08936079  0.58712584  0.02049394  1
  O  O237  1  0.09594214  0.58522602  0.51288277  1
  O  O238  1  0.09760200  0.92972129  0.03384552  1
  O  O239  1  0.09532712  0.94181899  0.51865164  1
  O  O240  1  0.43284435  0.26853670  0.01206173  1
  O  O241  1  0.43443874  0.26901556  0.50493476  1
  O  O242  1  0.44216718  0.59436524  0.00837566  1
  O  O243  1  0.44209104  0.59222529  0.52615570  1
  O  O244  1  0.43331057  0.93217402  0.02567056  1
  O  O245  1  0.42683546  0.92933271  0.51534304  1
  O  O246  1  0.76309997  0.26699199  0.03181888  1
  O  O247  1  0.76182321  0.26167940  0.51778892  1
  O  O248  1  0.75849743  0.59774526  0.03149078  1
  O  O249  1  0.75091661  0.58405154  0.53190973  1
  O  O250  1  0.77387623  0.93024930  0.03123858  1
  O  O251  1  0.76029068  0.93252426  0.50107468  1
  O  O252  1  0.23539910  0.07305293  0.27748461  1
  O  O253  1  0.25113632  0.07294677  0.76741625  1
  O  O254  1  0.23173086  0.40205729  0.26171915  1
  O  O255  1  0.22650242  0.40161744  0.77783353  1
  O  O256  1  0.24200807  0.74591012  0.26477636  1
  O  O257  1  0.23350908  0.73068463  0.77526233  1
  O  O258  1  0.57900734  0.07056637  0.26386943  1
  O  O259  1  0.57676875  0.07645112  0.77421893  1
  O  O260  1  0.57496146  0.40352551  0.27637584  1
  O  O261  1  0.56255253  0.40829902  0.77690560  1
  O  O262  1  0.57790139  0.74362023  0.27037261  1
  O  O263  1  0.56483300  0.73516006  0.77410040  1
  O  O264  1  0.90221773  0.06931154  0.27201273  1
  O  O265  1  0.90550083  0.07908479  0.75734711  1
  O  O266  1  0.90574700  0.39514185  0.26009780  1
  O  O267  1  0.90969966  0.40102843  0.76733795  1
  O  O268  1  0.89839707  0.73324052  0.26797129  1
  O  O269  1  0.90623849  0.74171483  0.78034314  1
  O  O270  1  0.26281508  0.23410713  0.27277017  1
  O  O271  1  0.26309287  0.23905373  0.78320959  1
  O  O272  1  0.24631882  0.57064859  0.26026799  1
  O  O273  1  0.26358497  0.55819373  0.77140449  1
  O  O274  1  0.25359788  0.92120987  0.27465189  1
  O  O275  1  0.26196500  0.91270355  0.76210759  1
  O  O276  1  0.59288410  0.24912511  0.26888082  1
  O  O277  1  0.59509009  0.24377922  0.79075692  1
  O  O278  1  0.60502022  0.56510300  0.26749537  1
  O  O279  1  0.59974230  0.56669438  0.77858493  1
  O  O280  1  0.59924725  0.90955013  0.27005986  1
  O  O281  1  0.59344990  0.89839670  0.76885532  1
  O  O282  1  0.93675192  0.22646895  0.26643111  1
  O  O283  1  0.93185729  0.24540327  0.76820697  1
  O  O284  1  0.92063052  0.57886800  0.27137920  1
  O  O285  1  0.92383701  0.57023427  0.76775367  1
  O  O286  1  0.92671260  0.91060091  0.26993668  1
  O  O287  1  0.93561744  0.89948196  0.77142025  1
  O  O288  1  0.26744406  0.23285556  0.47305543  1
  O  O289  1  0.26224259  0.23413000  0.97477655  1
  O  O290  1  0.25932096  0.56351166  0.49225180  1
  O  O291  1  0.26274510  0.56838611  0.97383006  1
  O  O292  1  0.25907702  0.91879882  0.47783480  1
  O  O293  1  0.25351279  0.90124254  0.98376537  1
  O  O294  1  0.59599743  0.24799070  0.46625842  1
  O  O295  1  0.60459029  0.24097296  0.97985193  1
  O  O296  1  0.59828479  0.56286897  0.47758660  1
  O  O297  1  0.60609140  0.56674476  0.97912658  1
  O  O298  1  0.59724380  0.91038948  0.48202526  1
  O  O299  1  0.60410379  0.89673866  0.97511516  1
  O  O300  1  0.92976009  0.22548624  0.47235990  1
  O  O301  1  0.93104507  0.23412907  0.98914394  1
  O  O302  1  0.91711382  0.57355128  0.47310058  1
  O  O303  1  0.92552024  0.57260711  0.98928297  1
  O  O304  1  0.92994223  0.91464836  0.47746092  1
  O  O305  1  0.92909035  0.89448964  0.98483080  1
  O  O306  1  0.24391463  0.07082474  0.46906957  1
  O  O307  1  0.23802685  0.07815868  0.98597095  1
  O  O308  1  0.23541371  0.40897375  0.48633793  1
  O  O309  1  0.22677383  0.39290611  0.98655943  1
  O  O310  1  0.24373748  0.74304854  0.48592634  1
  O  O311  1  0.22330966  0.73744373  0.97434491  1
  O  O312  1  0.58271548  0.07522470  0.48114062  1
  O  O313  1  0.58295871  0.08111465  0.97759500  1
  O  O314  1  0.57155430  0.40137925  0.47301907  1
  O  O315  1  0.57217146  0.40211332  0.97603285  1
  O  O316  1  0.57031743  0.74357070  0.49136936  1
  O  O317  1  0.57569706  0.73328007  0.97624745  1
  O  O318  1  0.90215126  0.06887100  0.46500730  1
  O  O319  1  0.89782961  0.07749569  0.99764754  1
  O  O320  1  0.89886294  0.39445615  0.48932426  1
  O  O321  1  0.90611762  0.39510748  0.99442820  1
  O  O322  1  0.89850683  0.73192222  0.46780249  1
  O  O323  1  0.90094123  0.74335685  0.98200891  1
  O  O324  1  0.09512793  0.25940640  0.21628319  1
  O  O325  1  0.09304370  0.26836009  0.74617538  1
  O  O326  1  0.07987125  0.58447175  0.22256234  1
  O  O327  1  0.10476405  0.59098325  0.74007338  1
  O  O328  1  0.08836203  0.93395006  0.21964014  1
  O  O329  1  0.09471246  0.93006801  0.72398958  1
  O  O330  1  0.42212927  0.26607671  0.23451739  1
  O  O331  1  0.43252396  0.26816733  0.74195054  1
  O  O332  1  0.43331093  0.58362859  0.23676162  1
  O  O333  1  0.44920852  0.60376441  0.73292404  1
  O  O334  1  0.43036024  0.93326272  0.23092325  1
  O  O335  1  0.42915303  0.92507642  0.72924544  1
  O  O336  1  0.76209770  0.25981078  0.22143831  1
  O  O337  1  0.76840364  0.27249324  0.72581275  1
  O  O338  1  0.75950856  0.59847123  0.21944710  1
  O  O339  1  0.74830598  0.59523320  0.73077878  1
  O  O340  1  0.77098899  0.93505592  0.22630208  1
  O  O341  1  0.76088340  0.92678757  0.73326468  1
  O  O342  1  0.06824822  0.09623420  0.21986328  1
  O  O343  1  0.08229235  0.08873981  0.73525347  1
  O  O344  1  0.06528009  0.42170730  0.22054068  1
  O  O345  1  0.06691128  0.43393357  0.72897031  1
  O  O346  1  0.06076473  0.75961628  0.22359500  1
  O  O347  1  0.06200865  0.76786439  0.72542457  1
  O  O348  1  0.40604032  0.08594483  0.23037702  1
  O  O349  1  0.40527232  0.08733375  0.73486676  1
  O  O350  1  0.40511281  0.42700865  0.23148685  1
  O  O351  1  0.40286149  0.45119786  0.73217799  1
  O  O352  1  0.41843796  0.76462659  0.24408551  1
  O  O353  1  0.40999628  0.76170288  0.72664196  1
  O  O354  1  0.73942500  0.09666569  0.21877931  1
  O  O355  1  0.72881251  0.11123676  0.72947699  1
  O  O356  1  0.73299196  0.42459515  0.21983624  1
  O  O357  1  0.72391112  0.43526679  0.73151573  1
  O  O358  1  0.74753686  0.75720579  0.22072827  1
  O  O359  1  0.72681351  0.75697553  0.73920591  1
