# generated using pymatgen
data_BaLaInIrO6
_symmetry_space_group_name_H-M   'P 1'
_cell_length_a   17.51561694
_cell_length_b   17.53847245
_cell_length_c   16.47575669
_cell_angle_alpha   90.02201203
_cell_angle_beta   89.99487072
_cell_angle_gamma   90.00988144
_symmetry_Int_Tables_number   1
_chemical_formula_structural   BaLaInIrO6
_chemical_formula_sum   'Ba36 La36 In36 Ir36 O216'
_cell_volume   5061.30528196
_cell_formula_units_Z   36
loop_
 _symmetry_equiv_pos_site_id
 _symmetry_equiv_pos_as_xyz
  1  'x, y, z'
loop_
 _atom_site_type_symbol
 _atom_site_label
 _atom_site_symmetry_multiplicity
 _atom_site_fract_x
 _atom_site_fract_y
 _atom_site_fract_z
 _atom_site_occupancy
  Ba  Ba0  1  0.33602504  0.50854210  0.62643793  1
  Ba  Ba1  1  0.16210515  0.01013355  0.12326110  1
  Ba  Ba2  1  0.66794848  0.83773070  0.62476817  1
  Ba  Ba3  1  0.50083524  0.99155075  0.37483791  1
  Ba  Ba4  1  0.66449555  0.82186001  0.87525316  1
  Ba  Ba5  1  0.50264053  0.32353826  0.87123956  1
  Ba  Ba6  1  0.00097128  0.49321477  0.87819441  1
  Ba  Ba7  1  1.00374912  0.17297166  0.62236542  1
  Ba  Ba8  1  0.99869414  0.50921472  0.12596530  1
  Ba  Ba9  1  0.49561067  0.01265034  0.62819466  1
  Ba  Ba10  1  0.49733804  0.01048567  0.12244715  1
  Ba  Ba11  1  0.49818164  0.65777369  0.37901527  1
  Ba  Ba12  1  0.65886211  0.15682407  0.87632471  1
  Ba  Ba13  1  0.16655019  0.99269739  0.37551596  1
  Ba  Ba14  1  0.33865336  0.84467895  0.62272124  1
  Ba  Ba15  1  0.99820076  0.17224928  0.12618033  1
  Ba  Ba16  1  0.49907311  0.67662218  0.62702002  1
  Ba  Ba17  1  0.49612163  0.67920295  0.12380393  1
  Ba  Ba18  1  0.99996574  0.83990301  0.12724220  1
  Ba  Ba19  1  0.16357328  0.67715120  0.13066462  1
  Ba  Ba20  1  0.16884757  0.65765258  0.87893697  1
  Ba  Ba21  1  0.66514886  0.51083488  0.62736879  1
  Ba  Ba22  1  0.16621939  0.32681290  0.37111918  1
  Ba  Ba23  1  0.16774326  0.01348228  0.62566936  1
  Ba  Ba24  1  0.82952618  0.67513017  0.62884655  1
  Ba  Ba25  1  0.83598600  0.99308273  0.37353546  1
  Ba  Ba26  1  0.16677228  0.66023153  0.37938140  1
  Ba  Ba27  1  1.00207732  0.83694067  0.62319082  1
  Ba  Ba28  1  0.83302504  0.00847729  0.12422750  1
  Ba  Ba29  1  0.16967633  0.33844865  0.62252560  1
  Ba  Ba30  1  0.83456336  0.65869669  0.87672936  1
  Ba  Ba31  1  0.67025479  0.84110993  0.12621182  1
  Ba  Ba32  1  0.32908617  0.49751455  0.37609185  1
  Ba  Ba33  1  0.83239994  0.67265895  0.12528765  1
  Ba  Ba34  1  0.83312116  0.65938761  0.37461686  1
  Ba  Ba35  1  -0.00206461  0.49242864  0.37220305  1
  La  La36  1  0.33190122  0.15580264  0.87307278  1
  La  La37  1  0.82812107  0.34757289  0.12799793  1
  La  La38  1  -0.00085296  0.81926687  0.37233865  1
  La  La39  1  0.82570486  0.01504054  0.62883247  1
  La  La40  1  0.50306067  0.98268486  0.87600261  1
  La  La41  1  0.66244595  0.81156870  0.37441521  1
  La  La42  1  1.00429104  0.51426846  0.62572919  1
  La  La43  1  -0.00053670  0.15628397  0.37465915  1
  La  La44  1  0.67223853  0.51370833  0.12254925  1
  La  La45  1  0.33570652  0.51824434  0.12346171  1
  La  La46  1  0.16973510  0.32043819  0.87484265  1
  La  La47  1  0.32960991  0.15584227  0.37561610  1
  La  La48  1  0.16599916  0.34833953  0.12627354  1
  La  La49  1  0.83120160  0.34610875  0.62213434  1
  La  La50  1  0.16570312  0.98272685  0.87188007  1
  La  La51  1  0.32810827  0.82016254  0.37493984  1
  La  La52  1  0.34015620  0.84728563  0.12552023  1
  La  La53  1  -0.00345127  0.81719622  0.88191307  1
  La  La54  1  0.66100720  0.49025284  0.37422144  1
  La  La55  1  -0.00083488  0.15219460  0.87323086  1
  La  La56  1  0.50132604  0.34656820  0.12048697  1
  La  La57  1  0.33516774  0.17794260  0.62532870  1
  La  La58  1  0.50451776  0.65464180  0.87219790  1
  La  La59  1  0.83612531  0.32634287  0.87613245  1
  La  La60  1  0.16250344  0.67627595  0.62384061  1
  La  La61  1  0.67411290  0.17880850  0.12811658  1
  La  La62  1  0.83886007  0.31846441  0.37382794  1
  La  La63  1  0.32711841  0.48500046  0.87602551  1
  La  La64  1  0.83406093  0.98124859  0.87547259  1
  La  La65  1  0.33070878  0.81917996  0.87419049  1
  La  La66  1  0.66731520  0.17714067  0.62697628  1
  La  La67  1  0.50588761  0.31666990  0.37456671  1
  La  La68  1  0.33620529  0.17778602  0.12736922  1
  La  La69  1  0.66413947  0.49175653  0.87046736  1
  La  La70  1  0.49290618  0.34409130  0.62336319  1
  La  La71  1  0.66327033  0.15286883  0.37607693  1
  In  In72  1  0.66706452  0.33196314  0.49908499  1
  In  In73  1  0.16844777  0.49744368  0.75102396  1
  In  In74  1  0.66224071  0.00066020  0.75164690  1
  In  In75  1  0.49939365  0.83359280  0.25158127  1
  In  In76  1  0.16633608  0.50069286  0.24894139  1
  In  In77  1  0.16609955  0.49825581  0.50218453  1
  In  In78  1  0.17118244  0.83222159  0.00134760  1
  In  In79  1  -0.00317449  0.66466783  0.49958777  1
  In  In80  1  0.49978712  0.83536507  0.50020622  1
  In  In81  1  0.83142604  0.16674099  -0.00300947  1
  In  In82  1  0.49766635  0.49961255  0.75159056  1
  In  In83  1  0.66603666  0.00046426  0.25047747  1
  In  In84  1  -0.00205797  0.33301589  0.50191647  1
  In  In85  1  -0.00147108  -0.00245679  0.74924506  1
  In  In86  1  0.66712405  -0.00218588  0.50097585  1
  In  In87  1  -0.00064399  -0.00134299  0.50068561  1
  In  In88  1  0.83418949  0.83654132  0.50000298  1
  In  In89  1  0.33241379  0.00165584  0.24930949  1
  In  In90  1  0.83183865  0.83072170  0.00100863  1
  In  In91  1  0.33403963  0.66696240  0.50556667  1
  In  In92  1  0.33316602  0.00250773  0.75179962  1
  In  In93  1  0.33189469  0.00282085  -0.00380718  1
  In  In94  1  0.33619637  0.33175711  0.49482668  1
  In  In95  1  0.66394689  0.66179309  0.24854589  1
  In  In96  1  0.00140823  0.00004791  -0.00195969  1
  In  In97  1  0.83109566  0.83561546  0.25249810  1
  In  In98  1  -0.00101022  0.33078641  0.24710991  1
  In  In99  1  0.49922958  0.49792667  0.24711698  1
  In  In100  1  0.66527525  0.33386948  -0.00046882  1
  In  In101  1  0.33705123  0.33365570  0.24689131  1
  In  In102  1  0.00094685  0.66508700  0.75183042  1
  In  In103  1  0.83327967  0.49604131  0.74895599  1
  In  In104  1  0.33430396  0.33129225  0.00109530  1
  In  In105  1  0.83132565  0.49839104  -0.00125142  1
  In  In106  1  0.83167462  0.16928696  0.75127586  1
  In  In107  1  0.00216769  0.32969455  -0.00132082  1
  Ir  Ir108  1  0.83156505  0.16954428  0.25260081  1
  Ir  Ir109  1  0.00433592  0.00238873  0.25221988  1
  Ir  Ir110  1  0.49679158  0.83145116  0.75504555  1
  Ir  Ir111  1  0.33483454  0.66924141  0.75754614  1
  Ir  Ir112  1  0.00088004  0.33038424  0.75109980  1
  Ir  Ir113  1  0.83174423  0.16886252  0.50025398  1
  Ir  Ir114  1  0.49973209  0.16799870  0.00351145  1
  Ir  Ir115  1  0.16642935  0.17072194  0.75386084  1
  Ir  Ir116  1  0.16977509  0.16589225  0.24778781  1
  Ir  Ir117  1  0.16895108  0.83228824  0.74835597  1
  Ir  Ir118  1  0.66611163  0.33232383  0.74523159  1
  Ir  Ir119  1  0.82877092  0.49625516  0.49783477  1
  Ir  Ir120  1  0.17021703  0.49897588  -0.00097402  1
  Ir  Ir121  1  0.50183525  0.49585277  0.49869171  1
  Ir  Ir122  1  0.49840085  0.83245493  -0.00247223  1
  Ir  Ir123  1  0.33018500  0.67053736  0.24444899  1
  Ir  Ir124  1  0.66640759  0.66761625  0.75299722  1
  Ir  Ir125  1  0.16878612  0.16857864  -0.00303845  1
  Ir  Ir126  1  0.49788539  0.17078450  0.75093349  1
  Ir  Ir127  1  0.33896394  0.66592680  -0.00131756  1
  Ir  Ir128  1  0.00384970  0.66470758  0.00308222  1
  Ir  Ir129  1  0.33337434  0.00753282  0.50015740  1
  Ir  Ir130  1  0.17035767  0.83689755  0.50087757  1
  Ir  Ir131  1  0.83529819  0.83372110  0.75378292  1
  Ir  Ir132  1  0.33545920  0.32823502  0.75249027  1
  Ir  Ir133  1  0.66829387  0.66007583  0.50279837  1
  Ir  Ir134  1  0.66038097  0.66340821  -0.00571197  1
  Ir  Ir135  1  0.49898015  0.50135499  -0.00180276  1
  Ir  Ir136  1  0.16821760  0.83393386  0.25448616  1
  Ir  Ir137  1  0.50332036  0.17160558  0.24726248  1
  Ir  Ir138  1  0.66183228  0.00251743  -0.00126028  1
  Ir  Ir139  1  0.16977382  0.16595966  0.49833565  1
  Ir  Ir140  1  0.49974624  0.16821562  0.49952073  1
  Ir  Ir141  1  0.82730895  0.49640307  0.25192076  1
  Ir  Ir142  1  0.66721071  0.33120370  0.25241237  1
  Ir  Ir143  1  -0.00071815  0.66734673  0.24922582  1
  O  O144  1  0.30044608  0.31264878  0.12227113  1
  O  O145  1  0.32155839  0.31788757  0.63055457  1
  O  O146  1  0.31196211  0.65680730  0.11942253  1
  O  O147  1  0.30122684  0.66621980  0.63911747  1
  O  O148  1  0.31301815  0.98868643  0.12130923  1
  O  O149  1  0.31803676  1.00774145  0.62293641  1
  O  O150  1  0.63560344  0.31990262  0.13286412  1
  O  O151  1  0.63078781  0.32263565  0.62605248  1
  O  O152  1  0.64313189  0.65345077  0.11488796  1
  O  O153  1  0.64776248  0.66916552  0.63004021  1
  O  O154  1  0.64483075  1.00100049  0.11812114  1
  O  O155  1  0.64471288  0.99811542  0.62630666  1
  O  O156  1  0.96368264  0.32676713  0.12351151  1
  O  O157  1  0.96653607  0.32330939  0.63134102  1
  O  O158  1  0.98187176  0.67087954  0.12541871  1
  O  O159  1  0.97906155  0.66037067  0.62624309  1
  O  O160  1  0.98759555  1.00030673  0.13028915  1
  O  O161  1  0.96479152  0.99929082  0.62604080  1
  O  O162  1  0.20184825  0.16117596  0.12061298  1
  O  O163  1  0.19937837  0.16733115  0.62669822  1
  O  O164  1  0.19963434  0.49222879  0.11682212  1
  O  O165  1  0.18980263  0.49145683  0.62895583  1
  O  O166  1  0.20107017  0.83413416  0.13199339  1
  O  O167  1  0.19351645  0.82128554  0.62381819  1
  O  O168  1  0.53657476  0.16541256  0.12549930  1
  O  O169  1  0.53033854  0.16709622  0.62534847  1
  O  O170  1  0.53622655  0.49012149  0.11637197  1
  O  O171  1  0.51752772  0.48665626  0.62220764  1
  O  O172  1  0.51815821  0.83406836  0.11733927  1
  O  O173  1  0.51524744  0.83450000  0.63412491  1
  O  O174  1  0.84814255  0.16501136  0.13178045  1
  O  O175  1  0.85450956  0.15759677  0.62060158  1
  O  O176  1  0.84870148  0.48813238  0.13088267  1
  O  O177  1  0.86218830  0.48482419  0.61837784  1
  O  O178  1  0.84824863  0.83237858  0.12503243  1
  O  O179  1  0.85101978  0.83192498  0.63459310  1
  O  O180  1  0.13861051  0.17012283  0.37097953  1
  O  O181  1  0.13521865  0.18367464  0.87634893  1
  O  O182  1  0.14872565  0.50215883  0.37443261  1
  O  O183  1  0.15130980  0.49818982  0.87954093  1
  O  O184  1  0.13739008  0.83652287  0.37824347  1
  O  O185  1  0.13681115  0.83780715  0.86689758  1
  O  O186  1  0.46860242  0.17824767  0.37286978  1
  O  O187  1  0.46679323  0.17405501  0.87819005  1
  O  O188  1  0.48258741  0.49790525  0.37785675  1
  O  O189  1  0.46377982  0.50941829  0.87945727  1
  O  O190  1  0.46338297  0.83213843  0.37578944  1
  O  O191  1  0.46854002  0.83542922  0.87677046  1
  O  O192  1  0.79990400  0.18035023  0.37752062  1
  O  O193  1  0.80376857  0.19434502  0.87299306  1
  O  O194  1  0.79642398  0.50156546  0.37595858  1
  O  O195  1  0.80004939  0.48987420  0.87347653  1
  O  O196  1  0.79494421  0.83841045  0.37719532  1
  O  O197  1  0.81321524  0.83748535  0.87256545  1
  O  O198  1  0.01811496  0.01808282  0.37155244  1
  O  O199  1  0.03334212  0.01293157  0.87164554  1
  O  O200  1  0.01364241  0.33254815  0.37394538  1
  O  O201  1  0.03427406  0.33902549  0.86991059  1
  O  O202  1  0.01664998  0.66825985  0.36960143  1
  O  O203  1  0.01910136  0.67008805  0.88163596  1
  O  O204  1  0.35209222  0.01868647  0.37841634  1
  O  O205  1  0.36914020  0.02037918  0.87458159  1
  O  O206  1  0.37190147  0.33141854  0.37014804  1
  O  O207  1  0.35370235  0.33909105  0.87383574  1
  O  O208  1  0.34764066  0.67682995  0.36545572  1
  O  O209  1  0.36996241  0.67813375  0.87897126  1
  O  O210  1  0.68605493  0.02218589  0.37724555  1
  O  O211  1  0.69199857  0.00467327  0.87936252  1
  O  O212  1  0.69980441  0.34459900  0.37103554  1
  O  O213  1  0.69693096  0.34364970  0.86754007  1
  O  O214  1  0.68080840  0.65557359  0.38285463  1
  O  O215  1  0.68491893  0.66066973  0.87378520  1
  O  O216  1  0.07405685  0.10592541  0.00834723  1
  O  O217  1  0.07844593  0.09472262  0.51042219  1
  O  O218  1  0.08253926  0.42587062  0.02164765  1
  O  O219  1  0.06108174  0.43168092  0.52624730  1
  O  O220  1  0.07665953  0.75506104  0.01115125  1
  O  O221  1  0.08751414  0.75847955  0.51546174  1
  O  O222  1  0.40239160  0.10633876  0.02235740  1
  O  O223  1  0.39812333  0.10696360  0.52023586  1
  O  O224  1  0.40810986  0.43064786  0.02489626  1
  O  O225  1  0.41660776  0.42245929  0.52073206  1
  O  O226  1  0.40075942  0.76676713  0.02115558  1
  O  O227  1  0.41069475  0.75609708  0.51603073  1
  O  O228  1  0.72670351  0.09744538  0.02152385  1
  O  O229  1  0.73715544  0.10557800  0.52411707  1
  O  O230  1  0.73524051  0.42667058  0.03143237  1
  O  O231  1  0.73942112  0.42776576  0.51946378  1
  O  O232  1  0.73456403  0.75090872  0.01222632  1
  O  O233  1  0.73765586  0.75135170  0.51104455  1
  O  O234  1  0.11071191  0.26704831  0.02006957  1
  O  O235  1  0.09678828  0.25322825  0.51277889  1
  O  O236  1  0.09752032  0.59031865  0.02034671  1
  O  O237  1  0.09114029  0.59446228  0.53108025  1
  O  O238  1  0.09932646  0.92888492  0.00395389  1
  O  O239  1  0.09857053  0.92274021  0.51920221  1
  O  O240  1  0.43390510  0.26144074  0.03130589  1
  O  O241  1  0.43620842  0.26165720  0.52268865  1
  O  O242  1  0.42560431  0.58821013  0.02539796  1
  O  O243  1  0.43121063  0.58488708  0.51576065  1
  O  O244  1  0.42728262  0.92228252  0.01061491  1
  O  O245  1  0.42315242  0.93820652  0.51266291  1
  O  O246  1  0.76272266  0.26519890  0.02914974  1
  O  O247  1  0.76522531  0.26155908  0.52478783  1
  O  O248  1  0.74714407  0.58861084  0.01428450  1
  O  O249  1  0.76081057  0.58932732  0.51977545  1
  O  O250  1  0.75484896  0.93380457  0.00750866  1
  O  O251  1  0.77228809  0.93884234  0.52827503  1
  O  O252  1  0.23938470  0.07781324  0.26750746  1
  O  O253  1  0.23367385  0.07720266  0.77982767  1
  O  O254  1  0.24297074  0.40553727  0.25603748  1
  O  O255  1  0.24317323  0.39818064  0.77846753  1
  O  O256  1  0.24003455  0.74478124  0.27403884  1
  O  O257  1  0.24648734  0.74603077  0.78060775  1
  O  O258  1  0.57068591  0.08252365  0.26870577  1
  O  O259  1  0.55903198  0.07331142  0.77669983  1
  O  O260  1  0.57099534  0.39333095  0.27419744  1
  O  O261  1  0.58491878  0.41285874  0.77222080  1
  O  O262  1  0.57328676  0.73850846  0.26965381  1
  O  O263  1  0.56569713  0.73509298  0.77413398  1
  O  O264  1  0.91116010  0.08080829  0.27378142  1
  O  O265  1  0.89947217  0.06941043  0.78045356  1
  O  O266  1  0.89149343  0.40082832  0.26984042  1
  O  O267  1  0.90175008  0.38902720  0.76880569  1
  O  O268  1  0.91677479  0.74504060  0.27023079  1
  O  O269  1  0.91129069  0.74775803  0.77499838  1
  O  O270  1  0.26777882  0.22753295  0.26744152  1
  O  O271  1  0.26462872  0.23587080  0.77689777  1
  O  O272  1  0.26256059  0.57924290  0.25380923  1
  O  O273  1  0.27285464  0.57262255  0.78080992  1
  O  O274  1  0.26166092  0.89920227  0.27504492  1
  O  O275  1  0.25603262  0.90763462  0.77674016  1
  O  O276  1  0.60055723  0.23661895  0.27885182  1
  O  O277  1  0.59520057  0.23952415  0.76439106  1
  O  O278  1  0.60157964  0.55771561  0.26293447  1
  O  O279  1  0.59371106  0.57655803  0.77544895  1
  O  O280  1  0.59930991  0.90087813  0.27666973  1
  O  O281  1  0.58356470  0.90595856  0.77496776  1
  O  O282  1  0.92473130  0.23440457  0.27808981  1
  O  O283  1  0.93765029  0.23711581  0.77615206  1
  O  O284  1  0.92273532  0.57300450  0.26565763  1
  O  O285  1  0.92809906  0.56716634  0.76158878  1
  O  O286  1  0.93932923  0.90795224  0.27439692  1
  O  O287  1  0.92688658  0.90037538  0.78261485  1
  O  O288  1  0.26742011  0.22904431  0.48150518  1
  O  O289  1  0.26413288  0.23063956  0.97364579  1
  O  O290  1  0.25698174  0.58076072  0.48993262  1
  O  O291  1  0.27332482  0.56476614  0.97903960  1
  O  O292  1  0.26757092  0.90953226  0.47653217  1
  O  O293  1  0.26200751  0.90688852  0.96314365  1
  O  O294  1  0.59383614  0.23539869  0.47249985  1
  O  O295  1  0.58993948  0.23805306  0.98778048  1
  O  O296  1  0.59863330  0.56191590  0.48033911  1
  O  O297  1  0.58928360  0.57102099  0.96527279  1
  O  O298  1  0.60076701  0.89764019  0.47322471  1
  O  O299  1  0.58723772  0.91043262  0.97241287  1
  O  O300  1  0.92267308  0.23656810  0.47307141  1
  O  O301  1  0.93472177  0.23232571  0.97006439  1
  O  O302  1  0.92025960  0.56337792  0.48691382  1
  O  O303  1  0.92579110  0.57833979  0.99086193  1
  O  O304  1  0.93645808  0.90187164  0.46958074  1
  O  O305  1  0.92734762  0.90520871  0.96956692  1
  O  O306  1  0.24271303  0.07736591  0.47979946  1
  O  O307  1  0.23135486  0.07403869  0.96615442  1
  O  O308  1  0.24445757  0.40450337  0.48259754  1
  O  O309  1  0.23749870  0.40581520  0.97629233  1
  O  O310  1  0.24594664  0.75444293  0.48085639  1
  O  O311  1  0.25371183  0.74188133  0.97676851  1
  O  O312  1  0.57020841  0.08102618  0.48174149  1
  O  O313  1  0.56246566  0.06877394  0.97639240  1
  O  O314  1  0.56983514  0.40288000  0.47397137  1
  O  O315  1  0.57386386  0.41562460  0.97380454  1
  O  O316  1  0.58311847  0.73504081  0.48453271  1
  O  O317  1  0.56457555  0.73426676  0.97452253  1
  O  O318  1  0.90426677  0.08310892  0.48121262  1
  O  O319  1  0.90030966  0.06838179  0.97102577  1
  O  O320  1  0.88881571  0.39860234  0.47954478  1
  O  O321  1  0.90167530  0.39987907  0.97848726  1
  O  O322  1  0.91463570  0.74773376  0.47820683  1
  O  O323  1  0.91884078  0.74112910  0.98261931  1
  O  O324  1  0.10442886  0.25805704  0.22222958  1
  O  O325  1  0.10083056  0.26831972  0.73829408  1
  O  O326  1  0.08459459  0.59289270  0.23389403  1
  O  O327  1  0.09934156  0.59482917  0.72693717  1
  O  O328  1  0.09558545  0.92744769  0.23356858  1
  O  O329  1  0.09863828  0.92204523  0.73149988  1
  O  O330  1  0.44087473  0.26545604  0.22045476  1
  O  O331  1  0.43203647  0.26356377  0.72336072  1
  O  O332  1  0.41800455  0.59386604  0.22946306  1
  O  O333  1  0.42623903  0.59994335  0.74006641  1
  O  O334  1  0.42149503  0.92419324  0.22903208  1
  O  O335  1  0.42870898  0.92495482  0.74537999  1
  O  O336  1  0.76576844  0.26686166  0.22786895  1
  O  O337  1  0.75423370  0.26229211  0.71324919  1
  O  O338  1  0.75757468  0.58333565  0.22793784  1
  O  O339  1  0.75297563  0.59232304  0.73912905  1
  O  O340  1  0.76338030  0.93429386  0.23370957  1
  O  O341  1  0.77112350  0.93223899  0.73884125  1
  O  O342  1  0.07280715  0.10054228  0.23703400  1
  O  O343  1  0.07558510  0.10154315  0.73796106  1
  O  O344  1  0.07963320  0.41784811  0.22160992  1
  O  O345  1  0.05986702  0.42657945  0.72761098  1
  O  O346  1  0.07135092  0.76260144  0.23926875  1
  O  O347  1  0.08680288  0.75523052  0.72758308  1
  O  O348  1  0.40596263  0.10740899  0.22775213  1
  O  O349  1  0.39934839  0.11078642  0.73332285  1
  O  O350  1  0.41048485  0.42648145  0.20689842  1
  O  O351  1  0.40774213  0.41784306  0.73486878  1
  O  O352  1  0.39407832  0.76413426  0.22520971  1
  O  O353  1  0.40125495  0.76438082  0.74004102  1
  O  O354  1  0.73259027  0.11054040  0.23578513  1
  O  O355  1  0.73431084  0.09789354  0.72360045  1
  O  O356  1  0.73186633  0.42811518  0.22457518  1
  O  O357  1  0.74158619  0.41577263  0.72075101  1
  O  O358  1  0.73912739  0.75384808  0.24383401  1
  O  O359  1  0.74016243  0.76131577  0.73603420  1
