# generated using pymatgen
data_BaLaInIrO6
_symmetry_space_group_name_H-M   'P 1'
_cell_length_a   17.50552199
_cell_length_b   17.53862314
_cell_length_c   16.48342359
_cell_angle_alpha   89.96053052
_cell_angle_beta   89.98019246
_cell_angle_gamma   90.04237707
_symmetry_Int_Tables_number   1
_chemical_formula_structural   BaLaInIrO6
_chemical_formula_sum   'Ba36 La36 In36 Ir36 O216'
_cell_volume   5060.78320168
_cell_formula_units_Z   36
loop_
 _symmetry_equiv_pos_site_id
 _symmetry_equiv_pos_as_xyz
  1  'x, y, z'
loop_
 _atom_site_type_symbol
 _atom_site_label
 _atom_site_symmetry_multiplicity
 _atom_site_fract_x
 _atom_site_fract_y
 _atom_site_fract_z
 _atom_site_occupancy
  Ba  Ba0  1  0.16654697  0.34267456  0.62769564  1
  Ba  Ba1  1  0.33278237  0.15474202  0.88040670  1
  Ba  Ba2  1  0.67014620  0.84159904  0.62354411  1
  Ba  Ba3  1  0.66476213  0.49458384  0.87568828  1
  Ba  Ba4  1  0.33780851  0.50980086  0.12595384  1
  Ba  Ba5  1  0.99813768  0.17408643  0.62858623  1
  Ba  Ba6  1  0.49644422  0.34089323  0.12669513  1
  Ba  Ba7  1  -0.00215396  0.48873154  0.37029521  1
  Ba  Ba8  1  0.66668400  0.84358942  0.12398615  1
  Ba  Ba9  1  0.33407735  0.17372538  0.12516617  1
  Ba  Ba10  1  1.00309575  0.50846578  0.62247253  1
  Ba  Ba11  1  0.33725733  0.84226632  0.12375802  1
  Ba  Ba12  1  0.50016123  0.34337491  0.62592981  1
  Ba  Ba13  1  0.16505391  0.67706742  0.12191583  1
  Ba  Ba14  1  0.33840448  0.50873826  0.62477132  1
  Ba  Ba15  1  0.83686111  0.32127766  0.37488180  1
  Ba  Ba16  1  0.50457571  0.66076241  0.87642283  1
  Ba  Ba17  1  -0.00358806  0.16109606  0.87496530  1
  Ba  Ba18  1  0.33453737  0.82632645  0.36985326  1
  Ba  Ba19  1  0.83432329  0.99351432  0.87578067  1
  Ba  Ba20  1  1.00082145  0.84372233  0.12432945  1
  Ba  Ba21  1  0.50089056  0.67864958  0.62515384  1
  Ba  Ba22  1  0.50110506  0.32263601  0.37759725  1
  Ba  Ba23  1  0.66616498  0.82369502  0.87556377  1
  Ba  Ba24  1  0.17017397  0.65835091  0.37207159  1
  Ba  Ba25  1  0.83287899  0.66334175  0.87254945  1
  Ba  Ba26  1  0.16186874  0.00761016  0.62438355  1
  Ba  Ba27  1  0.00039656  0.82228032  0.38190393  1
  Ba  Ba28  1  -0.00319480  0.49426851  0.87411795  1
  Ba  Ba29  1  0.49904380  0.99233831  0.37370854  1
  Ba  Ba30  1  -0.00459782  0.82407756  0.87410270  1
  Ba  Ba31  1  0.83390715  0.00889255  0.62652823  1
  Ba  Ba32  1  0.83000546  0.34603411  0.12359870  1
  Ba  Ba33  1  0.50092917  0.65986208  0.37381629  1
  Ba  Ba34  1  0.99945514  0.84332718  0.62705214  1
  Ba  Ba35  1  0.49518844  0.00847887  0.12591748  1
  La  La36  1  0.49952143  0.31680022  0.87982385  1
  La  La37  1  0.00373972  0.15750778  0.37830503  1
  La  La38  1  0.16015128  0.34610930  0.12297117  1
  La  La39  1  0.66992721  0.51648808  0.12840676  1
  La  La40  1  0.49552681  0.68390794  0.12199554  1
  La  La41  1  0.16918981  0.31417339  0.87362709  1
  La  La42  1  0.83761996  0.32338067  0.87043084  1
  La  La43  1  1.00204372  0.51661729  0.12085321  1
  La  La44  1  0.65903480  0.82002285  0.37479549  1
  La  La45  1  0.83442676  0.67860034  0.12329036  1
  La  La46  1  0.32890762  0.48305062  0.37464923  1
  La  La47  1  0.16086045  0.32969476  0.37735892  1
  La  La48  1  0.34182294  0.17886831  0.62433573  1
  La  La49  1  0.16402600  0.67787565  0.62184172  1
  La  La50  1  0.82883557  0.68257972  0.62295848  1
  La  La51  1  0.32810252  0.15347254  0.36824103  1
  La  La52  1  0.16917251  0.00886667  0.12212280  1
  La  La53  1  0.49592867  0.00601106  0.62586093  1
  La  La54  1  0.50497846  0.98079136  0.87909724  1
  La  La55  1  0.65802504  0.15169296  0.87894719  1
  La  La56  1  0.67089055  0.51631803  0.62614572  1
  La  La57  1  0.16895216  0.65484128  0.87177972  1
  La  La58  1  1.00173017  0.17422685  0.12602931  1
  La  La59  1  0.83509521  0.98661206  0.37743427  1
  La  La60  1  0.33231172  0.48435588  0.87335356  1
  La  La61  1  0.82778153  0.01777511  0.12536217  1
  La  La62  1  0.84137240  0.64792821  0.37606365  1
  La  La63  1  0.83022787  0.35145094  0.62445789  1
  La  La64  1  0.16753912  0.98410228  0.87779627  1
  La  La65  1  0.17082068  0.98446013  0.37235796  1
  La  La66  1  0.33147645  0.82124103  0.87386250  1
  La  La67  1  0.33641776  0.84456038  0.61608103  1
  La  La68  1  0.66281464  0.15198052  0.37388042  1
  La  La69  1  0.67779546  0.18330733  0.62022429  1
  La  La70  1  0.66363217  0.48320214  0.37631414  1
  La  La71  1  0.66751121  0.18107091  0.12704430  1
  In  In72  1  0.66746726  0.33394172  0.75458170  1
  In  In73  1  0.50014603  0.49909429  0.75293065  1
  In  In74  1  -0.00266895  0.33606865  -0.00048171  1
  In  In75  1  0.16746456  0.83137614  0.75114856  1
  In  In76  1  0.16731197  0.49798837  -0.00370904  1
  In  In77  1  -0.00145122  0.00214031  0.00109654  1
  In  In78  1  0.50372156  0.16316936  0.74734292  1
  In  In79  1  0.82914790  0.16951294  -0.00194170  1
  In  In80  1  0.83212701  0.83563478  0.00203471  1
  In  In81  1  -0.00009188  0.00279787  0.49926421  1
  In  In82  1  0.00146452  0.33526631  0.75032231  1
  In  In83  1  0.50320098  0.83720045  0.25054451  1
  In  In84  1  0.49990159  0.16572315  0.25211109  1
  In  In85  1  0.66600212  0.66721580  0.75085655  1
  In  In86  1  0.83405605  0.83666719  0.74914652  1
  In  In87  1  0.16657287  0.49998827  0.49936007  1
  In  In88  1  0.16685558  0.83424258  0.24456040  1
  In  In89  1  0.16882682  0.16723957  0.50244963  1
  In  In90  1  0.33263742  0.33160695  0.00262521  1
  In  In91  1  -0.00217948  0.33203947  0.50071244  1
  In  In92  1  0.33622000  0.66415504  -0.00280575  1
  In  In93  1  0.33243913  0.00230733  0.50008795  1
  In  In94  1  0.66375025  0.00166613  0.74647638  1
  In  In95  1  0.16827740  0.83088049  0.49971474  1
  In  In96  1  0.33535429  0.32741215  0.49838607  1
  In  In97  1  0.33372901  0.33208104  0.75143284  1
  In  In98  1  -0.00094985  0.00228359  0.25100227  1
  In  In99  1  0.33198816  -0.00007055  0.75201485  1
  In  In100  1  0.83246434  0.83253402  0.25361130  1
  In  In101  1  0.66617902  0.33812726  0.00084644  1
  In  In102  1  0.66779280  0.33257793  0.25259766  1
  In  In103  1  0.16748341  0.49978115  0.24641569  1
  In  In104  1  0.33574508  0.66304651  0.49879863  1
  In  In105  1  -0.00138449  0.66704824  0.25094096  1
  In  In106  1  0.50017303  0.50057904  0.25126648  1
  In  In107  1  0.66760021  0.66388666  0.49439636  1
  Ir  Ir108  1  0.49993522  0.83486510  -0.00273988  1
  Ir  Ir109  1  0.16656463  0.16281092  0.00417148  1
  Ir  Ir110  1  0.49550187  0.83424898  0.74721327  1
  Ir  Ir111  1  0.33178353  0.66795324  0.75071134  1
  Ir  Ir112  1  0.66314672  0.00309334  0.00653599  1
  Ir  Ir113  1  0.33854408  0.66611976  0.24797125  1
  Ir  Ir114  1  0.82752917  0.83483798  0.49658575  1
  Ir  Ir115  1  0.82840112  0.16656573  0.49702155  1
  Ir  Ir116  1  0.66848791  0.33392476  0.50189529  1
  Ir  Ir117  1  0.33496270  -0.00237063  -0.00215791  1
  Ir  Ir118  1  0.50448258  0.83726764  0.50202307  1
  Ir  Ir119  1  0.16772780  0.16335021  0.75696909  1
  Ir  Ir120  1  0.16398129  0.17221114  0.24679361  1
  Ir  Ir121  1  0.50031348  0.16268829  -0.00072392  1
  Ir  Ir122  1  0.00075153  0.66373378  0.74640128  1
  Ir  Ir123  1  0.67139277  0.66493722  0.24954861  1
  Ir  Ir124  1  0.83402544  0.16569699  0.25507366  1
  Ir  Ir125  1  0.32837366  0.32986333  0.25069450  1
  Ir  Ir126  1  -0.00255253  0.32941796  0.24501881  1
  Ir  Ir127  1  0.83203148  0.50575240  0.00082411  1
  Ir  Ir128  1  0.50707988  0.16266112  0.50172703  1
  Ir  Ir129  1  0.66666541  0.00186572  0.49549215  1
  Ir  Ir130  1  0.50285853  0.49759144  0.49747637  1
  Ir  Ir131  1  0.16764742  0.83343819  -0.00359457  1
  Ir  Ir132  1  0.83385736  0.50298984  0.74861174  1
  Ir  Ir133  1  0.00316623  0.00567231  0.75193667  1
  Ir  Ir134  1  0.00024420  0.66593999  -0.00356158  1
  Ir  Ir135  1  -0.00515983  0.66510893  0.50416450  1
  Ir  Ir136  1  0.83043255  0.49998783  0.50173695  1
  Ir  Ir137  1  0.66345356  0.66413086  0.00752294  1
  Ir  Ir138  1  0.83252150  0.50030270  0.24615961  1
  Ir  Ir139  1  0.16873486  0.50414442  0.75150218  1
  Ir  Ir140  1  0.50128666  0.50085646  0.00213585  1
  Ir  Ir141  1  0.32936376  0.00417830  0.24778107  1
  Ir  Ir142  1  0.67247488  0.00374536  0.24984339  1
  Ir  Ir143  1  0.82956022  0.17035246  0.74532383  1
  O  O144  1  0.30019521  0.33102185  0.12966671  1
  O  O145  1  0.31649604  0.31793259  0.62529575  1
  O  O146  1  0.32002957  0.66700649  0.12754401  1
  O  O147  1  0.30304409  0.66292859  0.63209797  1
  O  O148  1  0.30414827  0.99768628  0.12188068  1
  O  O149  1  0.31137153  0.98276553  0.62642489  1
  O  O150  1  0.64434461  0.32150305  0.12664457  1
  O  O151  1  0.64882924  0.32319808  0.62254006  1
  O  O152  1  0.63371083  0.65494585  0.13088181  1
  O  O153  1  0.65113916  0.65505095  0.62046228  1
  O  O154  1  0.64336823  1.00070611  0.12975822  1
  O  O155  1  0.63303872  0.99809047  0.61480877  1
  O  O156  1  0.97580582  0.31115640  0.12697931  1
  O  O157  1  0.96772086  0.32977290  0.62709992  1
  O  O158  1  0.97198295  0.65942358  0.11793864  1
  O  O159  1  0.96542529  0.66288159  0.62490374  1
  O  O160  1  0.96507439  1.00858200  0.12876133  1
  O  O161  1  0.98585846  1.00613007  0.63102066  1
  O  O162  1  0.18798676  0.14867172  0.12608710  1
  O  O163  1  0.20151530  0.16018613  0.63685776  1
  O  O164  1  0.19009941  0.48384859  0.12250259  1
  O  O165  1  0.18863860  0.50264601  0.63266986  1
  O  O166  1  0.18787998  0.83401284  0.11473257  1
  O  O167  1  0.19857346  0.82274109  0.62842287  1
  O  O168  1  0.52863625  0.16472318  0.12040646  1
  O  O169  1  0.54208674  0.15271707  0.61902358  1
  O  O170  1  0.53117418  0.49268446  0.12176941  1
  O  O171  1  0.53307498  0.49565744  0.61762941  1
  O  O172  1  0.51612693  0.82935261  0.12059098  1
  O  O173  1  0.52211048  0.84223072  0.62543762  1
  O  O174  1  0.86337543  0.15675188  0.13501209  1
  O  O175  1  0.85066483  0.16419554  0.62029866  1
  O  O176  1  0.86473330  0.50146736  0.12310789  1
  O  O177  1  0.85579185  0.48749526  0.62567297  1
  O  O178  1  0.85052229  0.81738468  0.12741965  1
  O  O179  1  0.85062457  0.82543975  0.61694797  1
  O  O180  1  0.13954752  0.18893105  0.36493011  1
  O  O181  1  0.14291604  0.17621250  0.88157347  1
  O  O182  1  0.14903441  0.49435141  0.37047159  1
  O  O183  1  0.14570067  0.51679001  0.86885088  1
  O  O184  1  0.15231056  0.84471246  0.37188243  1
  O  O185  1  0.14423072  0.84033650  0.87867937  1
  O  O186  1  0.46951208  0.16379654  0.38303595  1
  O  O187  1  0.48237260  0.17120662  0.87968598  1
  O  O188  1  0.46809283  0.50256145  0.37889452  1
  O  O189  1  0.47044160  0.50963755  0.88418047  1
  O  O190  1  0.48843471  0.83367637  0.38110186  1
  O  O191  1  0.46848592  0.83906162  0.87080545  1
  O  O192  1  0.79762623  0.16974364  0.37664013  1
  O  O193  1  0.79657745  0.17727581  0.86526109  1
  O  O194  1  0.80089310  0.50949418  0.37481252  1
  O  O195  1  0.81051256  0.51250404  0.87312096  1
  O  O196  1  0.79375041  0.84592780  0.37800929  1
  O  O197  1  0.81714391  0.83127091  0.87623324  1
  O  O198  1  0.03520074  0.01826748  0.37285633  1
  O  O199  1  0.03041605  0.00674623  0.87265867  1
  O  O200  1  0.02338595  0.33299169  0.36506401  1
  O  O201  1  0.03284878  0.33578025  0.87518442  1
  O  O202  1  0.01396734  0.66237862  0.38447007  1
  O  O203  1  0.03165360  0.66680716  0.87075948  1
  O  O204  1  0.34918311  0.01341064  0.36905753  1
  O  O205  1  0.36715586  0.00036733  0.87934634  1
  O  O206  1  0.35075373  0.33525135  0.36930065  1
  O  O207  1  0.36464573  0.33871919  0.87776264  1
  O  O208  1  0.35391728  0.66997649  0.36716780  1
  O  O209  1  0.35613430  0.68185688  0.86915767  1
  O  O210  1  0.70093098  0.01292160  0.37245971  1
  O  O211  1  0.68288912  0.01197757  0.88571839  1
  O  O212  1  0.69005441  0.34524408  0.38205112  1
  O  O213  1  0.70499369  0.33967732  0.87809327  1
  O  O214  1  0.70333168  0.67530232  0.36872166  1
  O  O215  1  0.67898104  0.66547599  0.88482675  1
  O  O216  1  0.07622875  0.09469606  0.03089672  1
  O  O217  1  0.06630123  0.10439044  0.50872009  1
  O  O218  1  0.06797767  0.42878605  0.02921174  1
  O  O219  1  0.07178569  0.42663019  0.51076649  1
  O  O220  1  0.07231409  0.76277260  0.01524574  1
  O  O221  1  0.06827107  0.75127277  0.52475364  1
  O  O222  1  0.40556333  0.09147790  0.02011481  1
  O  O223  1  0.41552144  0.09292959  0.53098194  1
  O  O224  1  0.40759265  0.43420871  0.01259675  1
  O  O225  1  0.41286854  0.42585094  0.51139663  1
  O  O226  1  0.41020864  0.76243101  0.01086915  1
  O  O227  1  0.40922675  0.76882449  0.52123916  1
  O  O228  1  0.73013360  0.09507507  0.03009802  1
  O  O229  1  0.72930742  0.10219049  0.51705821  1
  O  O230  1  0.73663186  0.44211160  0.02597103  1
  O  O231  1  0.73399527  0.43181714  0.52784788  1
  O  O232  1  0.73669705  0.75116812  0.02148694  1
  O  O233  1  0.74401569  0.75944902  0.51400049  1
  O  O234  1  0.09797713  0.25566839  0.02710032  1
  O  O235  1  0.10219091  0.26748552  0.50653300  1
  O  O236  1  0.08927979  0.59461258  0.01382399  1
  O  O237  1  0.09235206  0.60195043  0.52430405  1
  O  O238  1  0.10632341  0.93300045  0.01604488  1
  O  O239  1  0.09056311  0.92405524  0.51033446  1
  O  O240  1  0.43114673  0.25520321  0.01347736  1
  O  O241  1  0.43510217  0.24810654  0.52565571  1
  O  O242  1  0.43951590  0.59743609  0.02582646  1
  O  O243  1  0.43566992  0.58933421  0.51727315  1
  O  O244  1  0.43386478  0.93148554  0.00893835  1
  O  O245  1  0.43531578  0.92904191  0.52280042  1
  O  O246  1  0.74928697  0.25243850  0.02777610  1
  O  O247  1  0.76366910  0.26478284  0.52665652  1
  O  O248  1  0.76089827  0.59818667  0.03238351  1
  O  O249  1  0.76619915  0.59274734  0.52345557  1
  O  O250  1  0.75884494  0.93834528  0.02746475  1
  O  O251  1  0.76113969  0.93301588  0.51401309  1
  O  O252  1  0.23096671  0.07551576  0.27227384  1
  O  O253  1  0.23204912  0.06955855  0.78179400  1
  O  O254  1  0.23441126  0.39416138  0.27002789  1
  O  O255  1  0.23505546  0.41030044  0.78030675  1
  O  O256  1  0.24906764  0.73871500  0.25987849  1
  O  O257  1  0.23750220  0.73099610  0.77545152  1
  O  O258  1  0.58221168  0.07274616  0.27048697  1
  O  O259  1  0.56641485  0.06431245  0.77851666  1
  O  O260  1  0.57817825  0.41232527  0.27528917  1
  O  O261  1  0.56459501  0.39504526  0.77844260  1
  O  O262  1  0.58354612  0.73929700  0.26751281  1
  O  O263  1  0.56922476  0.74706363  0.76240404  1
  O  O264  1  0.89883999  0.07617380  0.28363527  1
  O  O265  1  0.90414954  0.07977987  0.76709978  1
  O  O266  1  0.90285624  0.40179138  0.26429355  1
  O  O267  1  0.89641778  0.40661698  0.77092260  1
  O  O268  1  0.89651043  0.72989471  0.27465831  1
  O  O269  1  0.91360577  0.73754426  0.75634230  1
  O  O270  1  0.26186251  0.23420600  0.27239993  1
  O  O271  1  0.25211585  0.23940219  0.77693021  1
  O  O272  1  0.27199789  0.57016460  0.26940249  1
  O  O273  1  0.26603730  0.57262671  0.78030881  1
  O  O274  1  0.25710613  0.91863527  0.26552106  1
  O  O275  1  0.26186196  0.90361178  0.78318493  1
  O  O276  1  0.59872047  0.23292959  0.27382214  1
  O  O277  1  0.60421960  0.23012161  0.77484605  1
  O  O278  1  0.60869798  0.57049993  0.27289099  1
  O  O279  1  0.59776965  0.56845569  0.75575246  1
  O  O280  1  0.60682279  0.90724488  0.27330584  1
  O  O281  1  0.58257507  0.90586506  0.77136207  1
  O  O282  1  0.93293906  0.22915090  0.27404191  1
  O  O283  1  0.91584824  0.24366460  0.77125561  1
  O  O284  1  0.91984734  0.57062132  0.26419370  1
  O  O285  1  0.92776973  0.57418198  0.76531694  1
  O  O286  1  0.92301216  0.91012849  0.28010055  1
  O  O287  1  0.92934054  0.91874327  0.76319286  1
  O  O288  1  0.27714268  0.22124328  0.48277345  1
  O  O289  1  0.25236819  0.23699141  0.98377627  1
  O  O290  1  0.26992750  0.56222901  0.47498471  1
  O  O291  1  0.26535255  0.57006502  0.97163673  1
  O  O292  1  0.26726141  0.90241001  0.48578671  1
  O  O293  1  0.26422248  0.90175553  0.97104509  1
  O  O294  1  0.60442726  0.23338097  0.47716902  1
  O  O295  1  0.59084669  0.23318000  0.97490747  1
  O  O296  1  0.59801275  0.56318204  0.47403869  1
  O  O297  1  0.59853001  0.56641734  0.99507180  1
  O  O298  1  0.60269453  0.90432463  0.47368628  1
  O  O299  1  0.59105808  0.90997033  0.97799753  1
  O  O300  1  0.92612801  0.22951712  0.47569386  1
  O  O301  1  0.91420488  0.25266159  0.97337135  1
  O  O302  1  0.92031048  0.57374441  0.47699241  1
  O  O303  1  0.93250829  0.57020166  0.98774195  1
  O  O304  1  0.91461430  0.91027742  0.47861505  1
  O  O305  1  0.92777495  0.90773908  0.98753143  1
  O  O306  1  0.23353461  0.06884298  0.46788068  1
  O  O307  1  0.23294226  0.06167359  0.98108801  1
  O  O308  1  0.23955210  0.39896692  0.47497853  1
  O  O309  1  0.23457664  0.39919621  0.96879866  1
  O  O310  1  0.23552262  0.72976626  0.49297201  1
  O  O311  1  0.23575037  0.74045744  0.97176579  1
  O  O312  1  0.57942301  0.07533954  0.47032611  1
  O  O313  1  0.56833124  0.06987660  0.97559846  1
  O  O314  1  0.57736048  0.40801639  0.47562693  1
  O  O315  1  0.56171141  0.40260826  0.97494945  1
  O  O316  1  0.57818264  0.74827205  0.48115666  1
  O  O317  1  0.56705971  0.73406208  0.99580570  1
  O  O318  1  0.89469347  0.07356813  0.47299781  1
  O  O319  1  0.90373755  0.07876640  0.98667129  1
  O  O320  1  0.89640861  0.40642391  0.48843386  1
  O  O321  1  0.89483617  0.41099622  0.97554522  1
  O  O322  1  0.89390588  0.73319128  0.48076083  1
  O  O323  1  0.90985324  0.73333550  0.98862896  1
  O  O324  1  0.09857330  0.26757194  0.22158343  1
  O  O325  1  0.09780404  0.25456998  0.73855364  1
  O  O326  1  0.08330192  0.58427993  0.22251164  1
  O  O327  1  0.10315250  0.60024836  0.72955183  1
  O  O328  1  0.10102300  0.93951332  0.22507404  1
  O  O329  1  0.09165600  0.93154363  0.74127294  1
  O  O330  1  0.41996819  0.26033399  0.23605116  1
  O  O331  1  0.42586055  0.25290636  0.73282712  1
  O  O332  1  0.43469639  0.60038168  0.22635359  1
  O  O333  1  0.42291854  0.60078098  0.73425366  1
  O  O334  1  0.41868723  0.92867946  0.23755853  1
  O  O335  1  0.43010813  0.92550780  0.72755569  1
  O  O336  1  0.76286933  0.25245361  0.23149859  1
  O  O337  1  0.76743124  0.26461939  0.72184606  1
  O  O338  1  0.76547422  0.59674738  0.22115776  1
  O  O339  1  0.76773921  0.59222561  0.72005153  1
  O  O340  1  0.76755050  0.94099762  0.23066453  1
  O  O341  1  0.75429987  0.92731122  0.73593264  1
  O  O342  1  0.06576939  0.11242908  0.23215958  1
  O  O343  1  0.07647431  0.09494215  0.73635203  1
  O  O344  1  0.06395456  0.42005262  0.21610565  1
  O  O345  1  0.07957942  0.43255199  0.73435456  1
  O  O346  1  0.07320802  0.75904544  0.23617644  1
  O  O347  1  0.07583542  0.74888594  0.72604584  1
  O  O348  1  0.40302163  0.09214350  0.23734120  1
  O  O349  1  0.40716719  0.09086110  0.71572415  1
  O  O350  1  0.39775574  0.42294946  0.23964859  1
  O  O351  1  0.39995582  0.43402250  0.74427908  1
  O  O352  1  0.41449948  0.75366531  0.23030629  1
  O  O353  1  0.39295269  0.76879842  0.72669943  1
  O  O354  1  0.73799949  0.10028710  0.22417096  1
  O  O355  1  0.73380530  0.10491667  0.72709793  1
  O  O356  1  0.73756846  0.43537268  0.22923715  1
  O  O357  1  0.74032655  0.43493385  0.72420301  1
  O  O358  1  0.73609524  0.75512816  0.22962539  1
  O  O359  1  0.74868638  0.75101927  0.72947188  1
