# generated using pymatgen
data_BaLaInIrO6
_symmetry_space_group_name_H-M   'P 1'
_cell_length_a   17.53342206
_cell_length_b   17.57215988
_cell_length_c   16.51177255
_cell_angle_alpha   90.02947712
_cell_angle_beta   89.99890139
_cell_angle_gamma   89.95790420
_symmetry_Int_Tables_number   1
_chemical_formula_structural   BaLaInIrO6
_chemical_formula_sum   'Ba36 La36 In36 Ir36 O216'
_cell_volume   5087.27665529
_cell_formula_units_Z   36
loop_
 _symmetry_equiv_pos_site_id
 _symmetry_equiv_pos_as_xyz
  1  'x, y, z'
loop_
 _atom_site_type_symbol
 _atom_site_label
 _atom_site_symmetry_multiplicity
 _atom_site_fract_x
 _atom_site_fract_y
 _atom_site_fract_z
 _atom_site_occupancy
  Ba  Ba0  1  0.99778304  0.17592327  0.12612353  1
  Ba  Ba1  1  0.33225479  0.83951207  0.62317276  1
  Ba  Ba2  1  0.83111416  0.34144959  0.12458683  1
  Ba  Ba3  1  0.67209876  0.84103837  0.12551419  1
  Ba  Ba4  1  0.50188962  0.67569241  0.12344629  1
  Ba  Ba5  1  0.33362050  0.49100975  0.87616714  1
  Ba  Ba6  1  0.33290921  0.17362399  0.62505963  1
  Ba  Ba7  1  0.50130298  0.67705154  0.62421867  1
  Ba  Ba8  1  0.83105618  0.67191360  0.12300097  1
  Ba  Ba9  1  0.82974371  0.00759451  0.12650045  1
  Ba  Ba10  1  0.16595696  0.99120993  0.87739618  1
  Ba  Ba11  1  0.16811585  0.99043078  0.37646674  1
  Ba  Ba12  1  -0.00302496  0.15946175  0.87358470  1
  Ba  Ba13  1  0.49588997  0.00857934  0.62625496  1
  Ba  Ba14  1  0.99977998  0.84074124  0.12545109  1
  Ba  Ba15  1  0.00041035  0.82399774  0.87447729  1
  Ba  Ba16  1  0.66884729  0.18086281  0.62555042  1
  Ba  Ba17  1  0.66527367  0.49589972  0.87281224  1
  Ba  Ba18  1  0.16609763  0.66392569  0.37450426  1
  Ba  Ba19  1  1.00284579  0.50729642  0.12594355  1
  Ba  Ba20  1  1.00038139  0.84237282  0.62720749  1
  Ba  Ba21  1  0.16537273  0.65744675  0.87154557  1
  Ba  Ba22  1  0.50285730  0.00590507  0.12495856  1
  Ba  Ba23  1  0.67056610  0.16211612  0.87469990  1
  Ba  Ba24  1  0.66646120  0.15433135  0.37786823  1
  Ba  Ba25  1  0.33448334  0.51090197  0.12720922  1
  Ba  Ba26  1  0.33406745  0.15471549  0.37609337  1
  Ba  Ba27  1  0.16286201  0.34166461  0.62112971  1
  Ba  Ba28  1  0.83783380  0.65777580  0.87503749  1
  Ba  Ba29  1  0.83565167  0.99054466  0.37784142  1
  Ba  Ba30  1  1.00340286  0.18086329  0.62367750  1
  Ba  Ba31  1  1.00341357  0.50765860  0.62009831  1
  Ba  Ba32  1  0.16029837  0.34169773  0.12660338  1
  Ba  Ba33  1  -0.00419177  0.49282989  0.87282363  1
  Ba  Ba34  1  0.67206077  0.50934809  0.12454052  1
  Ba  Ba35  1  0.83249332  0.34952657  0.61857840  1
  La  La36  1  0.83942697  0.65013268  0.37535929  1
  La  La37  1  0.33518817  0.84224686  0.12473302  1
  La  La38  1  0.66492040  0.48464822  0.37481846  1
  La  La39  1  -0.00103395  0.82160839  0.37679527  1
  La  La40  1  0.84031767  0.66872274  0.62549130  1
  La  La41  1  0.67005098  0.51499431  0.62124588  1
  La  La42  1  0.50402378  0.31472543  0.37413907  1
  La  La43  1  0.67353706  0.85117020  0.62562335  1
  La  La44  1  -0.00575650  0.47676972  0.37476346  1
  La  La45  1  0.66584117  0.81947998  0.37574865  1
  La  La46  1  0.33148649  0.17984861  0.12380953  1
  La  La47  1  0.50875025  0.32140235  0.87096509  1
  La  La48  1  0.49950024  0.98417829  0.87161381  1
  La  La49  1  0.49550977  0.34660243  0.62286882  1
  La  La50  1  0.84577583  0.98648229  0.87558014  1
  La  La51  1  0.33196012  0.82678175  0.37360688  1
  La  La52  1  0.33054290  0.48504532  0.37604025  1
  La  La53  1  0.16016130  0.67947476  0.11995294  1
  La  La54  1  0.16124768  0.32460288  0.87237229  1
  La  La55  1  0.82915384  0.01988513  0.62725752  1
  La  La56  1  0.49287939  0.34431685  0.12780776  1
  La  La57  1  0.68019936  0.18107913  0.13146259  1
  La  La58  1  0.33404128  0.15345548  0.87733300  1
  La  La59  1  0.49967713  0.65279131  0.37445938  1
  La  La60  1  0.15760191  0.01435178  0.12753947  1
  La  La61  1  0.16295062  0.68118698  0.62508835  1
  La  La62  1  0.83841717  0.32662268  0.86602953  1
  La  La63  1  0.50416622  0.98138828  0.37925448  1
  La  La64  1  -0.00839531  0.14615365  0.37685852  1
  La  La65  1  0.16246283  0.01521054  0.62716391  1
  La  La66  1  0.50036483  0.65593723  0.87765457  1
  La  La67  1  0.32726273  0.81377637  0.87167841  1
  La  La68  1  0.66681582  0.81980944  0.87890657  1
  La  La69  1  0.33314540  0.50991494  0.62630897  1
  La  La70  1  0.16478145  0.32058604  0.37426267  1
  La  La71  1  0.83741636  0.31214106  0.37554106  1
  In  In72  1  0.33546778  0.66666808  0.49898641  1
  In  In73  1  0.49940651  0.83035056  0.75042882  1
  In  In74  1  0.33630480  0.33302297  0.75181336  1
  In  In75  1  0.16702458  0.16676240  0.75118251  1
  In  In76  1  0.16631140  0.50269467  0.25374538  1
  In  In77  1  0.50232622  0.16470551  0.00284229  1
  In  In78  1  0.66910430  0.00063169  0.75474750  1
  In  In79  1  0.66747863  0.00157733  -0.00414030  1
  In  In80  1  0.00001546  0.66600241  -0.00016868  1
  In  In81  1  0.33437109  0.33076296  -0.00056687  1
  In  In82  1  0.33250440  0.33268967  0.49898844  1
  In  In83  1  0.33225423  0.33183117  0.25321890  1
  In  In84  1  0.66509768  0.33486350  -0.00124263  1
  In  In85  1  0.16539408  0.83478733  0.75111026  1
  In  In86  1  0.16654841  0.16688461  0.00118078  1
  In  In87  1  0.66610907  0.33499567  0.50107729  1
  In  In88  1  0.49707573  0.83345967  0.00064989  1
  In  In89  1  0.33506333  0.66870741  0.25018623  1
  In  In90  1  0.16782310  0.49815661  -0.00076329  1
  In  In91  1  0.16505323  0.16401986  0.49546439  1
  In  In92  1  0.66639902  0.00036560  0.50221765  1
  In  In93  1  0.83198279  0.83308738  0.74652833  1
  In  In94  1  0.83373966  0.83155065  0.50082356  1
  In  In95  1  0.49886068  0.49892681  -0.00036365  1
  In  In96  1  0.83291829  0.49754938  -0.00180247  1
  In  In97  1  0.33166397  -0.00311256  0.75062682  1
  In  In98  1  -0.00021909  0.66527094  0.25149944  1
  In  In99  1  0.16505524  0.50284579  0.49574450  1
  In  In100  1  0.66876352  0.66586826  0.25315846  1
  In  In101  1  0.49809425  0.16700770  0.75068937  1
  In  In102  1  0.50448683  0.16218804  0.24598258  1
  In  In103  1  0.83271338  0.16607286  -0.00018102  1
  In  In104  1  0.83323670  0.83378338  0.00143913  1
  In  In105  1  0.33230621  0.00169582  0.24785428  1
  In  In106  1  0.50237019  0.49991788  0.25231548  1
  In  In107  1  0.66447205  0.66881163  0.74670514  1
  Ir  Ir108  1  0.83215934  0.50557124  0.49662926  1
  Ir  Ir109  1  0.66461545  0.66730001  -0.00283277  1
  Ir  Ir110  1  0.00177773  -0.00122089  0.00133065  1
  Ir  Ir111  1  0.17299381  0.83535101  0.00383519  1
  Ir  Ir112  1  0.00188947  -0.00301719  0.25087498  1
  Ir  Ir113  1  -0.00147315  0.33310897  -0.00215007  1
  Ir  Ir114  1  0.00075005  0.66755307  0.49849749  1
  Ir  Ir115  1  0.50154307  0.50064216  0.74198707  1
  Ir  Ir116  1  0.33191427  0.65968531  0.74793994  1
  Ir  Ir117  1  0.66914292  0.33303033  0.25661593  1
  Ir  Ir118  1  0.66725233  0.66829463  0.49679774  1
  Ir  Ir119  1  0.33581776  -0.00480605  0.49764119  1
  Ir  Ir120  1  -0.00402873  0.00212933  0.74779993  1
  Ir  Ir121  1  0.16508654  0.83498306  0.49781092  1
  Ir  Ir122  1  0.49896848  0.16458934  0.49876838  1
  Ir  Ir123  1  0.00080983  -0.00327712  0.50166977  1
  Ir  Ir124  1  0.50267218  0.83057382  0.49629686  1
  Ir  Ir125  1  0.16016967  0.16511428  0.25206618  1
  Ir  Ir126  1  0.00083692  0.66207173  0.74356503  1
  Ir  Ir127  1  0.16832848  0.83598200  0.25164440  1
  Ir  Ir128  1  0.66879119  0.33968256  0.74700760  1
  Ir  Ir129  1  0.33086290  0.66965171  -0.00001277  1
  Ir  Ir130  1  0.16723870  0.49809245  0.74772073  1
  Ir  Ir131  1  0.83240813  0.49571464  0.25811692  1
  Ir  Ir132  1  0.00006837  0.33833235  0.74755805  1
  Ir  Ir133  1  0.50164973  0.50105041  0.50017684  1
  Ir  Ir134  1  0.83434027  0.17332084  0.74625285  1
  Ir  Ir135  1  -0.00357502  0.32921298  0.25247449  1
  Ir  Ir136  1  0.32983878  -0.00232016  0.00490137  1
  Ir  Ir137  1  0.83315907  0.50169559  0.74114706  1
  Ir  Ir138  1  0.66611708  -0.00474379  0.25526882  1
  Ir  Ir139  1  0.49942368  0.83478776  0.25278371  1
  Ir  Ir140  1  0.83119242  0.83455304  0.25718413  1
  Ir  Ir141  1  0.83386168  0.16384729  0.25549573  1
  Ir  Ir142  1  -0.00364602  0.33357618  0.49665753  1
  Ir  Ir143  1  0.83747543  0.16709821  0.50137788  1
  O  O144  1  0.30710704  0.31662481  0.12958783  1
  O  O145  1  0.31482708  0.33745239  0.62442409  1
  O  O146  1  0.30028995  0.67094904  0.12038277  1
  O  O147  1  0.30165805  0.65300862  0.62697339  1
  O  O148  1  0.29694630  0.98016802  0.12320787  1
  O  O149  1  0.30396280  0.99228316  0.61636552  1
  O  O150  1  0.63611724  0.32681010  0.13656973  1
  O  O151  1  0.63709450  0.34014516  0.62709265  1
  O  O152  1  0.65292915  0.66851280  0.12198920  1
  O  O153  1  0.64920198  0.65364850  0.61551862  1
  O  O154  1  0.65099627  0.99449678  0.13674249  1
  O  O155  1  0.64343703  0.98906973  0.62671042  1
  O  O156  1  0.97805268  0.33172617  0.12360101  1
  O  O157  1  0.97813943  0.33756322  0.62221111  1
  O  O158  1  0.98098019  0.67211039  0.12856015  1
  O  O159  1  0.97442634  0.66299168  0.62009771  1
  O  O160  1  0.97989882  0.99567245  0.12636419  1
  O  O161  1  0.96700729  0.99654179  0.62435527  1
  O  O162  1  0.18955206  0.16252647  0.13166634  1
  O  O163  1  0.17824451  0.15944796  0.62244801  1
  O  O164  1  0.18471107  0.49268469  0.12707797  1
  O  O165  1  0.19357937  0.49484246  0.62625470  1
  O  O166  1  0.20000695  0.82455190  0.12921379  1
  O  O167  1  0.18172533  0.82262862  0.61984278  1
  O  O168  1  0.54782534  0.15716272  0.12629022  1
  O  O169  1  0.51823016  0.16115430  0.61713521  1
  O  O170  1  0.52511210  0.48921199  0.12657042  1
  O  O171  1  0.53544060  0.48606846  0.62005259  1
  O  O172  1  0.52105677  0.83368298  0.13218804  1
  O  O173  1  0.53539098  0.83053532  0.61700014  1
  O  O174  1  0.84821457  0.16523154  0.13606802  1
  O  O175  1  0.85765664  0.15989943  0.62292887  1
  O  O176  1  0.85064864  0.49672090  0.13846064  1
  O  O177  1  0.85348474  0.51101660  0.61753870  1
  O  O178  1  0.84772873  0.82973616  0.13817404  1
  O  O179  1  0.85055348  0.80543922  0.62287830  1
  O  O180  1  0.12811853  0.16597643  0.37011205  1
  O  O181  1  0.14746584  0.17627362  0.87619324  1
  O  O182  1  0.12330136  0.51375237  0.37526691  1
  O  O183  1  0.14688857  0.50313342  0.86601122  1
  O  O184  1  0.13523742  0.83962762  0.37358764  1
  O  O185  1  0.14993239  0.83410779  0.88321259  1
  O  O186  1  0.48298916  0.17455752  0.37857595  1
  O  O187  1  0.46385655  0.18530786  0.87762155  1
  O  O188  1  0.46884639  0.51267436  0.38317554  1
  O  O189  1  0.48250375  0.51862956  0.86246360  1
  O  O190  1  0.46918589  0.84020264  0.37449531  1
  O  O191  1  0.46029427  0.84052768  0.87744650  1
  O  O192  1  0.81589805  0.17188591  0.37835106  1
  O  O193  1  0.82081297  0.18572417  0.86723723  1
  O  O194  1  0.80201320  0.50817659  0.37877136  1
  O  O195  1  0.81739757  0.49658778  0.86014856  1
  O  O196  1  0.80391581  0.83732178  0.37561575  1
  O  O197  1  0.80518015  0.84512573  0.87143879  1
  O  O198  1  0.02217126  0.00826607  0.37582507  1
  O  O199  1  0.01877256  0.00244509  0.87336637  1
  O  O200  1  0.02451762  0.33572235  0.37434146  1
  O  O201  1  0.02632403  0.33628818  0.87349403  1
  O  O202  1  0.01700875  0.68192982  0.37900145  1
  O  O203  1  0.01547774  0.66233625  0.86385636  1
  O  O204  1  0.36427762  -0.00359473  0.37734337  1
  O  O205  1  0.36008152  0.01320998  0.88621872  1
  O  O206  1  0.37176351  0.34421938  0.37783299  1
  O  O207  1  0.37408221  0.33832969  0.87492420  1
  O  O208  1  0.36603608  0.68941410  0.37613201  1
  O  O209  1  0.36240955  0.67293622  0.87451173  1
  O  O210  1  0.68532288  -0.00631757  0.37432618  1
  O  O211  1  0.71408909  0.00891530  0.87310913  1
  O  O212  1  0.70138773  0.34209753  0.37584648  1
  O  O213  1  0.70160337  0.34023671  0.86344743  1
  O  O214  1  0.70041789  0.67949913  0.38073185  1
  O  O215  1  0.68334178  0.66976144  0.87608498  1
  O  O216  1  0.07624043  0.08471661  0.02307511  1
  O  O217  1  0.07201978  0.08490901  0.51866833  1
  O  O218  1  0.06580571  0.42310564  0.00962052  1
  O  O219  1  0.06462766  0.42544523  0.50541852  1
  O  O220  1  0.08739089  0.76141394  0.02283392  1
  O  O221  1  0.06770612  0.76574330  0.51450767  1
  O  O222  1  0.39163624  0.09347748  0.02836216  1
  O  O223  1  0.40443707  0.09162271  0.51646474  1
  O  O224  1  0.40973530  0.42185177  0.02697819  1
  O  O225  1  0.40912586  0.43613174  0.52653383  1
  O  O226  1  0.39673554  0.76216599  0.02237527  1
  O  O227  1  0.41255640  0.76342227  0.51694592  1
  O  O228  1  0.73258059  0.10066288  0.02710652  1
  O  O229  1  0.74894107  0.09325501  0.52059119  1
  O  O230  1  0.74061193  0.42626843  0.01468515  1
  O  O231  1  0.73251753  0.44332102  0.51498566  1
  O  O232  1  0.73375467  0.75658093  0.00490392  1
  O  O233  1  0.72139640  0.76783722  0.51721134  1
  O  O234  1  0.09104792  0.26491695  0.00970488  1
  O  O235  1  0.08704333  0.26453708  0.50648963  1
  O  O236  1  0.09984394  0.59862569  0.01937859  1
  O  O237  1  0.09859539  0.60732217  0.52432393  1
  O  O238  1  0.10221725  0.92901740  0.02748286  1
  O  O239  1  0.09700807  0.93053101  0.52438092  1
  O  O240  1  0.42805129  0.25404740  0.04495399  1
  O  O241  1  0.43606517  0.26209796  0.51729822  1
  O  O242  1  0.42202645  0.60042908  0.01145274  1
  O  O243  1  0.43486765  0.59168708  0.51889743  1
  O  O244  1  0.41792683  0.92846589  0.02306104  1
  O  O245  1  0.43520369  0.92688942  0.51078348  1
  O  O246  1  0.75314455  0.25497933  0.02140986  1
  O  O247  1  0.76548973  0.25903073  0.50981191  1
  O  O248  1  0.75172686  0.59415172  0.00992490  1
  O  O249  1  0.76874988  0.60623454  0.51723831  1
  O  O250  1  0.75952547  0.92549154  0.01576852  1
  O  O251  1  0.76433318  0.92810785  0.52983186  1
  O  O252  1  0.23083067  0.07530813  0.26193772  1
  O  O253  1  0.22955053  0.06193951  0.75288837  1
  O  O254  1  0.23769699  0.40552078  0.28657820  1
  O  O255  1  0.23037017  0.40359590  0.77202727  1
  O  O256  1  0.24157428  0.75022231  0.27306068  1
  O  O257  1  0.24456995  0.73365817  0.76353444  1
  O  O258  1  0.57044914  0.05870482  0.27816337  1
  O  O259  1  0.56749923  0.06910177  0.77731064  1
  O  O260  1  0.57888715  0.40179673  0.28580145  1
  O  O261  1  0.56945782  0.40531266  0.76833593  1
  O  O262  1  0.56719422  0.74190050  0.27940025  1
  O  O263  1  0.56373851  0.73176867  0.77894216  1
  O  O264  1  0.91201360  0.07563052  0.27738846  1
  O  O265  1  0.89799389  0.07045331  0.76728795  1
  O  O266  1  0.89979774  0.39667934  0.27925513  1
  O  O267  1  0.90040642  0.40499317  0.76291936  1
  O  O268  1  0.89980768  0.74298029  0.28224708  1
  O  O269  1  0.90940470  0.73243427  0.75807485  1
  O  O270  1  0.24574895  0.23846912  0.27836200  1
  O  O271  1  0.26720528  0.23512259  0.77808497  1
  O  O272  1  0.27049586  0.56897252  0.28109809  1
  O  O273  1  0.26499115  0.56198475  0.75871064  1
  O  O274  1  0.26290971  0.90134204  0.27123135  1
  O  O275  1  0.26638605  0.89571197  0.77457022  1
  O  O276  1  0.59993534  0.24451914  0.27536943  1
  O  O277  1  0.59970906  0.25014476  0.76812601  1
  O  O278  1  0.59794865  0.57250807  0.28599038  1
  O  O279  1  0.59317429  0.56867551  0.75184231  1
  O  O280  1  0.59641132  0.90064729  0.28106524  1
  O  O281  1  0.59938020  0.89936150  0.78155934  1
  O  O282  1  0.92840976  0.23372234  0.27995781  1
  O  O283  1  0.92638207  0.25057224  0.76845452  1
  O  O284  1  0.92574555  0.56384243  0.28209001  1
  O  O285  1  0.92660165  0.57094152  0.75765608  1
  O  O286  1  0.93296628  0.90073028  0.27706489  1
  O  O287  1  0.92579798  0.91355191  0.76873258  1
  O  O288  1  0.25044455  0.24504601  0.47128811  1
  O  O289  1  0.27207279  0.22597168  0.98415633  1
  O  O290  1  0.27159318  0.56567769  0.47767389  1
  O  O291  1  0.26367824  0.58022699  0.98264574  1
  O  O292  1  0.26674509  0.89990037  0.47499194  1
  O  O293  1  0.26943450  0.89921093  0.97849948  1
  O  O294  1  0.58715564  0.23995572  0.48139757  1
  O  O295  1  0.58615226  0.24795739  0.97043065  1
  O  O296  1  0.60213940  0.56696364  0.47523836  1
  O  O297  1  0.58739868  0.58441588  0.98183563  1
  O  O298  1  0.59408473  0.89772492  0.47303501  1
  O  O299  1  0.59141582  0.90480375  0.96702948  1
  O  O300  1  0.92852386  0.23879511  0.47205307  1
  O  O301  1  0.92736000  0.24471426  0.98525264  1
  O  O302  1  0.93209980  0.57057859  0.47136999  1
  O  O303  1  0.92287931  0.57270814  0.98920852  1
  O  O304  1  0.93678248  0.90095766  0.47841332  1
  O  O305  1  0.92862588  0.91404309  0.98123467  1
  O  O306  1  0.24572958  0.06611067  0.48563787  1
  O  O307  1  0.23992945  0.06414829  0.99252870  1
  O  O308  1  0.23701409  0.40735491  0.46623077  1
  O  O309  1  0.23252592  0.39728736  0.97168902  1
  O  O310  1  0.23846529  0.74635847  0.48417230  1
  O  O311  1  0.24236360  0.74302285  0.97716123  1
  O  O312  1  0.56446840  0.06893468  0.47655333  1
  O  O313  1  0.56223789  0.06287103  0.96974516  1
  O  O314  1  0.56644133  0.40781309  0.47177120  1
  O  O315  1  0.56942297  0.40564275  0.96923333  1
  O  O316  1  0.57032193  0.73324161  0.46876979  1
  O  O317  1  0.57259379  0.73796385  0.97374497  1
  O  O318  1  0.91106722  0.07415346  0.48161652  1
  O  O319  1  0.90706771  0.06767581  0.97935357  1
  O  O320  1  0.89774096  0.40596566  0.47000778  1
  O  O321  1  0.90437440  0.39694125  0.97426867  1
  O  O322  1  0.90146045  0.72824115  0.47827332  1
  O  O323  1  0.91197201  0.74672757  0.98320374  1
  O  O324  1  0.09204901  0.26157177  0.23950340  1
  O  O325  1  0.09245742  0.26904253  0.73985364  1
  O  O326  1  0.10215096  0.60456300  0.22465863  1
  O  O327  1  0.10138212  0.59544887  0.72125392  1
  O  O328  1  0.09853265  0.92996240  0.22624602  1
  O  O329  1  0.09181500  0.93442170  0.72666456  1
  O  O330  1  0.43704128  0.26352339  0.23357008  1
  O  O331  1  0.44154062  0.27230916  0.72373660  1
  O  O332  1  0.43743389  0.60386896  0.24361377  1
  O  O333  1  0.42264647  0.58600154  0.71675874  1
  O  O334  1  0.43149797  0.92552350  0.23757266  1
  O  O335  1  0.43083274  0.92851554  0.73933620  1
  O  O336  1  0.76127653  0.25859247  0.23585371  1
  O  O337  1  0.76557626  0.27069643  0.72789800  1
  O  O338  1  0.76916715  0.59196097  0.24629733  1
  O  O339  1  0.76508447  0.59557347  0.72309452  1
  O  O340  1  0.76243150  0.92802786  0.23812607  1
  O  O341  1  0.76634884  0.93207203  0.71441782  1
  O  O342  1  0.07320026  0.08856535  0.22559946  1
  O  O343  1  0.06730950  0.08875028  0.72949690  1
  O  O344  1  0.06184599  0.42291340  0.24425312  1
  O  O345  1  0.07208174  0.43107579  0.73175465  1
  O  O346  1  0.07917514  0.76711269  0.23884494  1
  O  O347  1  0.07647637  0.74889307  0.72968215  1
  O  O348  1  0.39951961  0.09932379  0.22283828  1
  O  O349  1  0.39627370  0.09968496  0.74586277  1
  O  O350  1  0.41057726  0.42458458  0.23272916  1
  O  O351  1  0.41106205  0.43365388  0.71973987  1
  O  O352  1  0.40341612  0.77366473  0.22864307  1
  O  O353  1  0.39982644  0.75087788  0.73535317  1
  O  O354  1  0.73403071  0.09498790  0.23451452  1
  O  O355  1  0.74807554  0.10041496  0.72626876  1
  O  O356  1  0.73515235  0.42970844  0.24233966  1
  O  O357  1  0.73600732  0.43788510  0.71967363  1
  O  O358  1  0.73788063  0.76783469  0.24592220  1
  O  O359  1  0.72337511  0.77231523  0.73391499  1
