# generated using pymatgen
data_BaLaInIrO6
_symmetry_space_group_name_H-M   'P 1'
_cell_length_a   17.52631308
_cell_length_b   17.53933799
_cell_length_c   16.48128241
_cell_angle_alpha   90.01344759
_cell_angle_beta   89.98759061
_cell_angle_gamma   89.98212295
_symmetry_Int_Tables_number   1
_chemical_formula_structural   BaLaInIrO6
_chemical_formula_sum   'Ba36 La36 In36 Ir36 O216'
_cell_volume   5066.34453533
_cell_formula_units_Z   36
loop_
 _symmetry_equiv_pos_site_id
 _symmetry_equiv_pos_as_xyz
  1  'x, y, z'
loop_
 _atom_site_type_symbol
 _atom_site_label
 _atom_site_symmetry_multiplicity
 _atom_site_fract_x
 _atom_site_fract_y
 _atom_site_fract_z
 _atom_site_occupancy
  Ba  Ba0  1  0.33450843  0.17476060  0.12277986  1
  Ba  Ba1  1  0.33438225  0.17307235  0.62268770  1
  Ba  Ba2  1  0.32992662  0.49466660  0.37291081  1
  Ba  Ba3  1  0.66955166  0.83893060  0.62807867  1
  Ba  Ba4  1  0.49368621  0.67695656  0.12398854  1
  Ba  Ba5  1  -0.00126831  0.15646422  0.87432923  1
  Ba  Ba6  1  0.66449741  0.15736610  0.87556942  1
  Ba  Ba7  1  1.00436223  0.83973668  0.63073606  1
  Ba  Ba8  1  0.33644095  0.84298835  0.62904276  1
  Ba  Ba9  1  -0.00268774  0.15008805  0.37446513  1
  Ba  Ba10  1  0.50127074  0.99413971  0.37785818  1
  Ba  Ba11  1  0.66854743  0.83086909  0.37104231  1
  Ba  Ba12  1  0.16704545  0.32228230  0.87437405  1
  Ba  Ba13  1  0.16678897  0.01058853  0.62559018  1
  Ba  Ba14  1  0.16597653  0.65943709  0.37622662  1
  Ba  Ba15  1  0.50105106  0.98745026  0.88001732  1
  Ba  Ba16  1  0.32970522  0.15173371  0.87311363  1
  Ba  Ba17  1  1.00522213  0.17400184  0.62303043  1
  Ba  Ba18  1  0.49773505  0.34139349  0.62617852  1
  Ba  Ba19  1  0.66795364  0.82572750  0.87679099  1
  Ba  Ba20  1  0.17099375  0.99185299  0.37313685  1
  Ba  Ba21  1  0.83398825  0.66049747  0.86912964  1
  Ba  Ba22  1  0.50368680  0.67476695  0.62711459  1
  Ba  Ba23  1  0.66504570  0.49362885  0.87709314  1
  Ba  Ba24  1  0.66351629  0.16057018  0.37431855  1
  Ba  Ba25  1  0.49412462  0.01006061  0.12701294  1
  Ba  Ba26  1  0.66785975  0.50754430  0.62413715  1
  Ba  Ba27  1  0.66608624  0.17225600  0.62597297  1
  Ba  Ba28  1  0.83418400  0.00419445  0.12508257  1
  Ba  Ba29  1  0.66451926  0.49486293  0.37347182  1
  Ba  Ba30  1  1.00530886  0.17596456  0.12614960  1
  Ba  Ba31  1  0.83357751  0.00751871  0.62670582  1
  Ba  Ba32  1  0.83112538  0.67545230  0.12147910  1
  Ba  Ba33  1  0.66849605  0.17238774  0.12505575  1
  Ba  Ba34  1  0.83171060  0.32070385  0.37671435  1
  Ba  Ba35  1  0.16645810  0.01223825  0.12370444  1
  La  La36  1  0.50660330  0.31847931  0.37384916  1
  La  La37  1  0.50581484  0.65548176  0.87484315  1
  La  La38  1  0.32756540  0.82101425  0.37136378  1
  La  La39  1  0.82420939  0.68246370  0.62016191  1
  La  La40  1  0.16411760  0.34144964  0.62354824  1
  La  La41  1  0.16501990  0.68215723  0.62587196  1
  La  La42  1  0.00142496  0.82234352  0.88023101  1
  La  La43  1  0.83744019  0.31856984  0.87360155  1
  La  La44  1  0.33730509  0.51529906  0.62692595  1
  La  La45  1  0.16155645  0.68503669  0.12777886  1
  La  La46  1  0.33290814  0.51661024  0.12218069  1
  La  La47  1  0.82727661  0.34384243  0.12413185  1
  La  La48  1  -0.00782751  0.47957786  0.37294314  1
  La  La49  1  0.50257333  0.31640586  0.87599265  1
  La  La50  1  0.17364501  0.65257434  0.87774960  1
  La  La51  1  0.82516315  0.99352675  0.86628332  1
  La  La52  1  0.33214181  0.81887138  0.87726157  1
  La  La53  1  0.66386744  0.84991981  0.12143791  1
  La  La54  1  -0.00666523  0.48508281  0.87349228  1
  La  La55  1  0.33122101  0.48815588  0.87605318  1
  La  La56  1  1.00419180  0.51631784  0.62696339  1
  La  La57  1  0.33854611  0.84959718  0.12473497  1
  La  La58  1  0.50094611  0.65703523  0.37766801  1
  La  La59  1  0.66630278  0.51528368  0.12291562  1
  La  La60  1  0.49567887  0.34861634  0.12185790  1
  La  La61  1  0.49223837  0.01341338  0.63001924  1
  La  La62  1  0.00475580  0.83360180  0.37454192  1
  La  La63  1  0.83184858  0.65395417  0.37913986  1
  La  La64  1  1.00333960  0.51915370  0.12376351  1
  La  La65  1  0.33059918  0.15268180  0.37400392  1
  La  La66  1  0.82218855  1.00314461  0.38026893  1
  La  La67  1  0.17725336  0.98359602  0.87611871  1
  La  La68  1  0.82630673  0.34140159  0.62603049  1
  La  La69  1  1.00568377  0.84883724  0.12297274  1
  La  La70  1  0.16986351  0.32146016  0.37262410  1
  La  La71  1  0.16320660  0.34561763  0.12162952  1
  In  In72  1  0.49812017  0.83145170  0.25216941  1
  In  In73  1  0.33152884  0.33383967  0.75075661  1
  In  In74  1  0.16681535  0.16776675  0.49736835  1
  In  In75  1  0.00150343  -0.00368128  0.50268327  1
  In  In76  1  0.83541078  0.16648203  0.74776558  1
  In  In77  1  0.83960630  0.83380486  0.75252821  1
  In  In78  1  0.83457252  0.50133858  0.24581889  1
  In  In79  1  0.66248576  -0.00154862  0.50300348  1
  In  In80  1  0.83279522  0.50135530  -0.00321979  1
  In  In81  1  0.33324961  0.66780964  0.50076454  1
  In  In82  1  -0.00003814  0.66680235  0.50070426  1
  In  In83  1  0.66541299  0.33667411  0.75383127  1
  In  In84  1  0.00215121  -0.00090232  -0.00444343  1
  In  In85  1  0.66446144  0.66967239  0.49712985  1
  In  In86  1  0.16445226  0.50077762  0.24909644  1
  In  In87  1  0.83590259  0.83187854  0.00196831  1
  In  In88  1  0.33368967  -0.00429439  0.50094809  1
  In  In89  1  0.33252495  0.33627366  0.49616304  1
  In  In90  1  0.16727808  0.16906536  0.24922405  1
  In  In91  1  0.83298917  0.83106601  0.24828705  1
  In  In92  1  0.83528285  0.83539885  0.49632980  1
  In  In93  1  0.83418839  0.16257800  -0.00089040  1
  In  In94  1  0.66575756  0.33603592  0.50037413  1
  In  In95  1  -0.00078727  0.66972908  0.25126414  1
  In  In96  1  0.66151850  -0.00219149  0.75087669  1
  In  In97  1  0.83808409  0.49999823  0.50269725  1
  In  In98  1  0.66695078  0.66451012  0.75259325  1
  In  In99  1  0.49833560  0.16832629  0.50045881  1
  In  In100  1  -0.00170870  0.33652448  0.00153261  1
  In  In101  1  0.16673836  0.49944264  0.75198269  1
  In  In102  1  0.49512288  0.50071258  0.24956450  1
  In  In103  1  0.16804302  0.16777758  -0.00125073  1
  In  In104  1  0.83738382  0.16662134  0.24813572  1
  In  In105  1  0.66371396  0.33582631  0.24485532  1
  In  In106  1  0.16459941  0.49939936  0.50089215  1
  In  In107  1  0.33392379  0.33421569  0.00090566  1
  Ir  Ir108  1  -0.00062570  0.33337358  0.50381507  1
  Ir  Ir109  1  0.33415261  0.66750590  0.75815845  1
  Ir  Ir110  1  0.49292934  0.50287917  0.75164970  1
  Ir  Ir111  1  0.33474111  0.33445941  0.24800075  1
  Ir  Ir112  1  0.32921618  0.66940236  0.24467424  1
  Ir  Ir113  1  0.33272566  -0.00410909  0.75556402  1
  Ir  Ir114  1  0.00591316  0.66526193  0.75295659  1
  Ir  Ir115  1  0.49582275  0.83226516  0.50261132  1
  Ir  Ir116  1  0.66192831  0.33655570  0.00114805  1
  Ir  Ir117  1  0.00884615  0.66600044  -0.00313099  1
  Ir  Ir118  1  0.00418790  -0.00871841  0.25021825  1
  Ir  Ir119  1  0.49620473  0.16497722  0.75683268  1
  Ir  Ir120  1  0.65943885  0.66672656  0.00368270  1
  Ir  Ir121  1  0.33210951  0.66636780  -0.00071770  1
  Ir  Ir122  1  0.49710150  0.83027371  -0.00018589  1
  Ir  Ir123  1  0.00906295  -0.00332598  0.75504190  1
  Ir  Ir124  1  -0.00039188  0.33660243  0.24892239  1
  Ir  Ir125  1  0.16662545  0.50481545  0.00050388  1
  Ir  Ir126  1  0.66322144  0.66761536  0.24579589  1
  Ir  Ir127  1  0.33568560  -0.00619012  -0.00192438  1
  Ir  Ir128  1  0.50174687  0.16773796  0.00213310  1
  Ir  Ir129  1  0.49523054  0.50366602  0.50274634  1
  Ir  Ir130  1  0.84185542  0.49911074  0.74883966  1
  Ir  Ir131  1  0.17103854  0.83416061  0.24773264  1
  Ir  Ir132  1  0.66251130  -0.00124216  0.00344291  1
  Ir  Ir133  1  0.16947695  0.83161008  0.50028778  1
  Ir  Ir134  1  0.17116432  0.82879463  0.00085002  1
  Ir  Ir135  1  0.33463312  -0.00023654  0.24788042  1
  Ir  Ir136  1  -0.00084843  0.33561830  0.74524168  1
  Ir  Ir137  1  0.66289829  0.00136193  0.24570799  1
  Ir  Ir138  1  0.49648890  0.50177718  -0.00129659  1
  Ir  Ir139  1  0.49425939  0.83090888  0.75268398  1
  Ir  Ir140  1  0.49556301  0.16890732  0.24460606  1
  Ir  Ir141  1  0.16519872  0.16556552  0.74992881  1
  Ir  Ir142  1  0.16829030  0.82959782  0.75531007  1
  Ir  Ir143  1  0.83687220  0.16699083  0.50028890  1
  O  O144  1  0.29972786  0.33073987  0.13004748  1
  O  O145  1  0.30117599  0.33202852  0.62553671  1
  O  O146  1  0.29719479  0.65717128  0.12078285  1
  O  O147  1  0.30228296  0.65808046  0.63709496  1
  O  O148  1  0.31434617  0.98841312  0.12163132  1
  O  O149  1  0.31733833  0.99966755  0.63596510  1
  O  O150  1  0.62895082  0.33264673  0.11720336  1
  O  O151  1  0.64861549  0.33520407  0.62841828  1
  O  O152  1  0.63869541  0.65519144  0.12411699  1
  O  O153  1  0.65570565  0.66877925  0.62626054  1
  O  O154  1  0.64069002  0.99464761  0.12392237  1
  O  O155  1  0.62922817  0.99650217  0.62784726  1
  O  O156  1  0.96535903  0.33392301  0.13130086  1
  O  O157  1  0.96521757  0.32790316  0.62322301  1
  O  O158  1  0.98248229  0.65915847  0.11635494  1
  O  O159  1  0.96547708  0.65785935  0.63566227  1
  O  O160  1  0.98801475  0.98935344  0.12912168  1
  O  O161  1  0.98588101  0.99609243  0.63620380  1
  O  O162  1  0.18313222  0.17350735  0.12630941  1
  O  O163  1  0.18232896  0.17187332  0.63000646  1
  O  O164  1  0.19791142  0.48803355  0.12033683  1
  O  O165  1  0.20188125  0.48199306  0.62836467  1
  O  O166  1  0.20357760  0.82214510  0.12368560  1
  O  O167  1  0.19185062  0.81914307  0.62662148  1
  O  O168  1  0.52047490  0.16514832  0.12323587  1
  O  O169  1  0.51249357  0.15797312  0.63599437  1
  O  O170  1  0.52930015  0.49122315  0.11807115  1
  O  O171  1  0.51852263  0.49820750  0.62782495  1
  O  O172  1  0.52554031  0.82850345  0.12077608  1
  O  O173  1  0.52057539  0.82863067  0.62808151  1
  O  O174  1  0.85535623  0.15833119  0.12383947  1
  O  O175  1  0.85571321  0.16603015  0.61944275  1
  O  O176  1  0.86790747  0.49080465  0.11987385  1
  O  O177  1  0.87144041  0.48423473  0.63144468  1
  O  O178  1  0.86584583  0.83076890  0.12467007  1
  O  O179  1  0.85170242  0.81921778  0.62618568  1
  O  O180  1  0.14297566  0.18545076  0.37060837  1
  O  O181  1  0.14855823  0.16497290  0.86851229  1
  O  O182  1  0.12757384  0.50493170  0.37370662  1
  O  O183  1  0.13042713  0.51592795  0.88050285  1
  O  O184  1  0.14121309  0.83644285  0.37402687  1
  O  O185  1  0.13887776  0.83832126  0.87801219  1
  O  O186  1  0.46741117  0.17812335  0.36343240  1
  O  O187  1  0.47760634  0.17723108  0.88112901  1
  O  O188  1  0.47739552  0.51857977  0.38040292  1
  O  O189  1  0.46472672  0.51592945  0.87448257  1
  O  O190  1  0.46540190  0.83562065  0.38177702  1
  O  O191  1  0.46606057  0.83116432  0.87597635  1
  O  O192  1  0.81893212  0.16216365  0.37810110  1
  O  O193  1  0.81476458  0.18068801  0.87424581  1
  O  O194  1  0.81722287  0.51540870  0.37267749  1
  O  O195  1  0.81822945  0.50824275  0.86764017  1
  O  O196  1  0.82156533  0.86264752  0.36874705  1
  O  O197  1  0.82121285  0.85289453  0.87968586  1
  O  O198  1  0.01922711  -0.01687672  0.36896693  1
  O  O199  1  0.04192146  -0.00622929  0.87073348  1
  O  O200  1  0.03250681  0.34426016  0.37689250  1
  O  O201  1  0.02103657  0.34814296  0.86567682  1
  O  O202  1  0.02145159  0.69233068  0.37535426  1
  O  O203  1  0.04122402  0.67738660  0.87516427  1
  O  O204  1  0.35150714  0.00518904  0.36751311  1
  O  O205  1  0.35262317  -0.01319826  0.87664202  1
  O  O206  1  0.37194300  0.34384048  0.36266278  1
  O  O207  1  0.36888244  0.35147501  0.87683218  1
  O  O208  1  0.36167809  0.67860717  0.36600045  1
  O  O209  1  0.36846412  0.67665738  0.88000728  1
  O  O210  1  0.68511517  -0.00107717  0.36660877  1
  O  O211  1  0.68669233  -0.00415727  0.88332334  1
  O  O212  1  0.67950026  0.33956336  0.37149973  1
  O  O213  1  0.69600488  0.33851239  0.88261292  1
  O  O214  1  0.69419699  0.66834102  0.36438208  1
  O  O215  1  0.67875290  0.66501252  0.88375739  1
  O  O216  1  0.07324773  0.09361444  0.01254421  1
  O  O217  1  0.07560903  0.08943826  0.50873663  1
  O  O218  1  0.07168085  0.43985337  0.02500699  1
  O  O219  1  0.06479389  0.42551044  0.53303874  1
  O  O220  1  0.07620562  0.76157854  0.02670865  1
  O  O221  1  0.08214260  0.75869216  0.52336848  1
  O  O222  1  0.40578920  0.09021535  0.01536866  1
  O  O223  1  0.41150090  0.08660688  0.51372005  1
  O  O224  1  0.40541362  0.43428641  0.02742755  1
  O  O225  1  0.39952101  0.44030216  0.52406202  1
  O  O226  1  0.39597755  0.76532953  0.02096325  1
  O  O227  1  0.40555133  0.76434934  0.51512804  1
  O  O228  1  0.73379756  0.08700193  0.01320369  1
  O  O229  1  0.74732679  0.09824991  0.51155821  1
  O  O230  1  0.73088457  0.42727491  0.02747075  1
  O  O231  1  0.75000211  0.42117807  0.52305297  1
  O  O232  1  0.73031772  0.75787396  0.02412483  1
  O  O233  1  0.73787298  0.76332571  0.50720004  1
  O  O234  1  0.09811113  0.27264878  0.02036813  1
  O  O235  1  0.09623446  0.27235547  0.52076904  1
  O  O236  1  0.10525493  0.60167884  0.02535189  1
  O  O237  1  0.09477993  0.59538772  0.53866849  1
  O  O238  1  0.10311317  0.91735832  0.02024208  1
  O  O239  1  0.10288365  0.91985605  0.51498977  1
  O  O240  1  0.43803357  0.26547588  0.01935138  1
  O  O241  1  0.42726590  0.26511772  0.50824267  1
  O  O242  1  0.42038766  0.59094614  0.02431817  1
  O  O243  1  0.42671187  0.59330433  0.52148716  1
  O  O244  1  0.42520172  0.91869205  0.02410521  1
  O  O245  1  0.43434682  0.92744472  0.52705314  1
  O  O246  1  0.75648252  0.27247766  0.02356580  1
  O  O247  1  0.76926049  0.25945828  0.52105645  1
  O  O248  1  0.74716850  0.58925765  0.02169398  1
  O  O249  1  0.76942180  0.60055417  0.51606088  1
  O  O250  1  0.74810720  0.92275793  0.02249173  1
  O  O251  1  0.76440455  0.93631254  0.50699555  1
  O  O252  1  0.25008622  0.07640351  0.26650831  1
  O  O253  1  0.23217978  0.06452329  0.77416198  1
  O  O254  1  0.23750986  0.39801182  0.27064144  1
  O  O255  1  0.24574692  0.41560187  0.78482608  1
  O  O256  1  0.24113055  0.74360440  0.27189820  1
  O  O257  1  0.24026258  0.73782630  0.78527806  1
  O  O258  1  0.56786131  0.07810182  0.26762264  1
  O  O259  1  0.56607942  0.07642796  0.76907996  1
  O  O260  1  0.55831443  0.40024855  0.26445465  1
  O  O261  1  0.56070508  0.41044645  0.77763486  1
  O  O262  1  0.56814229  0.73250362  0.27476256  1
  O  O263  1  0.56235935  0.73783584  0.77428427  1
  O  O264  1  0.90778617  0.05444864  0.27110547  1
  O  O265  1  0.91316254  0.06228968  0.77469561  1
  O  O266  1  0.90860743  0.40206893  0.27069072  1
  O  O267  1  0.90523556  0.40219947  0.77564734  1
  O  O268  1  0.89123158  0.72597898  0.27232889  1
  O  O269  1  0.92725489  0.74518849  0.77997146  1
  O  O270  1  0.27224261  0.24259443  0.27879404  1
  O  O271  1  0.25386537  0.23663753  0.76562412  1
  O  O272  1  0.26107170  0.57818916  0.26109379  1
  O  O273  1  0.26428151  0.57821780  0.78395837  1
  O  O274  1  0.26916675  0.90077700  0.26856973  1
  O  O275  1  0.26014116  0.90154454  0.78325347  1
  O  O276  1  0.58287145  0.23925806  0.26402860  1
  O  O277  1  0.58233500  0.24247007  0.77326064  1
  O  O278  1  0.59152188  0.57784486  0.26366315  1
  O  O279  1  0.58317718  0.57424927  0.77013661  1
  O  O280  1  0.58960741  0.91302561  0.25655595  1
  O  O281  1  0.58377369  0.89862840  0.76832795  1
  O  O282  1  0.93551586  0.24349462  0.26854939  1
  O  O283  1  0.92997540  0.24803671  0.76800231  1
  O  O284  1  0.94072015  0.56325286  0.26494197  1
  O  O285  1  0.94185346  0.56505602  0.77188504  1
  O  O286  1  0.94719205  0.89072898  0.25608938  1
  O  O287  1  0.94158933  0.90685149  0.78004543  1
  O  O288  1  0.26262140  0.23956535  0.46575778  1
  O  O289  1  0.26287468  0.24140224  0.97978944  1
  O  O290  1  0.25971112  0.57492176  0.48870722  1
  O  O291  1  0.26403530  0.57155636  0.97239983  1
  O  O292  1  0.26449197  0.89711206  0.47566468  1
  O  O293  1  0.26691135  0.89596736  0.97715742  1
  O  O294  1  0.58618464  0.24828936  0.47836558  1
  O  O295  1  0.58976327  0.24490296  0.97530858  1
  O  O296  1  0.58554761  0.57553327  0.48226367  1
  O  O297  1  0.58479058  0.57618500  0.97844090  1
  O  O298  1  0.58667831  0.89677952  0.48606322  1
  O  O299  1  0.59361475  0.89910181  0.98928287  1
  O  O300  1  0.93119055  0.23852383  0.48166056  1
  O  O301  1  0.92174779  0.24650560  0.97887592  1
  O  O302  1  0.94353048  0.55935819  0.48058592  1
  O  O303  1  0.94434727  0.56979115  0.97847540  1
  O  O304  1  0.94286778  0.89233377  0.48633716  1
  O  O305  1  0.94524247  0.89252927  0.99002125  1
  O  O306  1  0.24792012  0.07790636  0.48071931  1
  O  O307  1  0.24171997  0.06067974  0.97825043  1
  O  O308  1  0.22981726  0.39963004  0.47152294  1
  O  O309  1  0.23848423  0.41739503  0.97878458  1
  O  O310  1  0.24040483  0.74448029  0.48159105  1
  O  O311  1  0.23871734  0.73415215  0.97308045  1
  O  O312  1  0.57642200  0.07808773  0.48633545  1
  O  O313  1  0.57207937  0.07333934  0.98448653  1
  O  O314  1  0.56020985  0.41247585  0.47838660  1
  O  O315  1  0.56309521  0.40429736  0.97475598  1
  O  O316  1  0.55997445  0.73717637  0.47432918  1
  O  O317  1  0.56414890  0.73573688  0.97670765  1
  O  O318  1  0.90074104  0.06819559  0.48091381  1
  O  O319  1  0.89787457  0.05855302  0.96980079  1
  O  O320  1  0.91229974  0.40095326  0.47922912  1
  O  O321  1  0.90240838  0.40600766  0.96910890  1
  O  O322  1  0.89295957  0.72330446  0.48545931  1
  O  O323  1  0.91829887  0.73395343  0.97530890  1
  O  O324  1  0.09748842  0.27767404  0.22877046  1
  O  O325  1  0.09778209  0.26818174  0.72525373  1
  O  O326  1  0.09754821  0.59935318  0.21706210  1
  O  O327  1  0.09595048  0.59578353  0.72262703  1
  O  O328  1  0.09954576  0.92278039  0.22540189  1
  O  O329  1  0.10322744  0.92492837  0.73473777  1
  O  O330  1  0.43141305  0.26909642  0.22077024  1
  O  O331  1  0.42692631  0.25551632  0.74372303  1
  O  O332  1  0.41481359  0.59233714  0.22545349  1
  O  O333  1  0.42137840  0.59456486  0.72814629  1
  O  O334  1  0.41790210  0.92221865  0.23106118  1
  O  O335  1  0.43034693  0.92991833  0.73148482  1
  O  O336  1  0.76385737  0.26513560  0.22399792  1
  O  O337  1  0.76715506  0.26911056  0.73430530  1
  O  O338  1  0.75165063  0.59493980  0.22527028  1
  O  O339  1  0.77569745  0.59009754  0.72351700  1
  O  O340  1  0.74542137  0.92344024  0.22425618  1
  O  O341  1  0.76089974  0.92650300  0.74243388  1
  O  O342  1  0.07156594  0.08521767  0.24063125  1
  O  O343  1  0.07469671  0.09290594  0.73373156  1
  O  O344  1  0.06475800  0.43024503  0.21978159  1
  O  O345  1  0.06723373  0.42705020  0.72245089  1
  O  O346  1  0.07706093  0.76697672  0.22149260  1
  O  O347  1  0.08390451  0.75062955  0.72668782  1
  O  O348  1  0.40138749  0.09692124  0.23477334  1
  O  O349  1  0.40711584  0.08713462  0.73186906  1
  O  O350  1  0.39673074  0.42882141  0.21522549  1
  O  O351  1  0.39974930  0.43923791  0.72999295  1
  O  O352  1  0.39518164  0.76294700  0.22473845  1
  O  O353  1  0.40064954  0.76195933  0.74076112  1
  O  O354  1  0.74011090  0.08487608  0.23917323  1
  O  O355  1  0.74364688  0.08843667  0.74100748  1
  O  O356  1  0.73807729  0.43048368  0.21295590  1
  O  O357  1  0.75102549  0.43098354  0.73245268  1
  O  O358  1  0.72590211  0.76176168  0.22125973  1
  O  O359  1  0.75326576  0.74783054  0.74427640  1
