# generated using pymatgen
data_BaLaInIrO6
_symmetry_space_group_name_H-M   'P 1'
_cell_length_a   17.51125225
_cell_length_b   17.55531996
_cell_length_c   16.47848193
_cell_angle_alpha   89.90305724
_cell_angle_beta   90.03093109
_cell_angle_gamma   90.01649064
_symmetry_Int_Tables_number   1
_chemical_formula_structural   BaLaInIrO6
_chemical_formula_sum   'Ba36 La36 In36 Ir36 O216'
_cell_volume   5065.73481029
_cell_formula_units_Z   36
loop_
 _symmetry_equiv_pos_site_id
 _symmetry_equiv_pos_as_xyz
  1  'x, y, z'
loop_
 _atom_site_type_symbol
 _atom_site_label
 _atom_site_symmetry_multiplicity
 _atom_site_fract_x
 _atom_site_fract_y
 _atom_site_fract_z
 _atom_site_occupancy
  Ba  Ba0  1  0.66847218  0.83960660  0.12540618  1
  Ba  Ba1  1  0.49702083  0.01214030  0.62068492  1
  Ba  Ba2  1  0.33169702  0.17280701  0.62643088  1
  Ba  Ba3  1  0.83750601  0.34081823  0.62207301  1
  Ba  Ba4  1  0.66518524  0.17144077  0.12637240  1
  Ba  Ba5  1  0.83350789  0.32567176  0.36982227  1
  Ba  Ba6  1  0.33442364  0.84264477  0.62633049  1
  Ba  Ba7  1  0.66854318  0.50421830  0.12294226  1
  Ba  Ba8  1  -0.00481775  0.15626043  0.87261848  1
  Ba  Ba9  1  1.00271660  0.17806313  0.62611098  1
  Ba  Ba10  1  0.50098954  0.32761106  0.37382406  1
  Ba  Ba11  1  0.50222563  0.99636593  0.87448600  1
  Ba  Ba12  1  0.50310155  0.34027427  0.12410924  1
  Ba  Ba13  1  0.83956554  0.99071843  0.87460581  1
  Ba  Ba14  1  0.33415197  0.49331800  0.37683350  1
  Ba  Ba15  1  0.16504864  0.99388282  0.87419940  1
  Ba  Ba16  1  0.50035225  0.66072828  0.87292862  1
  Ba  Ba17  1  0.50282438  0.00697875  0.12796083  1
  Ba  Ba18  1  0.49911572  0.65934230  0.37355368  1
  Ba  Ba19  1  -0.00326600  0.15619074  0.37668777  1
  Ba  Ba20  1  1.00457015  0.84428063  0.62613328  1
  Ba  Ba21  1  0.33089340  0.49207546  0.87439195  1
  Ba  Ba22  1  0.50413574  0.67579092  0.12497466  1
  Ba  Ba23  1  0.66209438  0.82201528  0.37704473  1
  Ba  Ba24  1  0.49978942  0.32288324  0.87559577  1
  Ba  Ba25  1  0.66593830  0.15721924  0.87866999  1
  Ba  Ba26  1  0.16341896  0.33948258  0.62912558  1
  Ba  Ba27  1  0.99889117  0.84331219  0.12665591  1
  Ba  Ba28  1  0.16464953  0.00920959  0.62518352  1
  Ba  Ba29  1  0.49901285  0.98817791  0.37658912  1
  Ba  Ba30  1  0.33320994  0.82618634  0.37768179  1
  Ba  Ba31  1  0.83331148  0.32189813  0.87345724  1
  Ba  Ba32  1  0.16402847  0.66073490  0.87236136  1
  Ba  Ba33  1  0.82900706  0.68419908  0.12590365  1
  Ba  Ba34  1  0.33097037  0.50670668  0.62122072  1
  Ba  Ba35  1  0.16538918  0.00974515  0.12768072  1
  La  La36  1  0.32824044  0.15347082  0.37539037  1
  La  La37  1  1.00173225  0.18121852  0.12030197  1
  La  La38  1  0.32893643  0.81816212  0.87490039  1
  La  La39  1  0.34301296  0.51664694  0.12527830  1
  La  La40  1  0.83267138  0.68281863  0.62382679  1
  La  La41  1  0.16426663  0.34582952  0.12170057  1
  La  La42  1  -0.00362779  0.47923439  0.87353614  1
  La  La43  1  0.34290204  0.84668977  0.12048329  1
  La  La44  1  0.66928374  0.82218879  0.87763261  1
  La  La45  1  -0.00399204  0.48855505  0.37749375  1
  La  La46  1  0.16094671  0.67976385  0.12210663  1
  La  La47  1  0.65974939  0.48283453  0.87433046  1
  La  La48  1  0.65725422  0.15372560  0.37861601  1
  La  La49  1  0.66870328  0.84337781  0.62829169  1
  La  La50  1  0.65881436  0.49145698  0.37403813  1
  La  La51  1  0.83298582  0.65354771  0.37405352  1
  La  La52  1  0.66799332  0.51678294  0.62262516  1
  La  La53  1  0.49368942  0.68176141  0.61971917  1
  La  La54  1  1.00285038  0.51233875  0.11950441  1
  La  La55  1  0.67043204  0.18068273  0.62596873  1
  La  La56  1  1.00651626  0.51214357  0.62721058  1
  La  La57  1  0.82635501  0.34386958  0.11990314  1
  La  La58  1  0.83140227  0.01697834  0.62373859  1
  La  La59  1  -0.00581267  0.81821327  0.38095361  1
  La  La60  1  -0.00554437  0.82053613  0.87798476  1
  La  La61  1  0.17016796  0.31367229  0.87603192  1
  La  La62  1  0.83509657  0.98259744  0.37714152  1
  La  La63  1  0.34310838  0.17909245  0.12692911  1
  La  La64  1  0.16028310  0.67835358  0.62572127  1
  La  La65  1  0.33328792  0.15831710  0.87501724  1
  La  La66  1  0.49105166  0.34623167  0.62424006  1
  La  La67  1  0.17249083  0.65292051  0.37596633  1
  La  La68  1  0.84472462  0.65069793  0.87891154  1
  La  La69  1  0.16919233  0.98729538  0.37731426  1
  La  La70  1  0.82740180  0.01106528  0.12616311  1
  La  La71  1  0.17693856  0.31672732  0.38182753  1
  In  In72  1  0.33028924  0.00030452  0.25017866  1
  In  In73  1  0.16415558  0.16664063  0.24747746  1
  In  In74  1  0.33000930  0.33370182  0.00150748  1
  In  In75  1  0.33067111  0.66822010  0.25004271  1
  In  In76  1  0.50146208  0.50224750  0.74616096  1
  In  In77  1  0.33093567  0.33526024  0.25027475  1
  In  In78  1  0.49911489  0.50101350  -0.00148970  1
  In  In79  1  0.83246518  0.49910438  0.74517869  1
  In  In80  1  0.66648950  0.33765817  0.50188081  1
  In  In81  1  0.16483665  0.83340001  0.75348930  1
  In  In82  1  0.00009068  0.00070136  0.00473340  1
  In  In83  1  0.16762853  0.83617394  0.00169764  1
  In  In84  1  0.33096680  0.33392351  0.74923417  1
  In  In85  1  0.67256391  0.66459838  -0.00451414  1
  In  In86  1  0.16421263  0.16494119  0.50192489  1
  In  In87  1  0.00184043  0.66519205  0.25130634  1
  In  In88  1  0.83131937  0.16739190  0.49618093  1
  In  In89  1  0.16442236  0.83230442  0.25109977  1
  In  In90  1  0.66837568  -0.00008951  0.75106309  1
  In  In91  1  0.50048049  0.83553012  -0.00306261  1
  In  In92  1  0.66617186  -0.00148962  0.50209777  1
  In  In93  1  0.67226095  0.66621790  0.75080307  1
  In  In94  1  0.66830034  -0.00070641  0.25183966  1
  In  In95  1  0.16547094  0.50003806  -0.00103528  1
  In  In96  1  0.50235998  0.83435833  0.75151700  1
  In  In97  1  0.33262718  0.66418964  0.74583556  1
  In  In98  1  0.66735475  0.32800728  -0.00257315  1
  In  In99  1  0.00175304  0.33664852  0.49806730  1
  In  In100  1  0.66892262  0.66747330  0.25090769  1
  In  In101  1  0.33571630  0.00003305  0.75157145  1
  In  In102  1  0.83353846  0.16797981  0.74978561  1
  In  In103  1  0.16425842  0.49879771  0.49857548  1
  In  In104  1  0.00333158  0.33452209  0.24785037  1
  In  In105  1  0.83680522  0.50093013  0.24947052  1
  In  In106  1  0.66940383  0.33027868  0.25041255  1
  In  In107  1  0.16468789  0.83194337  0.49931272  1
  Ir  Ir108  1  0.49701032  0.16280277  0.00322214  1
  Ir  Ir109  1  0.16621813  0.49842422  0.24477476  1
  Ir  Ir110  1  0.33731247  0.33228030  0.49901300  1
  Ir  Ir111  1  0.83684452  0.83706319  0.25571692  1
  Ir  Ir112  1  0.50389443  0.50187954  0.49744229  1
  Ir  Ir113  1  -0.00184879  -0.00306864  0.74776265  1
  Ir  Ir114  1  0.83924522  0.49784919  -0.00475133  1
  Ir  Ir115  1  0.00311300  0.33569346  0.75480409  1
  Ir  Ir116  1  0.83317338  0.50705977  0.50113962  1
  Ir  Ir117  1  0.15954531  0.50030182  0.75200544  1
  Ir  Ir118  1  0.16993757  0.16622097  0.00241337  1
  Ir  Ir119  1  0.49865791  0.16900340  0.49740310  1
  Ir  Ir120  1  0.50251327  0.16994885  0.74705396  1
  Ir  Ir121  1  0.66174942  0.33274151  0.74488909  1
  Ir  Ir122  1  -0.00225296  0.66514036  0.50171834  1
  Ir  Ir123  1  0.67259255  0.00068981  0.00021289  1
  Ir  Ir124  1  0.33320412  0.00296798  0.00017965  1
  Ir  Ir125  1  0.49744620  0.16718038  0.25336842  1
  Ir  Ir126  1  0.66795961  0.66721756  0.50348199  1
  Ir  Ir127  1  0.83768897  0.83275267  0.74675312  1
  Ir  Ir128  1  -0.00256265  0.66421687  -0.00089318  1
  Ir  Ir129  1  0.83786803  0.16432850  0.00455455  1
  Ir  Ir130  1  0.32883356  0.66755528  0.00138773  1
  Ir  Ir131  1  -0.00176442  0.33213239  0.00225890  1
  Ir  Ir132  1  0.50176355  0.82830967  0.49786335  1
  Ir  Ir133  1  0.49823651  0.83326548  0.24996293  1
  Ir  Ir134  1  0.83550904  0.16343510  0.24887631  1
  Ir  Ir135  1  0.16289651  0.16518015  0.75636269  1
  Ir  Ir136  1  -0.00366300  0.66377556  0.75100213  1
  Ir  Ir137  1  0.49964101  0.50145792  0.25082168  1
  Ir  Ir138  1  0.83417903  0.83581154  -0.00291471  1
  Ir  Ir139  1  0.33474050  0.00127615  0.49816160  1
  Ir  Ir140  1  0.83531070  0.83072487  0.50222523  1
  Ir  Ir141  1  0.33102927  0.66483880  0.49936818  1
  Ir  Ir142  1  -0.00278408  -0.00341406  0.49754238  1
  Ir  Ir143  1  -0.00543333  0.00093718  0.25448279  1
  O  O144  1  0.29859039  0.31612748  0.12591272  1
  O  O145  1  0.31582082  0.32988941  0.61832161  1
  O  O146  1  0.29882134  0.65799165  0.12195859  1
  O  O147  1  0.29800356  0.66517670  0.61633447  1
  O  O148  1  0.31403045  0.98619075  0.12038535  1
  O  O149  1  0.31759662  1.00366490  0.61840762  1
  O  O150  1  0.65549087  0.33010656  0.12440191  1
  O  O151  1  0.62936438  0.32382820  0.62621628  1
  O  O152  1  0.65754689  0.66453259  0.12337314  1
  O  O153  1  0.63487832  0.65725822  0.62108137  1
  O  O154  1  0.65720370  0.99803308  0.12113520  1
  O  O155  1  0.64638425  0.97821037  0.62556208  1
  O  O156  1  0.96347305  0.32651223  0.12025377  1
  O  O157  1  0.98955403  0.34049016  0.63299628  1
  O  O158  1  0.97429759  0.64955953  0.11953168  1
  O  O159  1  0.96661020  0.64994166  0.62658759  1
  O  O160  1  0.96329757  0.99672506  0.13589876  1
  O  O161  1  0.96705134  0.99491530  0.62077759  1
  O  O162  1  0.20397794  0.16336904  0.11984674  1
  O  O163  1  0.17831909  0.16782145  0.63412144  1
  O  O164  1  0.20340188  0.48544530  0.12756362  1
  O  O165  1  0.17607266  0.49572093  0.63123915  1
  O  O166  1  0.20382543  0.82231437  0.12572241  1
  O  O167  1  0.18020184  0.82059862  0.62483317  1
  O  O168  1  0.51816861  0.16174917  0.12895085  1
  O  O169  1  0.53246460  0.16979773  0.62207023  1
  O  O170  1  0.51622038  0.50572476  0.13171583  1
  O  O171  1  0.53340545  0.49231183  0.61610682  1
  O  O172  1  0.51210666  0.83675019  0.12846016  1
  O  O173  1  0.53122715  0.82197733  0.61743022  1
  O  O174  1  0.86738878  0.15318492  0.12823290  1
  O  O175  1  0.85449128  0.15660458  0.62347853  1
  O  O176  1  0.86881295  0.48802436  0.11640089  1
  O  O177  1  0.87017628  0.49972837  0.61813202  1
  O  O178  1  0.85430228  0.83796840  0.12794374  1
  O  O179  1  0.86153331  0.81799485  0.62424503  1
  O  O180  1  0.14448237  0.18071818  0.37454417  1
  O  O181  1  0.14172971  0.17259534  0.88080490  1
  O  O182  1  0.13274870  0.51410848  0.36536648  1
  O  O183  1  0.13147207  0.50698109  0.87175050  1
  O  O184  1  0.12937791  0.84133183  0.37677150  1
  O  O185  1  0.12993898  0.83209746  0.87780746  1
  O  O186  1  0.46559126  0.17051816  0.37503402  1
  O  O187  1  0.47052837  0.16777890  0.87616098  1
  O  O188  1  0.48143222  0.50245269  0.37396266  1
  O  O189  1  0.47974457  0.50171954  0.87235498  1
  O  O190  1  0.47991394  0.82746920  0.37360997  1
  O  O191  1  0.46209604  0.83598684  0.87603500  1
  O  O192  1  0.79835566  0.16896974  0.36679498  1
  O  O193  1  0.81987085  0.16538599  0.88170179  1
  O  O194  1  0.79790752  0.51361791  0.38440664  1
  O  O195  1  0.80289031  0.50693396  0.87469539  1
  O  O196  1  0.81140388  0.84515521  0.37901059  1
  O  O197  1  0.80666028  0.83800537  0.87058054  1
  O  O198  1  0.02941448  0.00157568  0.37581947  1
  O  O199  1  0.01274260  -0.00028072  0.86923770  1
  O  O200  1  0.04038113  0.34884571  0.37087392  1
  O  O201  1  0.03241226  0.34062692  0.87989952  1
  O  O202  1  0.03355910  0.67616468  0.38216477  1
  O  O203  1  0.01537695  0.68182323  0.87432376  1
  O  O204  1  0.35206003  0.00965902  0.37927925  1
  O  O205  1  0.35273400  0.02151050  0.88209516  1
  O  O206  1  0.35152766  0.33818822  0.38015694  1
  O  O207  1  0.34814731  0.33018994  0.87508269  1
  O  O208  1  0.34959535  0.66312851  0.38063377  1
  O  O209  1  0.35110655  0.67443774  0.88061202  1
  O  O210  1  0.69740282  0.01056754  0.37747508  1
  O  O211  1  0.69017577  0.00339430  0.88092972  1
  O  O212  1  0.68570092  0.35209211  0.37546284  1
  O  O213  1  0.68509020  0.34144656  0.86670993  1
  O  O214  1  0.69775277  0.66926836  0.38365492  1
  O  O215  1  0.71228150  0.68047465  0.87251692  1
  O  O216  1  0.07385499  0.10212752  0.02579590  1
  O  O217  1  0.06633166  0.08685830  0.51504438  1
  O  O218  1  0.06208960  0.42787753  0.02368662  1
  O  O219  1  0.05828116  0.44448627  0.51345240  1
  O  O220  1  0.07208098  0.75003649  0.02237312  1
  O  O221  1  0.06882067  0.75182590  0.52265580  1
  O  O222  1  0.39740239  0.09843354  0.02438154  1
  O  O223  1  0.40385112  0.09887597  0.51117499  1
  O  O224  1  0.39880001  0.43133657  0.02697539  1
  O  O225  1  0.41362240  0.42479342  0.52292959  1
  O  O226  1  0.39631381  0.76135995  0.02165109  1
  O  O227  1  0.40888451  0.75238299  0.52340872  1
  O  O228  1  0.74652951  0.09281493  0.02495777  1
  O  O229  1  0.73410678  0.09579773  0.52767424  1
  O  O230  1  0.75295988  0.42432460  0.01381560  1
  O  O231  1  0.74003019  0.44063704  0.52754171  1
  O  O232  1  0.74380475  0.76981633  0.00993093  1
  O  O233  1  0.73812292  0.76258273  0.53063071  1
  O  O234  1  0.09808133  0.26365554  0.02642061  1
  O  O235  1  0.10046918  0.26717906  0.50920729  1
  O  O236  1  0.08977161  0.59374291  0.02829968  1
  O  O237  1  0.09158989  0.60047861  0.52687950  1
  O  O238  1  0.09281469  0.92799992  0.02132299  1
  O  O239  1  0.08939180  0.93112144  0.51216593  1
  O  O240  1  0.42273410  0.24940153  0.02313750  1
  O  O241  1  0.43321068  0.26576852  0.52237132  1
  O  O242  1  0.41675649  0.59568358  0.02216790  1
  O  O243  1  0.42873937  0.59639447  0.52318482  1
  O  O244  1  0.42206265  0.93185769  0.01804668  1
  O  O245  1  0.42566341  0.92403406  0.51502482  1
  O  O246  1  0.77097273  0.25849191  0.01939195  1
  O  O247  1  0.75068833  0.25658498  0.52346985  1
  O  O248  1  0.77632375  0.59029210  0.01244632  1
  O  O249  1  0.76559762  0.60256561  0.52827745  1
  O  O250  1  0.76972758  0.93430203  0.02107270  1
  O  O251  1  0.77145843  0.92524858  0.52419907  1
  O  O252  1  0.23316047  0.07128593  0.27883596  1
  O  O253  1  0.23973969  0.08094191  0.76776435  1
  O  O254  1  0.22460667  0.40193291  0.27252537  1
  O  O255  1  0.22513723  0.40578757  0.77584644  1
  O  O256  1  0.23099727  0.73088892  0.27750093  1
  O  O257  1  0.24476671  0.74298702  0.76800441  1
  O  O258  1  0.57576488  0.08191756  0.27373322  1
  O  O259  1  0.57222974  0.08062294  0.76207539  1
  O  O260  1  0.57600458  0.41620677  0.26489369  1
  O  O261  1  0.57603177  0.40254610  0.76425776  1
  O  O262  1  0.57195985  0.74508662  0.26116292  1
  O  O263  1  0.58376629  0.74358891  0.77248943  1
  O  O264  1  0.89812874  0.06458423  0.27831513  1
  O  O265  1  0.90685150  0.06507719  0.75474144  1
  O  O266  1  0.91950745  0.41639066  0.27680182  1
  O  O267  1  0.91318293  0.40799836  0.77128959  1
  O  O268  1  0.90600920  0.74413766  0.28211166  1
  O  O269  1  0.89978132  0.73257027  0.77229894  1
  O  O270  1  0.26291311  0.23740388  0.27887718  1
  O  O271  1  0.25429189  0.23603710  0.77677719  1
  O  O272  1  0.25287135  0.56805605  0.26723163  1
  O  O273  1  0.25147489  0.56807567  0.76346389  1
  O  O274  1  0.24953320  0.91314540  0.27799643  1
  O  O275  1  0.26404545  0.90434101  0.77719097  1
  O  O276  1  0.59411988  0.23321888  0.27649350  1
  O  O277  1  0.59777459  0.23687348  0.76407062  1
  O  O278  1  0.59382365  0.56947832  0.27328502  1
  O  O279  1  0.60998018  0.56143158  0.76709933  1
  O  O280  1  0.58785261  0.90690519  0.26472359  1
  O  O281  1  0.60811779  0.89740396  0.77173348  1
  O  O282  1  0.92573408  0.23368699  0.26177316  1
  O  O283  1  0.92944410  0.24711811  0.76376862  1
  O  O284  1  0.93054363  0.57507374  0.28370030  1
  O  O285  1  0.93036802  0.57170342  0.77886841  1
  O  O286  1  0.93156980  0.90453502  0.28434282  1
  O  O287  1  0.93511664  0.89685765  0.77136962  1
  O  O288  1  0.26905551  0.23974224  0.47587187  1
  O  O289  1  0.26002953  0.23161263  0.97440987  1
  O  O290  1  0.25391524  0.57861458  0.47871296  1
  O  O291  1  0.26079672  0.57538353  0.98532407  1
  O  O292  1  0.25716398  0.91607034  0.48074384  1
  O  O293  1  0.27175021  0.90538159  0.97602219  1
  O  O294  1  0.59176193  0.23405445  0.47644655  1
  O  O295  1  0.58588589  0.23457135  0.98671734  1
  O  O296  1  0.60385289  0.56877123  0.47859484  1
  O  O297  1  0.60137765  0.56941285  0.97201783  1
  O  O298  1  0.58984487  0.90201847  0.48396107  1
  O  O299  1  0.60480723  0.90856376  0.97831995  1
  O  O300  1  0.92285708  0.24674402  0.48331569  1
  O  O301  1  0.93406127  0.23247060  0.99056928  1
  O  O302  1  0.92514847  0.57596838  0.46881723  1
  O  O303  1  0.93307825  0.56717837  0.96975438  1
  O  O304  1  0.93023783  0.89919803  0.47352619  1
  O  O305  1  0.93054825  0.89791100  0.97876710  1
  O  O306  1  0.24266166  0.07211799  0.47498894  1
  O  O307  1  0.23979154  0.07562380  0.97857329  1
  O  O308  1  0.23924603  0.39985868  0.48092210  1
  O  O309  1  0.22214058  0.39402957  0.98296441  1
  O  O310  1  0.23649265  0.73184415  0.47668303  1
  O  O311  1  0.24333469  0.74015181  0.97982518  1
  O  O312  1  0.57173670  0.08111300  0.47668632  1
  O  O313  1  0.57630100  0.06943206  0.98647250  1
  O  O314  1  0.57578496  0.41607125  0.47722884  1
  O  O315  1  0.58113910  0.41083095  0.98260084  1
  O  O316  1  0.57026500  0.73247719  0.48450373  1
  O  O317  1  0.58230773  0.74809143  0.97568880  1
  O  O318  1  0.89951264  0.05866780  0.48006700  1
  O  O319  1  0.90370732  0.07198688  0.99350071  1
  O  O320  1  0.90252836  0.41902218  0.47348833  1
  O  O321  1  0.91014997  0.40536485  0.97275535  1
  O  O322  1  0.90153370  0.73348127  0.47552124  1
  O  O323  1  0.90355401  0.73810309  0.97224018  1
  O  O324  1  0.09267068  0.25986798  0.20994886  1
  O  O325  1  0.09680479  0.26473151  0.74818188  1
  O  O326  1  0.10105475  0.59076999  0.21653516  1
  O  O327  1  0.09095097  0.59530913  0.72208495  1
  O  O328  1  0.08502585  0.93377712  0.23673749  1
  O  O329  1  0.08858887  0.92964468  0.73429371  1
  O  O330  1  0.42616927  0.25516919  0.23069780  1
  O  O331  1  0.43464729  0.26070147  0.72676733  1
  O  O332  1  0.42222487  0.58804424  0.23168578  1
  O  O333  1  0.43119113  0.59709985  0.71881916  1
  O  O334  1  0.42211174  0.91912312  0.23610325  1
  O  O335  1  0.43095594  0.92998974  0.73165986  1
  O  O336  1  0.77288984  0.25652515  0.22197751  1
  O  O337  1  0.75065740  0.26114489  0.72671278  1
  O  O338  1  0.76875909  0.59867183  0.24441981  1
  O  O339  1  0.76749278  0.59733211  0.71356968  1
  O  O340  1  0.77337950  0.93272492  0.23847374  1
  O  O341  1  0.77592979  0.92658991  0.72152872  1
  O  O342  1  0.05742455  0.09608924  0.22630309  1
  O  O343  1  0.06817956  0.09109873  0.73261151  1
  O  O344  1  0.07700467  0.43227749  0.21047537  1
  O  O345  1  0.06201036  0.43794543  0.73904213  1
  O  O346  1  0.07715734  0.75220648  0.22128835  1
  O  O347  1  0.07058033  0.74855087  0.73075929  1
  O  O348  1  0.40036938  0.10161157  0.23459866  1
  O  O349  1  0.40955099  0.10363270  0.74064720  1
  O  O350  1  0.40442873  0.43270831  0.22778893  1
  O  O351  1  0.41151336  0.42129465  0.72371282  1
  O  O352  1  0.40389843  0.76522565  0.22729628  1
  O  O353  1  0.41507195  0.75298064  0.72438606  1
  O  O354  1  0.74873269  0.09278961  0.22965783  1
  O  O355  1  0.73820698  0.09446178  0.72192348  1
  O  O356  1  0.75407692  0.41780479  0.22647471  1
  O  O357  1  0.72921864  0.42787161  0.72341824  1
  O  O358  1  0.74686228  0.76782094  0.24205342  1
  O  O359  1  0.74470968  0.76801232  0.72025768  1
