# generated using pymatgen
data_BaLaInIrO6
_symmetry_space_group_name_H-M   'P 1'
_cell_length_a   17.53160649
_cell_length_b   17.54864719
_cell_length_c   16.49818859
_cell_angle_alpha   90.04141755
_cell_angle_beta   90.01124215
_cell_angle_gamma   89.98534264
_symmetry_Int_Tables_number   1
_chemical_formula_structural   BaLaInIrO6
_chemical_formula_sum   'Ba36 La36 In36 Ir36 O216'
_cell_volume   5075.76474008
_cell_formula_units_Z   36
loop_
 _symmetry_equiv_pos_site_id
 _symmetry_equiv_pos_as_xyz
  1  'x, y, z'
loop_
 _atom_site_type_symbol
 _atom_site_label
 _atom_site_symmetry_multiplicity
 _atom_site_fract_x
 _atom_site_fract_y
 _atom_site_fract_z
 _atom_site_occupancy
  Ba  Ba0  1  0.49690535  0.00556451  0.62946286  1
  Ba  Ba1  1  0.66707264  0.50866018  0.12478905  1
  Ba  Ba2  1  -0.00084107  0.49283073  0.37439499  1
  Ba  Ba3  1  0.99861498  0.83745880  0.62628067  1
  Ba  Ba4  1  0.67055288  0.84043976  0.62624240  1
  Ba  Ba5  1  0.84088176  0.66645971  0.62534342  1
  Ba  Ba6  1  0.16193441  0.99265132  0.87543145  1
  Ba  Ba7  1  0.49961210  0.33769546  0.62837134  1
  Ba  Ba8  1  0.83959603  0.65785786  0.87230011  1
  Ba  Ba9  1  1.00468639  0.17390510  0.62627698  1
  Ba  Ba10  1  0.33196014  0.48178401  0.37233410  1
  Ba  Ba11  1  1.00325764  0.18178653  0.12088124  1
  Ba  Ba12  1  0.17010279  0.31893134  0.37485884  1
  Ba  Ba13  1  0.66694713  0.50879992  0.62550076  1
  Ba  Ba14  1  0.33854740  0.17308707  0.62523643  1
  Ba  Ba15  1  0.00040432  0.16279197  0.87217434  1
  Ba  Ba16  1  0.16895519  0.66234903  0.87288191  1
  Ba  Ba17  1  0.16424114  0.00525722  0.62676622  1
  Ba  Ba18  1  0.00055344  0.49204327  0.87675102  1
  Ba  Ba19  1  0.66657185  0.16109789  0.87570318  1
  Ba  Ba20  1  0.83094312  0.33887556  0.12401573  1
  Ba  Ba21  1  0.33799850  0.50402421  0.62586257  1
  Ba  Ba22  1  0.49656995  0.01089771  0.12571754  1
  Ba  Ba23  1  0.83403514  0.00984887  0.12175356  1
  Ba  Ba24  1  0.49657591  0.99176396  0.37669005  1
  Ba  Ba25  1  0.66468977  0.17399946  0.62473148  1
  Ba  Ba26  1  0.66896052  0.49203855  0.37627818  1
  Ba  Ba27  1  0.49579456  0.99481348  0.87394303  1
  Ba  Ba28  1  0.66614972  0.17201848  0.12350470  1
  Ba  Ba29  1  0.32826579  0.49089069  0.87635686  1
  Ba  Ba30  1  0.16828816  0.34154411  0.62322903  1
  Ba  Ba31  1  0.00395501  0.82415021  0.37246998  1
  Ba  Ba32  1  0.16915602  0.32520596  0.87676264  1
  Ba  Ba33  1  -0.00174671  0.82885711  0.87511488  1
  Ba  Ba34  1  0.49861959  0.32864383  0.87416870  1
  Ba  Ba35  1  0.33297409  0.84486326  0.12690919  1
  La  La36  1  0.99836299  0.51289652  0.12252124  1
  La  La37  1  0.66542384  0.48699275  0.87584038  1
  La  La38  1  0.66673249  0.81973488  0.87725662  1
  La  La39  1  0.16820021  0.98724358  0.37565551  1
  La  La40  1  0.81910749  0.66517372  0.37213719  1
  La  La41  1  0.50287045  0.31862115  0.38120316  1
  La  La42  1  0.32434221  0.82761159  0.87802699  1
  La  La43  1  0.83085354  0.68219939  0.12558245  1
  La  La44  1  0.15769062  0.01982284  0.12442582  1
  La  La45  1  0.33660140  0.18224125  0.12923658  1
  La  La46  1  0.50737411  0.65427843  0.87847276  1
  La  La47  1  0.65993577  0.81799084  0.37208715  1
  La  La48  1  0.83176607  0.34940063  0.62457956  1
  La  La49  1  0.16518355  0.68317997  0.12651564  1
  La  La50  1  0.49535090  0.34364252  0.13311500  1
  La  La51  1  1.00637382  0.84814355  0.12518495  1
  La  La52  1  0.32893261  0.14936287  0.37602853  1
  La  La53  1  0.84171924  0.98973266  0.86916379  1
  La  La54  1  0.49665397  0.68267660  0.12920313  1
  La  La55  1  0.66520516  0.84971972  0.12549133  1
  La  La56  1  0.32212113  0.81569061  0.37248997  1
  La  La57  1  0.33893847  0.51725596  0.12676841  1
  La  La58  1  0.83699778  0.98225030  0.37157728  1
  La  La59  1  0.83866039  0.32279610  0.87624059  1
  La  La60  1  -0.00163480  0.14919541  0.37633159  1
  La  La61  1  0.66809764  0.15387889  0.37171989  1
  La  La62  1  0.33628768  0.84502878  0.62770074  1
  La  La63  1  0.16127532  0.67167707  0.62374371  1
  La  La64  1  0.49277133  0.68020223  0.61531138  1
  La  La65  1  1.00434369  0.51204114  0.62836665  1
  La  La66  1  0.15933525  0.35049049  0.12606316  1
  La  La67  1  0.82721856  0.01426383  0.62135083  1
  La  La68  1  0.32601221  0.15159941  0.87522529  1
  La  La69  1  0.17195114  0.64608993  0.37291012  1
  La  La70  1  0.50340736  0.64926703  0.36822992  1
  La  La71  1  0.84122584  0.31508184  0.37483020  1
  In  In72  1  0.49936564  0.16645761  0.75302233  1
  In  In73  1  0.49829504  0.16512011  0.25312923  1
  In  In74  1  0.49595204  0.16816546  0.00030978  1
  In  In75  1  0.16820255  0.50420378  0.00440330  1
  In  In76  1  0.50033053  0.16327446  0.49759078  1
  In  In77  1  0.00157166  0.66544169  0.49366694  1
  In  In78  1  0.33435373  0.33189692  0.75187056  1
  In  In79  1  0.00259801  0.33290781  0.25199321  1
  In  In80  1  0.66808391  -0.00145064  0.75159018  1
  In  In81  1  -0.00024744  -0.00021594  0.74654564  1
  In  In82  1  -0.00077237  0.67114875  0.00052030  1
  In  In83  1  0.00002938  0.33477628  0.74908951  1
  In  In84  1  0.66483545  0.33332570  0.00002611  1
  In  In85  1  0.49827561  0.83014094  0.75382762  1
  In  In86  1  0.33709149  0.66965315  0.00157354  1
  In  In87  1  -0.00105866  0.00450051  0.00100342  1
  In  In88  1  0.83618102  0.16313746  0.24873621  1
  In  In89  1  0.66136469  0.66804141  0.50221090  1
  In  In90  1  0.33850543  0.66705977  0.74822202  1
  In  In91  1  0.66836025  -0.00018571  -0.00397830  1
  In  In92  1  0.66586888  -0.00427391  0.49660477  1
  In  In93  1  -0.00080403  0.66721806  0.24823831  1
  In  In94  1  0.66616520  0.33296470  0.25389628  1
  In  In95  1  0.16854613  0.50014464  0.75072319  1
  In  In96  1  0.83588803  0.50067829  0.49750105  1
  In  In97  1  0.83465485  0.49905669  0.24774043  1
  In  In98  1  0.83160650  0.83152344  0.49645866  1
  In  In99  1  0.83287328  0.83355387  0.74762550  1
  In  In100  1  0.50092885  0.49606844  0.49931978  1
  In  In101  1  0.00118556  0.33388619  0.50013501  1
  In  In102  1  0.16741178  0.16388110  0.50082626  1
  In  In103  1  0.49775717  0.83535702  -0.00039141  1
  In  In104  1  0.49995448  0.50009241  0.00215530  1
  In  In105  1  0.16713310  0.83234128  0.50222553  1
  In  In106  1  0.49583210  0.83642103  0.25346186  1
  In  In107  1  0.66611281  0.66578507  0.75199526  1
  Ir  Ir108  1  0.83475895  0.49921843  0.75350371  1
  Ir  Ir109  1  0.16732841  0.83565286  0.24666835  1
  Ir  Ir110  1  0.50570078  0.50233094  0.75173481  1
  Ir  Ir111  1  0.16986679  0.16404228  0.75370993  1
  Ir  Ir112  1  0.49110375  0.83057951  0.49513917  1
  Ir  Ir113  1  0.33220206  -0.00626295  0.49694145  1
  Ir  Ir114  1  0.83420943  0.16992421  -0.00487552  1
  Ir  Ir115  1  0.00234651  -0.00260072  0.25140023  1
  Ir  Ir116  1  0.67413436  0.33071065  0.50083841  1
  Ir  Ir117  1  0.83357669  0.16603100  0.50012274  1
  Ir  Ir118  1  0.83011058  0.83333923  0.00668925  1
  Ir  Ir119  1  0.17267525  0.50265140  0.49805220  1
  Ir  Ir120  1  0.32435888  0.00010842  0.24958113  1
  Ir  Ir121  1  0.49481958  0.49858184  0.24959787  1
  Ir  Ir122  1  0.17191421  0.16893712  0.00364395  1
  Ir  Ir123  1  0.82926502  0.83260835  0.24607499  1
  Ir  Ir124  1  0.16803172  0.83682926  0.00302189  1
  Ir  Ir125  1  0.33095918  0.66759768  0.49598988  1
  Ir  Ir126  1  0.00431295  0.66591165  0.74938291  1
  Ir  Ir127  1  0.32846809  0.33183080  0.00985687  1
  Ir  Ir128  1  0.16792716  0.16359288  0.24810195  1
  Ir  Ir129  1  0.67100052  -0.00344617  0.25144431  1
  Ir  Ir130  1  0.32460786  0.00282617  0.00470669  1
  Ir  Ir131  1  0.17356643  0.50126137  0.24819398  1
  Ir  Ir132  1  -0.00341101  0.00032868  0.49378873  1
  Ir  Ir133  1  0.17034311  0.83100840  0.75409177  1
  Ir  Ir134  1  0.66983297  0.66662962  0.00364014  1
  Ir  Ir135  1  0.32811547  -0.00245574  0.75126536  1
  Ir  Ir136  1  0.83310288  0.17052931  0.74674517  1
  Ir  Ir137  1  0.33132049  0.66587255  0.25243859  1
  Ir  Ir138  1  0.83374226  0.50081694  -0.00171488  1
  Ir  Ir139  1  0.66298328  0.66892874  0.24284059  1
  Ir  Ir140  1  0.33579791  0.33206025  0.49417889  1
  Ir  Ir141  1  0.67418716  0.33786237  0.74676415  1
  Ir  Ir142  1  0.32956633  0.33207567  0.24899494  1
  Ir  Ir143  1  -0.00104550  0.33670499  0.00191929  1
  O  O144  1  0.29555286  0.31947038  0.12994739  1
  O  O145  1  0.31969199  0.33063236  0.61398502  1
  O  O146  1  0.29993046  0.65912329  0.13416190  1
  O  O147  1  0.29929057  0.66667758  0.61339120  1
  O  O148  1  0.29265054  0.99612062  0.12740565  1
  O  O149  1  0.30962420  0.98052418  0.62353817  1
  O  O150  1  0.63299480  0.33037931  0.12752827  1
  O  O151  1  0.64957112  0.33351492  0.62278322  1
  O  O152  1  0.63356199  0.66418065  0.12251617  1
  O  O153  1  0.62941135  0.67046231  0.62729533  1
  O  O154  1  0.64702608  0.99057519  0.13152867  1
  O  O155  1  0.64785699  0.99621844  0.62203904  1
  O  O156  1  0.98316795  0.33685548  0.12226462  1
  O  O157  1  0.96757424  0.33359022  0.62418052  1
  O  O158  1  0.96814187  0.66763584  0.12427692  1
  O  O159  1  0.99281956  0.65984234  0.62829829  1
  O  O160  1  0.98360101  0.98944755  0.13004486  1
  O  O161  1  0.96759961  0.99830195  0.61464369  1
  O  O162  1  0.20040717  0.15806010  0.12596459  1
  O  O163  1  0.18785329  0.16015703  0.63261448  1
  O  O164  1  0.20422448  0.49162840  0.13170607  1
  O  O165  1  0.18807458  0.51031093  0.61593882  1
  O  O166  1  0.18781577  0.82231567  0.12487916  1
  O  O167  1  0.19833401  0.82243281  0.63257391  1
  O  O168  1  0.51109402  0.16897946  0.12914416  1
  O  O169  1  0.51121309  0.16339521  0.62301853  1
  O  O170  1  0.51672092  0.48280483  0.13136202  1
  O  O171  1  0.51963305  0.49515460  0.63025864  1
  O  O172  1  0.52764992  0.82832128  0.12911903  1
  O  O173  1  0.51942491  0.82387548  0.61394220  1
  O  O174  1  0.85335033  0.16654634  0.11613727  1
  O  O175  1  0.85743840  0.15326892  0.62395901  1
  O  O176  1  0.86211164  0.49411736  0.11665357  1
  O  O177  1  0.86427090  0.48975838  0.63340022  1
  O  O178  1  0.86706593  0.82260829  0.12665461  1
  O  O179  1  0.84851134  0.82029311  0.62095108  1
  O  O180  1  0.13770027  0.16092107  0.36706765  1
  O  O181  1  0.14985057  0.16867560  0.88029602  1
  O  O182  1  0.14954665  0.50746503  0.37252033  1
  O  O183  1  0.15166978  0.50343960  0.87921428  1
  O  O184  1  0.15301000  0.84737837  0.36749224  1
  O  O185  1  0.14628981  0.83556440  0.87908873  1
  O  O186  1  0.46264122  0.17448458  0.37398174  1
  O  O187  1  0.46013529  0.16821967  0.87796642  1
  O  O188  1  0.47762388  0.51304266  0.36919238  1
  O  O189  1  0.47898582  0.51508147  0.87246705  1
  O  O190  1  0.45792235  0.83602376  0.37738267  1
  O  O191  1  0.45856995  0.83504015  0.87749681  1
  O  O192  1  0.80438064  0.17459545  0.38156205  1
  O  O193  1  0.81332252  0.18547722  0.86943942  1
  O  O194  1  0.82331774  0.53054999  0.37177227  1
  O  O195  1  0.80274789  0.50513795  0.87553966  1
  O  O196  1  0.79728289  0.84049324  0.36407201  1
  O  O197  1  0.80275652  0.84592860  0.88673144  1
  O  O198  1  0.03159291  0.00572709  0.37178969  1
  O  O199  1  0.01098091  0.00056268  0.87600544  1
  O  O200  1  0.02403852  0.34010353  0.37553173  1
  O  O201  1  0.01590650  0.33478871  0.88137814  1
  O  O202  1  0.03546028  0.66546498  0.36879350  1
  O  O203  1  0.01858148  0.66649710  0.87203483  1
  O  O204  1  0.34896656  0.01124480  0.37238957  1
  O  O205  1  0.34756357  0.01326480  0.87983804  1
  O  O206  1  0.36367595  0.33132087  0.36976833  1
  O  O207  1  0.34758126  0.33582418  0.89092322  1
  O  O208  1  0.36556267  0.67588329  0.37515559  1
  O  O209  1  0.36952469  0.68180078  0.87574254  1
  O  O210  1  0.70085527  0.00284678  0.36912404  1
  O  O211  1  0.70874438  -0.00118013  0.87540853  1
  O  O212  1  0.70431806  0.33362337  0.38448183  1
  O  O213  1  0.70138736  0.34585665  0.86642310  1
  O  O214  1  0.68537127  0.67733907  0.36359247  1
  O  O215  1  0.69282684  0.67773659  0.88723984  1
  O  O216  1  0.08100351  0.09654622  0.02136769  1
  O  O217  1  0.06529456  0.09038130  0.50720943  1
  O  O218  1  0.06854781  0.42831619  0.02769090  1
  O  O219  1  0.07702107  0.43953361  0.52315630  1
  O  O220  1  0.07481867  0.76831950  0.02688191  1
  O  O221  1  0.07899538  0.75577723  0.51987538  1
  O  O222  1  0.38733947  0.09817333  0.02451648  1
  O  O223  1  0.40012341  0.08567286  0.50703964  1
  O  O224  1  0.39573808  0.42577630  0.03132479  1
  O  O225  1  0.40520658  0.42334823  0.50808485  1
  O  O226  1  0.41570838  0.75411464  0.03628813  1
  O  O227  1  0.39452800  0.76472272  0.52186973  1
  O  O228  1  0.74716299  0.09735593  0.01290180  1
  O  O229  1  0.74580461  0.09748952  0.51595934  1
  O  O230  1  0.74343716  0.43289767  0.01056838  1
  O  O231  1  0.74100077  0.42168832  0.52238527  1
  O  O232  1  0.73833086  0.76005452  0.03539497  1
  O  O233  1  0.72461297  0.76955995  0.49443989  1
  O  O234  1  0.10192251  0.26870688  0.02354751  1
  O  O235  1  0.09329863  0.25592384  0.51656992  1
  O  O236  1  0.09289735  0.59720735  0.03779922  1
  O  O237  1  0.11176941  0.59942282  0.50952778  1
  O  O238  1  0.09599514  0.92602368  0.02850265  1
  O  O239  1  0.09109689  0.93161152  0.50787355  1
  O  O240  1  0.42040605  0.26853640  0.03531315  1
  O  O241  1  0.42950518  0.26746297  0.50440685  1
  O  O242  1  0.43434284  0.59588820  0.03348823  1
  O  O243  1  0.42452819  0.60255175  0.51920415  1
  O  O244  1  0.41627424  0.93433770  0.01732864  1
  O  O245  1  0.42300246  0.92204304  0.52246043  1
  O  O246  1  0.76419798  0.26000485  0.00633736  1
  O  O247  1  0.77208791  0.26430345  0.52599792  1
  O  O248  1  0.76837240  0.59935790  0.02601688  1
  O  O249  1  0.76003629  0.59721771  0.50954087  1
  O  O250  1  0.75599206  0.91472104  0.03255061  1
  O  O251  1  0.77236438  0.93826107  0.51065900  1
  O  O252  1  0.22742478  0.06363127  0.27047616  1
  O  O253  1  0.24198241  0.07508434  0.77440392  1
  O  O254  1  0.23438110  0.40070489  0.26380385  1
  O  O255  1  0.24452182  0.40674116  0.75816060  1
  O  O256  1  0.23533033  0.73703861  0.27601525  1
  O  O257  1  0.25097702  0.75271639  0.77614108  1
  O  O258  1  0.58338900  0.07159606  0.27203451  1
  O  O259  1  0.57723477  0.07699551  0.76925819  1
  O  O260  1  0.55515871  0.40085924  0.27435683  1
  O  O261  1  0.58506444  0.41429737  0.77609294  1
  O  O262  1  0.56805612  0.73471460  0.27086530  1
  O  O263  1  0.56929203  0.73511353  0.78715355  1
  O  O264  1  0.91095883  0.06595385  0.28063750  1
  O  O265  1  0.89830919  0.07651475  0.76650863  1
  O  O266  1  0.89828613  0.39526495  0.27294997  1
  O  O267  1  0.89875783  0.40658314  0.77565491  1
  O  O268  1  0.89137841  0.73525450  0.26888439  1
  O  O269  1  0.91780131  0.74033232  0.76310981  1
  O  O270  1  0.26817406  0.22797385  0.27066114  1
  O  O271  1  0.26111681  0.23119851  0.77312139  1
  O  O272  1  0.26328725  0.57419760  0.27351944  1
  O  O273  1  0.26045501  0.58019065  0.76302007  1
  O  O274  1  0.26052909  0.90506864  0.27699215  1
  O  O275  1  0.25980557  0.90368970  0.77655337  1
  O  O276  1  0.58994773  0.24103733  0.28972960  1
  O  O277  1  0.60029532  0.25381433  0.76401789  1
  O  O278  1  0.58912808  0.57572168  0.27046789  1
  O  O279  1  0.59592120  0.56928247  0.78057030  1
  O  O280  1  0.60198334  0.90278433  0.27077100  1
  O  O281  1  0.59783913  0.89740496  0.77654849  1
  O  O282  1  0.93470104  0.23006432  0.27682885  1
  O  O283  1  0.91958192  0.24257269  0.76455099  1
  O  O284  1  0.94102588  0.56126867  0.24593823  1
  O  O285  1  0.93175350  0.57032660  0.76209749  1
  O  O286  1  0.92554520  0.90405330  0.27067993  1
  O  O287  1  0.92171902  0.91166985  0.77142825  1
  O  O288  1  0.27018566  0.23418351  0.47621980  1
  O  O289  1  0.27070638  0.23067711  0.98693011  1
  O  O290  1  0.26389623  0.57599932  0.46965031  1
  O  O291  1  0.26780109  0.57296545  0.99507085  1
  O  O292  1  0.26689510  0.89965079  0.47830528  1
  O  O293  1  0.26175738  0.90513530  0.97916361  1
  O  O294  1  0.60382436  0.24083146  0.47317244  1
  O  O295  1  0.58701169  0.24532552  0.97867406  1
  O  O296  1  0.58406989  0.57916401  0.47647520  1
  O  O297  1  0.60246518  0.57673111  0.97538031  1
  O  O298  1  0.58815239  0.89442127  0.46973715  1
  O  O299  1  0.60080817  0.89574353  0.98154767  1
  O  O300  1  0.92635430  0.22911411  0.47163225  1
  O  O301  1  0.92457772  0.24546518  0.97741937  1
  O  O302  1  0.94094561  0.56313070  0.50511837  1
  O  O303  1  0.92551539  0.56874633  0.98944033  1
  O  O304  1  0.92705461  0.91236492  0.46990862  1
  O  O305  1  0.91601626  0.90894869  0.98893448  1
  O  O306  1  0.23798584  0.06314536  0.47452431  1
  O  O307  1  0.23144298  0.06984504  0.98861314  1
  O  O308  1  0.23889489  0.40363529  0.48445795  1
  O  O309  1  0.23566354  0.39651610  0.99894046  1
  O  O310  1  0.24059028  0.73518686  0.46571595  1
  O  O311  1  0.24195072  0.74909959  0.98468747  1
  O  O312  1  0.58441287  0.08057836  0.46605926  1
  O  O313  1  0.57212936  0.07199028  0.98820129  1
  O  O314  1  0.57792931  0.39644706  0.47650527  1
  O  O315  1  0.58120178  0.41787326  0.97419310  1
  O  O316  1  0.55448680  0.73731813  0.46936748  1
  O  O317  1  0.57562640  0.73136638  0.98088603  1
  O  O318  1  0.89992699  0.06940895  0.46881736  1
  O  O319  1  0.90127286  0.07794316  0.97532248  1
  O  O320  1  0.89520765  0.39505561  0.47819811  1
  O  O321  1  0.89979370  0.40385197  0.97591046  1
  O  O322  1  0.90045702  0.73267782  0.46788787  1
  O  O323  1  0.90122042  0.74702838  0.98573417  1
  O  O324  1  0.10668496  0.26050837  0.22493437  1
  O  O325  1  0.09666464  0.25192246  0.73990522  1
  O  O326  1  0.11130751  0.59848012  0.22654006  1
  O  O327  1  0.09238984  0.59441004  0.72459677  1
  O  O328  1  0.09885878  0.92935260  0.22185194  1
  O  O329  1  0.09277573  0.91388145  0.73387032  1
  O  O330  1  0.42376868  0.26852613  0.22786065  1
  O  O331  1  0.42435545  0.25867798  0.73745417  1
  O  O332  1  0.42732557  0.59766872  0.22311838  1
  O  O333  1  0.44311731  0.59754193  0.72782105  1
  O  O334  1  0.41791624  0.93282649  0.23534256  1
  O  O335  1  0.41285717  0.92009172  0.73204099  1
  O  O336  1  0.75911258  0.25507585  0.23983015  1
  O  O337  1  0.76814757  0.26956356  0.72426217  1
  O  O338  1  0.76261521  0.60924511  0.22673221  1
  O  O339  1  0.76304665  0.58743925  0.73444751  1
  O  O340  1  0.76070455  0.92475476  0.22467979  1
  O  O341  1  0.77181211  0.93871542  0.72582820  1
  O  O342  1  0.07306353  0.09160789  0.22623199  1
  O  O343  1  0.08077889  0.09051170  0.73725429  1
  O  O344  1  0.07931709  0.43574384  0.22043846  1
  O  O345  1  0.06967311  0.43054235  0.72659342  1
  O  O346  1  0.07331590  0.76741945  0.21969175  1
  O  O347  1  0.08608822  0.74981544  0.72507676  1
  O  O348  1  0.38820972  0.09650139  0.23425299  1
  O  O349  1  0.40054348  0.08353318  0.73863257  1
  O  O350  1  0.39760160  0.42872502  0.22193801  1
  O  O351  1  0.41888251  0.42910694  0.74227031  1
  O  O352  1  0.40400827  0.75288006  0.23294388  1
  O  O353  1  0.41050973  0.75575219  0.70811931  1
  O  O354  1  0.73969726  0.08714228  0.23703191  1
  O  O355  1  0.74742884  0.09996583  0.73111746  1
  O  O356  1  0.73462637  0.43177851  0.23823108  1
  O  O357  1  0.74628412  0.42783001  0.72689161  1
  O  O358  1  0.73118830  0.76639071  0.22065840  1
  O  O359  1  0.73557276  0.76359725  0.75119376  1
