# generated using pymatgen
data_BaLaInIrO6
_symmetry_space_group_name_H-M   'P 1'
_cell_length_a   17.52069334
_cell_length_b   17.54603757
_cell_length_c   16.49352115
_cell_angle_alpha   89.97718659
_cell_angle_beta   89.99433759
_cell_angle_gamma   90.03838634
_symmetry_Int_Tables_number   1
_chemical_formula_structural   BaLaInIrO6
_chemical_formula_sum   'Ba36 La36 In36 Ir36 O216'
_cell_volume   5070.41598233
_cell_formula_units_Z   36
loop_
 _symmetry_equiv_pos_site_id
 _symmetry_equiv_pos_as_xyz
  1  'x, y, z'
loop_
 _atom_site_type_symbol
 _atom_site_label
 _atom_site_symmetry_multiplicity
 _atom_site_fract_x
 _atom_site_fract_y
 _atom_site_fract_z
 _atom_site_occupancy
  Ba  Ba0  1  0.49997172  0.67640645  0.12394583  1
  Ba  Ba1  1  0.82649484  0.67294573  0.12877195  1
  Ba  Ba2  1  0.83318220  0.33771521  0.12810022  1
  Ba  Ba3  1  0.49827986  0.67666112  0.62534264  1
  Ba  Ba4  1  0.83258114  0.00638258  0.12334094  1
  Ba  Ba5  1  0.83830488  0.99021733  0.37299332  1
  Ba  Ba6  1  0.49944010  0.00977665  0.12351833  1
  Ba  Ba7  1  0.66908708  0.84387519  0.12437549  1
  Ba  Ba8  1  0.16936567  0.00450554  0.62633745  1
  Ba  Ba9  1  0.16606107  0.66230467  0.87380431  1
  Ba  Ba10  1  1.00125957  0.17566495  0.62285820  1
  Ba  Ba11  1  -0.00007815  0.49508436  0.37799543  1
  Ba  Ba12  1  0.33653718  0.84038325  0.62545671  1
  Ba  Ba13  1  0.00234939  0.82547030  0.37702552  1
  Ba  Ba14  1  0.99939751  0.51055917  0.12590544  1
  Ba  Ba15  1  0.16833860  0.66255886  0.37719965  1
  Ba  Ba16  1  0.66717458  0.84211505  0.62653070  1
  Ba  Ba17  1  0.00178687  0.16198944  0.36980113  1
  Ba  Ba18  1  0.99930931  0.17320805  0.12451586  1
  Ba  Ba19  1  0.66647240  0.15704413  0.37639810  1
  Ba  Ba20  1  0.50168133  0.64998936  0.37918501  1
  Ba  Ba21  1  0.83076435  0.67858689  0.62324136  1
  Ba  Ba22  1  0.49905359  0.00922084  0.62398920  1
  Ba  Ba23  1  0.33419658  0.82859098  0.87629433  1
  Ba  Ba24  1  0.16764445  0.67551599  0.62329173  1
  Ba  Ba25  1  0.16996873  0.32461474  0.37073651  1
  Ba  Ba26  1  0.50029307  0.31992343  0.87448971  1
  Ba  Ba27  1  0.16978814  0.32414329  0.87627920  1
  Ba  Ba28  1  0.16812652  0.99423751  0.37847779  1
  Ba  Ba29  1  0.00273135  0.15670698  0.88156946  1
  Ba  Ba30  1  0.32872092  0.49226902  0.37587335  1
  Ba  Ba31  1  0.82710768  0.34547760  0.62121264  1
  Ba  Ba32  1  0.16746028  0.99541035  0.87716401  1
  Ba  Ba33  1  0.33918170  0.17651836  0.12136984  1
  Ba  Ba34  1  0.50060290  0.34589684  0.62421082  1
  Ba  Ba35  1  0.16239743  0.34079796  0.12284212  1
  La  La36  1  0.66758289  0.51825935  0.62547456  1
  La  La37  1  0.66174955  0.48754298  0.87720102  1
  La  La38  1  -0.00164795  0.82283541  0.87292254  1
  La  La39  1  0.49242637  0.35010807  0.12145188  1
  La  La40  1  0.50251783  0.98228270  0.87451521  1
  La  La41  1  0.34028197  0.17748135  0.62383308  1
  La  La42  1  0.50696661  0.98491471  0.37618091  1
  La  La43  1  0.99938380  0.51028034  0.62583948  1
  La  La44  1  0.99994986  0.84363597  0.12403964  1
  La  La45  1  0.66839860  0.17743278  0.12584901  1
  La  La46  1  0.34083750  0.84656199  0.12597411  1
  La  La47  1  0.83538079  0.65098881  0.87402892  1
  La  La48  1  0.83919868  0.65685353  0.37528867  1
  La  La49  1  0.32755638  0.82094735  0.37655510  1
  La  La50  1  0.33832268  0.51187182  0.62693391  1
  La  La51  1  0.16387012  0.35088015  0.62195488  1
  La  La52  1  0.66101378  0.81554576  0.87376481  1
  La  La53  1  0.66875391  0.50870087  0.13183523  1
  La  La54  1  0.83892825  0.31740573  0.87298827  1
  La  La55  1  1.00763483  0.84536636  0.62166409  1
  La  La56  1  0.83910295  0.31644108  0.37584566  1
  La  La57  1  -0.00165679  0.48482033  0.87319259  1
  La  La58  1  0.16258466  0.68352760  0.12416775  1
  La  La59  1  0.32918482  0.15176104  0.37425752  1
  La  La60  1  0.50387381  0.64904716  0.87212579  1
  La  La61  1  0.33253969  0.51430151  0.12534485  1
  La  La62  1  0.32945789  0.48539958  0.87531503  1
  La  La63  1  0.84075899  0.98426186  0.87951112  1
  La  La64  1  0.67441612  0.18183629  0.62571223  1
  La  La65  1  0.16557844  0.01541267  0.12327300  1
  La  La66  1  0.49934964  0.31897925  0.37572830  1
  La  La67  1  0.32902059  0.15267625  0.87391827  1
  La  La68  1  0.66581581  0.82004540  0.37513996  1
  La  La69  1  0.83323182  0.01098381  0.62244855  1
  La  La70  1  0.66075273  0.48403965  0.37736726  1
  La  La71  1  0.65970344  0.14832384  0.87637189  1
  In  In72  1  -0.00295535  0.33355196  -0.00107642  1
  In  In73  1  -0.00214406  -0.00061335  0.75178946  1
  In  In74  1  0.17224245  0.16778490  0.50172005  1
  In  In75  1  -0.00040693  0.00009356  0.49837447  1
  In  In76  1  0.83152965  0.83301426  0.74939779  1
  In  In77  1  0.16639262  0.50375252  0.75142988  1
  In  In78  1  0.50306066  0.16389185  0.74896195  1
  In  In79  1  0.83323263  0.83355751  0.24946367  1
  In  In80  1  0.66368728  0.66371941  0.25409302  1
  In  In81  1  -0.00109635  0.67060829  0.24862711  1
  In  In82  1  0.33396676  0.33165523  0.74929513  1
  In  In83  1  0.00099499  0.33565174  0.50091486  1
  In  In84  1  0.66559969  -0.00016838  0.24994258  1
  In  In85  1  0.66605107  0.66482745  -0.00201942  1
  In  In86  1  0.16621810  0.50495698  0.00002008  1
  In  In87  1  0.83112862  0.16300348  0.75446375  1
  In  In88  1  0.82955351  0.49833750  -0.00144889  1
  In  In89  1  0.16697288  0.83455625  0.75270900  1
  In  In90  1  0.00011343  0.33334485  0.74659002  1
  In  In91  1  0.83016510  0.49731454  0.25496862  1
  In  In92  1  0.66819539  0.33500641  0.75102011  1
  In  In93  1  -0.00064117  0.33517322  0.25107882  1
  In  In94  1  0.33478227  0.66722542  0.24806114  1
  In  In95  1  0.17034668  0.83881620  0.24824522  1
  In  In96  1  0.66654583  -0.00104079  0.50310066  1
  In  In97  1  0.33639494  0.66782213  0.75608683  1
  In  In98  1  0.83095095  0.16332341  0.24699694  1
  In  In99  1  0.66335584  0.33351831  0.00162972  1
  In  In100  1  0.17047717  0.16788106  0.74633699  1
  In  In101  1  -0.00238274  0.66762192  -0.00217109  1
  In  In102  1  0.49931868  0.83169887  0.25182183  1
  In  In103  1  0.83178588  0.16457095  0.50041481  1
  In  In104  1  0.16835751  0.50297416  0.24778822  1
  In  In105  1  0.33635898  0.66578113  0.50138809  1
  In  In106  1  0.33611488  -0.00030489  0.00091464  1
  In  In107  1  0.33397221  0.33388693  0.49769219  1
  Ir  Ir108  1  0.00308067  -0.00403067  0.00243558  1
  Ir  Ir109  1  0.33694042  0.33399015  0.00224284  1
  Ir  Ir110  1  0.49528857  0.49997702  -0.00064992  1
  Ir  Ir111  1  0.65595622  0.33050005  0.25168510  1
  Ir  Ir112  1  0.33877202  0.00231327  0.25364766  1
  Ir  Ir113  1  0.33961233  0.00001854  0.74763250  1
  Ir  Ir114  1  0.50443019  0.83403447  0.75155665  1
  Ir  Ir115  1  0.00637200  -0.00016459  0.24389224  1
  Ir  Ir116  1  0.50176579  0.16484778  -0.00018694  1
  Ir  Ir117  1  0.66845333  0.66779391  0.50198605  1
  Ir  Ir118  1  0.49752778  0.16768697  0.25055588  1
  Ir  Ir119  1  0.34176199  -0.00093278  0.49922321  1
  Ir  Ir120  1  0.66261933  0.33541219  0.49653640  1
  Ir  Ir121  1  0.82987107  0.83607816  -0.00605469  1
  Ir  Ir122  1  0.82502610  0.16377388  -0.00140438  1
  Ir  Ir123  1  0.50326860  0.49711999  0.50053162  1
  Ir  Ir124  1  0.33625045  0.66822669  -0.00084005  1
  Ir  Ir125  1  0.50052545  0.16765181  0.49650553  1
  Ir  Ir126  1  0.33894000  0.33129588  0.24473933  1
  Ir  Ir127  1  0.16916933  0.83397631  0.50058522  1
  Ir  Ir128  1  0.50031466  0.83119741  -0.00385953  1
  Ir  Ir129  1  0.66650704  -0.00096236  -0.00616651  1
  Ir  Ir130  1  0.82784104  0.50456351  0.74824124  1
  Ir  Ir131  1  0.82428044  0.50339635  0.50309566  1
  Ir  Ir132  1  0.66757347  -0.00063328  0.75352596  1
  Ir  Ir133  1  0.50229575  0.50215411  0.75145597  1
  Ir  Ir134  1  -0.00427162  0.66548794  0.50459147  1
  Ir  Ir135  1  -0.00583281  0.66626209  0.74883749  1
  Ir  Ir136  1  0.49931562  0.49212950  0.25062810  1
  Ir  Ir137  1  0.50027834  0.83367548  0.49976833  1
  Ir  Ir138  1  0.17420409  0.16366125  0.24695977  1
  Ir  Ir139  1  0.16627162  0.50299905  0.50347317  1
  Ir  Ir140  1  0.66640766  0.66595714  0.75041501  1
  Ir  Ir141  1  0.16950663  0.83418331  0.00322063  1
  Ir  Ir142  1  0.83382180  0.83084895  0.50245566  1
  Ir  Ir143  1  0.17098946  0.16554647  0.00108614  1
  O  O144  1  0.31417298  0.32786567  0.12302366  1
  O  O145  1  0.30051398  0.31895524  0.62252085  1
  O  O146  1  0.30367074  0.65794359  0.11603894  1
  O  O147  1  0.32447236  0.65097939  0.62778345  1
  O  O148  1  0.31018842  0.98931657  0.13221259  1
  O  O149  1  0.31797814  0.99320863  0.62362971  1
  O  O150  1  0.62796821  0.32042652  0.13058273  1
  O  O151  1  0.64597787  0.32332396  0.61825921  1
  O  O152  1  0.64751586  0.64724747  0.12288703  1
  O  O153  1  0.64298091  0.65798043  0.62660848  1
  O  O154  1  0.64529155  0.99659866  0.11347870  1
  O  O155  1  0.64528387  0.99534168  0.63491083  1
  O  O156  1  0.98333638  0.33122899  0.12400572  1
  O  O157  1  0.97475902  0.34431691  0.62379449  1
  O  O158  1  0.97376120  0.67730182  0.12101887  1
  O  O159  1  0.97430028  0.65025805  0.62711503  1
  O  O160  1  0.98397364  0.98883696  0.12277101  1
  O  O161  1  0.96813326  0.98301003  0.62607366  1
  O  O162  1  0.19240123  0.15716494  0.12452305  1
  O  O163  1  0.20931955  0.15741481  0.62426154  1
  O  O164  1  0.20095025  0.49553492  0.12127023  1
  O  O165  1  0.19787004  0.49614163  0.62297259  1
  O  O166  1  0.20473228  0.82540675  0.11996885  1
  O  O167  1  0.18169620  0.83407349  0.62000984  1
  O  O168  1  0.53218755  0.16256574  0.12742206  1
  O  O169  1  0.53695572  0.16377019  0.61543709  1
  O  O170  1  0.53073863  0.49076116  0.12639855  1
  O  O171  1  0.53302816  0.50188624  0.62670161  1
  O  O172  1  0.51722535  0.83462320  0.11632519  1
  O  O173  1  0.52206647  0.83192926  0.62671798  1
  O  O174  1  0.84676377  0.16370790  0.11599857  1
  O  O175  1  0.84911543  0.15102838  0.62845305  1
  O  O176  1  0.84576722  0.49542483  0.12591860  1
  O  O177  1  0.86012532  0.50002617  0.62590787  1
  O  O178  1  0.86124694  0.82901880  0.11296993  1
  O  O179  1  0.86642203  0.83021537  0.62281484  1
  O  O180  1  0.15810776  0.16150906  0.36599429  1
  O  O181  1  0.15608342  0.16224139  0.88208193  1
  O  O182  1  0.15117825  0.50577139  0.38304764  1
  O  O183  1  0.13437482  0.50783549  0.87538273  1
  O  O184  1  0.15545925  0.83394215  0.38003425  1
  O  O185  1  0.13614269  0.83824786  0.88364922  1
  O  O186  1  0.46543266  0.17898641  0.37282974  1
  O  O187  1  0.46971560  0.16498961  0.88076110  1
  O  O188  1  0.47601557  0.48769045  0.37560143  1
  O  O189  1  0.46622191  0.50713984  0.87605212  1
  O  O190  1  0.46717797  0.84162006  0.38202690  1
  O  O191  1  0.48331890  0.84319748  0.87337273  1
  O  O192  1  0.81474615  0.17268147  0.37336578  1
  O  O193  1  0.79445331  0.17361573  0.88147407  1
  O  O194  1  0.79256634  0.51587925  0.38614440  1
  O  O195  1  0.79472697  0.51352796  0.86501714  1
  O  O196  1  0.80273874  0.83521905  0.38509234  1
  O  O197  1  0.79656528  0.84702369  0.87671719  1
  O  O198  1  0.01743173  -0.00040725  0.36463341  1
  O  O199  1  0.01807274  -0.00160135  0.88418165  1
  O  O200  1  0.02001919  0.33471520  0.37694933  1
  O  O201  1  0.01654670  0.34639310  0.87235391  1
  O  O202  1  0.01779488  0.66832041  0.38651344  1
  O  O203  1  0.01715304  0.68285461  0.86786025  1
  O  O204  1  0.37138527  0.01208132  0.37664191  1
  O  O205  1  0.36450492  0.00859216  0.86973295  1
  O  O206  1  0.36493063  0.33738580  0.36537565  1
  O  O207  1  0.35633440  0.34588167  0.88233006  1
  O  O208  1  0.35273069  0.67855105  0.37591488  1
  O  O209  1  0.37166542  0.67495554  0.88324948  1
  O  O210  1  0.68572338  0.00122727  0.37780096  1
  O  O211  1  0.69963657  0.00925140  0.87372065  1
  O  O212  1  0.69289042  0.34422098  0.37309324  1
  O  O213  1  0.69953254  0.35054685  0.87688357  1
  O  O214  1  0.69759460  0.67539576  0.38439742  1
  O  O215  1  0.69419683  0.67350712  0.86891360  1
  O  O216  1  0.08210631  0.08513680  0.02755813  1
  O  O217  1  0.07917690  0.09068023  0.51260268  1
  O  O218  1  0.06723982  0.43347814  0.00860719  1
  O  O219  1  0.07602366  0.43504813  0.52895905  1
  O  O220  1  0.07551525  0.77005604  0.02306669  1
  O  O221  1  0.06974643  0.76067838  0.52648823  1
  O  O222  1  0.41361473  0.09370082  0.01573913  1
  O  O223  1  0.40555343  0.09981718  0.52240695  1
  O  O224  1  0.40226266  0.43083564  0.02879180  1
  O  O225  1  0.40684299  0.43149642  0.52533890  1
  O  O226  1  0.40254803  0.76548834  0.02519214  1
  O  O227  1  0.41403463  0.76185482  0.51492530  1
  O  O228  1  0.72660537  0.09844547  0.01798225  1
  O  O229  1  0.73112631  0.09669887  0.53041449  1
  O  O230  1  0.71977243  0.44007717  0.02035407  1
  O  O231  1  0.72711504  0.43440561  0.52326494  1
  O  O232  1  0.73675062  0.77004343  0.00717796  1
  O  O233  1  0.73635894  0.76343838  0.51748441  1
  O  O234  1  0.09234982  0.24830323  0.01011060  1
  O  O235  1  0.10437955  0.26807593  0.52580363  1
  O  O236  1  0.10271322  0.60836352  0.02473847  1
  O  O237  1  0.08476835  0.58897470  0.53037985  1
  O  O238  1  0.09815200  0.92561167  0.03364230  1
  O  O239  1  0.08988766  0.91635649  0.51625125  1
  O  O240  1  0.43738513  0.26371166  0.02385312  1
  O  O241  1  0.43117424  0.25637757  0.51825963  1
  O  O242  1  0.42620808  0.59474587  0.02174197  1
  O  O243  1  0.42888592  0.58201675  0.51968934  1
  O  O244  1  0.42778336  0.92070024  0.01325212  1
  O  O245  1  0.43334571  0.92755405  0.51490401  1
  O  O246  1  0.75414303  0.25256419  0.02269015  1
  O  O247  1  0.74764987  0.26050991  0.51326651  1
  O  O248  1  0.76704639  0.60194924  0.00136982  1
  O  O249  1  0.75156448  0.59102318  0.53083600  1
  O  O250  1  0.76327542  0.93304053  0.01143107  1
  O  O251  1  0.76907575  0.92506550  0.52703406  1
  O  O252  1  0.24718312  0.07051596  0.26741021  1
  O  O253  1  0.25332779  0.07037626  0.76995742  1
  O  O254  1  0.25000203  0.39883626  0.26073659  1
  O  O255  1  0.24289075  0.40872628  0.76682505  1
  O  O256  1  0.24291730  0.74536297  0.26517007  1
  O  O257  1  0.24255332  0.74389688  0.76408168  1
  O  O258  1  0.55913460  0.07189514  0.27308304  1
  O  O259  1  0.57209384  0.06232683  0.78070086  1
  O  O260  1  0.56096079  0.39530997  0.27305315  1
  O  O261  1  0.57424083  0.41383271  0.77212025  1
  O  O262  1  0.57221038  0.73847255  0.27366922  1
  O  O263  1  0.57179593  0.73536544  0.77832029  1
  O  O264  1  0.91743745  0.07133762  0.25692678  1
  O  O265  1  0.89310649  0.06029555  0.77254022  1
  O  O266  1  0.89304136  0.40041819  0.28099593  1
  O  O267  1  0.89279744  0.41463646  0.77690708  1
  O  O268  1  0.90161548  0.73971364  0.27954966  1
  O  O269  1  0.90012796  0.73111203  0.77271438  1
  O  O270  1  0.27134817  0.23340845  0.27072593  1
  O  O271  1  0.27129621  0.23058384  0.77827719  1
  O  O272  1  0.26962052  0.56761693  0.25565242  1
  O  O273  1  0.27015202  0.56719488  0.77422957  1
  O  O274  1  0.27597462  0.90691400  0.27299881  1
  O  O275  1  0.26555716  0.91418455  0.76470686  1
  O  O276  1  0.58761112  0.23641693  0.27274116  1
  O  O277  1  0.59982086  0.23264688  0.77513904  1
  O  O278  1  0.59231526  0.55665502  0.27600049  1
  O  O279  1  0.59870622  0.57050709  0.77726037  1
  O  O280  1  0.59199658  0.90452649  0.28001301  1
  O  O281  1  0.60309833  0.90285942  0.77857537  1
  O  O282  1  0.91646079  0.24521009  0.26506077  1
  O  O283  1  0.92110902  0.24301504  0.77640738  1
  O  O284  1  0.91888142  0.57996728  0.27465529  1
  O  O285  1  0.92589536  0.56939913  0.77536014  1
  O  O286  1  0.93900317  0.90626360  0.25300131  1
  O  O287  1  0.92591370  0.89998751  0.78607749  1
  O  O288  1  0.27153482  0.23358878  0.47100380  1
  O  O289  1  0.26887015  0.23661723  0.97613333  1
  O  O290  1  0.25383035  0.57456793  0.48979212  1
  O  O291  1  0.27527975  0.57273352  0.97394057  1
  O  O292  1  0.26910638  0.90250115  0.47536611  1
  O  O293  1  0.25694827  0.90667583  0.98671010  1
  O  O294  1  0.58686882  0.24689322  0.46823963  1
  O  O295  1  0.59507902  0.23053395  0.97706423  1
  O  O296  1  0.60187004  0.56676495  0.48039410  1
  O  O297  1  0.58674434  0.56885457  0.96794609  1
  O  O298  1  0.59089849  0.90237890  0.47507022  1
  O  O299  1  0.59713905  0.90328777  0.96744903  1
  O  O300  1  0.91770047  0.24808303  0.48130508  1
  O  O301  1  0.91139542  0.23751508  0.97679679  1
  O  O302  1  0.91653640  0.57673083  0.47928673  1
  O  O303  1  0.92921427  0.57012281  0.96448655  1
  O  O304  1  0.92423892  0.89572504  0.48587723  1
  O  O305  1  0.92999624  0.90224169  0.97542556  1
  O  O306  1  0.25590426  0.07013422  0.47900147  1
  O  O307  1  0.24696083  0.07983281  0.98609079  1
  O  O308  1  0.23488965  0.41100910  0.48902258  1
  O  O309  1  0.25041430  0.40740991  0.98017550  1
  O  O310  1  0.24610433  0.75049842  0.48635335  1
  O  O311  1  0.24106450  0.73950509  0.98068011  1
  O  O312  1  0.56188457  0.07258362  0.47381290  1
  O  O313  1  0.57049718  0.06752276  0.96893232  1
  O  O314  1  0.57181294  0.40588282  0.47119454  1
  O  O315  1  0.56227826  0.40787798  0.98370998  1
  O  O316  1  0.57941096  0.74545473  0.47330109  1
  O  O317  1  0.56838651  0.73847454  0.97056410  1
  O  O318  1  0.90028330  0.06532543  0.49285007  1
  O  O319  1  0.90112009  0.06849285  0.97621401  1
  O  O320  1  0.88981035  0.41395859  0.47528937  1
  O  O321  1  0.89322897  0.40035963  0.96904633  1
  O  O322  1  0.90002355  0.73450237  0.47732536  1
  O  O323  1  0.89828183  0.74694769  0.96323630  1
  O  O324  1  0.09942057  0.24833288  0.23510009  1
  O  O325  1  0.10424712  0.26920770  0.72333411  1
  O  O326  1  0.10101026  0.60588845  0.22682821  1
  O  O327  1  0.08471733  0.59917649  0.73091992  1
  O  O328  1  0.10122127  0.93548148  0.22252983  1
  O  O329  1  0.08485016  0.91727720  0.72996519  1
  O  O330  1  0.43750814  0.26807274  0.22725818  1
  O  O331  1  0.42706256  0.25597758  0.72631947  1
  O  O332  1  0.43212134  0.58366654  0.22942089  1
  O  O333  1  0.43637958  0.59358158  0.74150642  1
  O  O334  1  0.42709622  0.93334507  0.23811867  1
  O  O335  1  0.43911637  0.93253808  0.74183836  1
  O  O336  1  0.74429320  0.26171064  0.23268561  1
  O  O337  1  0.75719462  0.25784339  0.72961659  1
  O  O338  1  0.74896229  0.58285940  0.23648458  1
  O  O339  1  0.75825147  0.59639713  0.72715263  1
  O  O340  1  0.76043285  0.92624569  0.23290506  1
  O  O341  1  0.76479142  0.93930163  0.73112028  1
  O  O342  1  0.08405139  0.08917104  0.22071154  1
  O  O343  1  0.07460555  0.09321881  0.73652541  1
  O  O344  1  0.07604760  0.42842154  0.23581089  1
  O  O345  1  0.06580049  0.43818353  0.72656019  1
  O  O346  1  0.07239312  0.76989756  0.22119754  1
  O  O347  1  0.05642752  0.76166840  0.73000796  1
  O  O348  1  0.40376820  0.10098814  0.23745388  1
  O  O349  1  0.40339039  0.09446061  0.72620768  1
  O  O350  1  0.40534563  0.42537072  0.21566938  1
  O  O351  1  0.40622142  0.43791864  0.72764682  1
  O  O352  1  0.40070018  0.76752552  0.22417792  1
  O  O353  1  0.41487630  0.76415352  0.73787664  1
  O  O354  1  0.72996232  0.09982050  0.22370798  1
  O  O355  1  0.72182200  0.09798134  0.73459066  1
  O  O356  1  0.71741174  0.42521182  0.23406025  1
  O  O357  1  0.73375518  0.44064684  0.72478919  1
  O  O358  1  0.73524360  0.76109092  0.24143012  1
  O  O359  1  0.73222292  0.76048914  0.73872420  1
