# generated using pymatgen
data_BaLaInIrO6
_symmetry_space_group_name_H-M   'P 1'
_cell_length_a   17.51554931
_cell_length_b   17.54880570
_cell_length_c   16.48714265
_cell_angle_alpha   89.98569718
_cell_angle_beta   89.98100285
_cell_angle_gamma   89.99396393
_symmetry_Int_Tables_number   1
_chemical_formula_structural   BaLaInIrO6
_chemical_formula_sum   'Ba36 La36 In36 Ir36 O216'
_cell_volume   5067.76751340
_cell_formula_units_Z   36
loop_
 _symmetry_equiv_pos_site_id
 _symmetry_equiv_pos_as_xyz
  1  'x, y, z'
loop_
 _atom_site_type_symbol
 _atom_site_label
 _atom_site_symmetry_multiplicity
 _atom_site_fract_x
 _atom_site_fract_y
 _atom_site_fract_z
 _atom_site_occupancy
  Ba  Ba0  1  0.49549081  0.68006477  0.62807674  1
  Ba  Ba1  1  0.49670615  0.33882750  0.12858361  1
  Ba  Ba2  1  1.00272955  0.84149934  0.61658031  1
  Ba  Ba3  1  0.33553814  0.84259258  0.12297193  1
  Ba  Ba4  1  0.17550435  0.31971519  0.87143064  1
  Ba  Ba5  1  0.17106236  0.98974881  0.37344379  1
  Ba  Ba6  1  0.16344364  0.68093538  0.12239625  1
  Ba  Ba7  1  0.66571293  0.17355369  0.62637180  1
  Ba  Ba8  1  0.83502128  0.67212869  0.12244315  1
  Ba  Ba9  1  0.66090559  0.48710348  0.87985383  1
  Ba  Ba10  1  0.83430949  0.67280772  0.62666880  1
  Ba  Ba11  1  0.16643633  0.00794432  0.12704736  1
  Ba  Ba12  1  0.83543216  0.00590899  0.12309465  1
  Ba  Ba13  1  0.49693218  0.01071573  0.12180414  1
  Ba  Ba14  1  0.50111839  0.65198208  0.87651360  1
  Ba  Ba15  1  0.83212163  0.33902878  0.12467654  1
  Ba  Ba16  1  0.83197293  0.99121189  0.87142576  1
  Ba  Ba17  1  -0.00303494  0.82608988  0.37073484  1
  Ba  Ba18  1  0.16487942  0.66036486  0.37504514  1
  Ba  Ba19  1  0.33298060  0.15341345  0.37844360  1
  Ba  Ba20  1  0.66841572  0.16362087  0.37407894  1
  Ba  Ba21  1  0.66813585  0.82978969  0.37310024  1
  Ba  Ba22  1  -0.00562810  0.49227539  0.37687439  1
  Ba  Ba23  1  0.50012644  0.99572649  0.37256230  1
  Ba  Ba24  1  0.83573105  0.66052689  0.37797697  1
  Ba  Ba25  1  0.33599308  0.84674630  0.62498414  1
  Ba  Ba26  1  0.66726353  0.49726450  0.37590789  1
  Ba  Ba27  1  0.33364735  0.50890066  0.62988844  1
  Ba  Ba28  1  0.16717816  0.34216612  0.62518003  1
  Ba  Ba29  1  0.83328344  0.00562662  0.62439018  1
  Ba  Ba30  1  0.33170949  0.48561542  0.87442252  1
  Ba  Ba31  1  0.83149405  0.34016091  0.63057398  1
  Ba  Ba32  1  0.66891644  0.84108796  0.62398833  1
  Ba  Ba33  1  -0.00113501  0.49418657  0.87627242  1
  Ba  Ba34  1  0.16368796  0.67358780  0.62764718  1
  Ba  Ba35  1  0.49912363  0.32066544  0.37816422  1
  La  La36  1  -0.00125149  0.82368844  0.87408704  1
  La  La37  1  1.00356556  0.51478480  0.62171352  1
  La  La38  1  1.00851779  0.18302662  0.12681063  1
  La  La39  1  0.66624835  0.17980279  0.12724054  1
  La  La40  1  0.50229755  0.31640902  0.87698893  1
  La  La41  1  0.16335089  0.34869214  0.12289327  1
  La  La42  1  -0.00383553  0.15306088  0.37505741  1
  La  La43  1  0.32979275  0.82550022  0.37386442  1
  La  La44  1  0.16372832  0.01565328  0.61976173  1
  La  La45  1  0.49994807  0.01355665  0.62087453  1
  La  La46  1  1.00336048  0.84635351  0.12706585  1
  La  La47  1  0.17319426  0.64912566  0.87272898  1
  La  La48  1  0.33068993  0.82133780  0.87196327  1
  La  La49  1  0.33909957  0.17810928  0.62595410  1
  La  La50  1  0.83621508  0.31835540  0.87611219  1
  La  La51  1  0.66991939  0.51557746  0.63081661  1
  La  La52  1  0.83060382  0.32260301  0.38110278  1
  La  La53  1  0.50217501  0.65917717  0.37929261  1
  La  La54  1  0.66433229  0.51452365  0.12687902  1
  La  La55  1  0.49458751  0.67876624  0.12886929  1
  La  La56  1  1.00661248  0.51957892  0.12779175  1
  La  La57  1  0.83175721  0.65329124  0.87343272  1
  La  La58  1  0.49616655  0.34770453  0.62326583  1
  La  La59  1  0.33908105  0.51318058  0.12226934  1
  La  La60  1  -0.00226398  0.15766995  0.87310202  1
  La  La61  1  0.33940492  0.17498731  0.12572527  1
  La  La62  1  0.66380145  0.15273804  0.87636788  1
  La  La63  1  0.32298000  0.48294670  0.38191943  1
  La  La64  1  0.67251850  0.84514987  0.12080372  1
  La  La65  1  0.65880210  0.81546568  0.86943649  1
  La  La66  1  0.17360674  0.31568064  0.37665111  1
  La  La67  1  1.00684358  0.17921113  0.62261628  1
  La  La68  1  0.50514428  0.98454006  0.87242553  1
  La  La69  1  0.17288033  0.98917900  0.87259979  1
  La  La70  1  0.83629573  0.98401400  0.37902984  1
  La  La71  1  0.33214611  0.15106809  0.87419642  1
  In  In72  1  0.17049869  0.16710027  0.00062937  1
  In  In73  1  0.83199556  0.49697632  0.00178473  1
  In  In74  1  0.66795329  0.00168174  0.24517874  1
  In  In75  1  0.50149505  0.83412428  0.00005353  1
  In  In76  1  0.83287532  0.16471998  0.75119623  1
  In  In77  1  0.83314137  0.16355680  -0.00082122  1
  In  In78  1  0.33399720  -0.00107278  0.24871026  1
  In  In79  1  0.49588353  0.50116246  0.50019365  1
  In  In80  1  0.66532154  0.66656309  0.00238391  1
  In  In81  1  0.83634736  0.16546877  0.24730362  1
  In  In82  1  0.00101661  0.67189113  -0.00219639  1
  In  In83  1  0.83397208  0.83317022  0.50378309  1
  In  In84  1  0.32916540  0.33170054  0.24770623  1
  In  In85  1  0.00221137  0.00269587  -0.00322796  1
  In  In86  1  0.66481722  0.33580135  0.50590604  1
  In  In87  1  0.83585880  0.16759057  0.50322907  1
  In  In88  1  0.33450195  0.66696153  0.75123021  1
  In  In89  1  0.66387362  0.66934566  0.50003905  1
  In  In90  1  -0.00049424  0.00155160  0.24932805  1
  In  In91  1  0.33231593  0.66790962  0.50033881  1
  In  In92  1  0.33237165  0.66740536  0.00127184  1
  In  In93  1  0.83206653  0.49700426  0.50528485  1
  In  In94  1  0.00497206  -0.00070077  0.74904120  1
  In  In95  1  0.00206666  0.33463669  -0.00266199  1
  In  In96  1  0.16663761  0.83669902  0.74793568  1
  In  In97  1  0.83352283  0.49727104  0.24844194  1
  In  In98  1  0.00197676  0.66661653  0.49828469  1
  In  In99  1  0.16614108  0.49905622  0.25196956  1
  In  In100  1  0.16641499  0.49602038  0.75091696  1
  In  In101  1  0.33344701  0.66423197  0.25205073  1
  In  In102  1  0.00050223  0.33542738  0.75073684  1
  In  In103  1  0.66675995  0.00202194  0.49881856  1
  In  In104  1  -0.00001824  0.67101227  0.75445960  1
  In  In105  1  0.00129524  0.33352348  0.25236480  1
  In  In106  1  0.66602363  0.33817170  0.24961114  1
  In  In107  1  0.49452661  0.49963573  0.25130683  1
  Ir  Ir108  1  0.16804653  0.16588452  0.50021014  1
  Ir  Ir109  1  0.17027751  0.49726615  0.00326107  1
  Ir  Ir110  1  0.66224694  0.32938683  -0.00110792  1
  Ir  Ir111  1  0.49795190  0.16572685  -0.00367645  1
  Ir  Ir112  1  0.66237625  -0.00175236  0.75443747  1
  Ir  Ir113  1  0.83366581  0.82975977  0.24091183  1
  Ir  Ir114  1  0.82770889  0.49922827  0.75443452  1
  Ir  Ir115  1  0.33120074  0.00096909  0.50434120  1
  Ir  Ir116  1  0.66344386  -0.00068063  -0.00424125  1
  Ir  Ir117  1  0.16470177  0.49465671  0.49987524  1
  Ir  Ir118  1  0.66229605  0.33229642  0.75641286  1
  Ir  Ir119  1  0.50378305  0.49363644  0.75481509  1
  Ir  Ir120  1  0.66448126  0.66650750  0.75260601  1
  Ir  Ir121  1  0.82760669  0.83297369  0.75904758  1
  Ir  Ir122  1  0.17154710  0.16443787  0.74612372  1
  Ir  Ir123  1  0.16954103  0.16749455  0.24991267  1
  Ir  Ir124  1  0.33522190  0.32868974  -0.00152142  1
  Ir  Ir125  1  0.83095217  0.83465867  -0.00436433  1
  Ir  Ir126  1  0.00380851  0.00300235  0.49780476  1
  Ir  Ir127  1  0.17032751  0.83716116  0.49513606  1
  Ir  Ir128  1  0.00682611  0.32970152  0.49875722  1
  Ir  Ir129  1  0.49543269  0.83987119  0.49814697  1
  Ir  Ir130  1  0.49945799  0.16576471  0.75131903  1
  Ir  Ir131  1  0.49640301  0.16537872  0.50304657  1
  Ir  Ir132  1  0.16583306  0.83949756  -0.00092077  1
  Ir  Ir133  1  0.50220307  0.83263213  0.25152932  1
  Ir  Ir134  1  0.33719692  0.00405880  0.75022342  1
  Ir  Ir135  1  0.33062950  0.32937150  0.50456767  1
  Ir  Ir136  1  0.49966049  0.16599336  0.24795158  1
  Ir  Ir137  1  0.66183023  0.67063407  0.24876490  1
  Ir  Ir138  1  -0.00009824  0.67024539  0.24653540  1
  Ir  Ir139  1  0.34090620  0.32726627  0.75055226  1
  Ir  Ir140  1  0.16682321  0.83291989  0.24891164  1
  Ir  Ir141  1  0.49868562  0.84005129  0.74761264  1
  Ir  Ir142  1  0.49952074  0.49222576  0.00130350  1
  Ir  Ir143  1  0.33587963  0.00162625  -0.00672686  1
  O  O144  1  0.30321487  0.31358551  0.11727259  1
  O  O145  1  0.31389023  0.31451412  0.62898968  1
  O  O146  1  0.31000753  0.65417089  0.12502541  1
  O  O147  1  0.31344392  0.67319474  0.62647799  1
  O  O148  1  0.31697279  1.00134134  0.11441921  1
  O  O149  1  0.30269953  1.00276052  0.62912581  1
  O  O150  1  0.64128428  0.31652524  0.11668695  1
  O  O151  1  0.63040793  0.32702424  0.63909580  1
  O  O152  1  0.63057048  0.66631151  0.12993666  1
  O  O153  1  0.64302750  0.66163230  0.63325681  1
  O  O154  1  0.64396639  0.98246940  0.11467287  1
  O  O155  1  0.63614504  0.99512272  0.63467771  1
  O  O156  1  0.98233597  0.31692883  0.12362912  1
  O  O157  1  0.98358792  0.31751770  0.61906746  1
  O  O158  1  0.98789839  0.66641353  0.12513406  1
  O  O159  1  0.99219094  0.65512497  0.62876889  1
  O  O160  1  0.98588044  0.98453746  0.12314117  1
  O  O161  1  0.98595578  1.00038641  0.61772314  1
  O  O162  1  0.20365838  0.16239311  0.13104473  1
  O  O163  1  0.20246190  0.15759633  0.62291116  1
  O  O164  1  0.20068965  0.49442113  0.12208826  1
  O  O165  1  0.18213463  0.50237410  0.61865218  1
  O  O166  1  0.18871212  0.83578202  0.12409765  1
  O  O167  1  0.18631688  0.83563907  0.61484245  1
  O  O168  1  0.52812306  0.16437211  0.12074005  1
  O  O169  1  0.51851139  0.15216146  0.62747447  1
  O  O170  1  0.52723525  0.49180948  0.11847707  1
  O  O171  1  0.52994029  0.48882732  0.63545513  1
  O  O172  1  0.53355716  0.82295454  0.13073870  1
  O  O173  1  0.52012525  0.84043348  0.62227906  1
  O  O174  1  0.87193202  0.16365031  0.12164937  1
  O  O175  1  0.86962940  0.16598425  0.62783904  1
  O  O176  1  0.87326312  0.49506936  0.12479954  1
  O  O177  1  0.86445609  0.49422402  0.63850560  1
  O  O178  1  0.86490951  0.82899709  0.11632708  1
  O  O179  1  0.84912758  0.83401676  0.64009717  1
  O  O180  1  0.13569889  0.17535389  0.37454794  1
  O  O181  1  0.14082628  0.16347934  0.86591051  1
  O  O182  1  0.14730248  0.48936680  0.38200925  1
  O  O183  1  0.15144650  0.49776461  0.88424331  1
  O  O184  1  0.14614321  0.83490815  0.37149808  1
  O  O185  1  0.13785564  0.85119812  0.88104239  1
  O  O186  1  0.47833191  0.16601192  0.37436419  1
  O  O187  1  0.46751282  0.17558241  0.87296131  1
  O  O188  1  0.45653245  0.51420655  0.37484709  1
  O  O189  1  0.47986324  0.49149431  0.87939285  1
  O  O190  1  0.46700704  0.84004931  0.37430978  1
  O  O191  1  0.46971337  0.84605096  0.86806453  1
  O  O192  1  0.82284352  0.18546651  0.37541071  1
  O  O193  1  0.79697181  0.17582685  0.87484985  1
  O  O194  1  0.81869671  0.50214669  0.37601772  1
  O  O195  1  0.80526850  0.51374920  0.87207199  1
  O  O196  1  0.81939527  0.84150748  0.36238252  1
  O  O197  1  0.79507678  0.83591529  0.87815616  1
  O  O198  1  0.02394489  0.00964049  0.37855759  1
  O  O199  1  0.03973656  0.01305197  0.87293511  1
  O  O200  1  0.03874293  0.33654918  0.38079612  1
  O  O201  1  0.03057919  0.34003766  0.87373385  1
  O  O202  1  0.01313601  0.66733157  0.36665129  1
  O  O203  1  0.03778981  0.68625601  0.87888229  1
  O  O204  1  0.34958620  -0.00339655  0.38249507  1
  O  O205  1  0.36924216  0.01252678  0.87080486  1
  O  O206  1  0.34595079  0.34157437  0.38215359  1
  O  O207  1  0.36759225  0.33302023  0.87435999  1
  O  O208  1  0.36485423  0.68283561  0.37492629  1
  O  O209  1  0.35383218  0.68285179  0.87745111  1
  O  O210  1  0.69816791  0.00262939  0.36966338  1
  O  O211  1  0.68324518  0.01368246  0.87571351  1
  O  O212  1  0.69565102  0.33961446  0.37724344  1
  O  O213  1  0.69453243  0.33404415  0.87794684  1
  O  O214  1  0.68553382  0.67141483  0.36582382  1
  O  O215  1  0.69430025  0.67070647  0.87284804  1
  O  O216  1  0.07034928  0.10350579  0.02434473  1
  O  O217  1  0.07330297  0.09831371  0.52415643  1
  O  O218  1  0.07787478  0.43220064  0.03331009  1
  O  O219  1  0.06689331  0.42936101  0.52539298  1
  O  O220  1  0.06805969  0.77847654  0.01900759  1
  O  O221  1  0.08515141  0.76167990  0.50771019  1
  O  O222  1  0.39808383  0.10249116  0.01572172  1
  O  O223  1  0.40033962  0.09445567  0.52947159  1
  O  O224  1  0.40036541  0.42651547  0.02421462  1
  O  O225  1  0.40060691  0.41800112  0.52376165  1
  O  O226  1  0.41716223  0.75224291  0.02530629  1
  O  O227  1  0.40601471  0.77338450  0.50908080  1
  O  O228  1  0.72497054  0.09612820  0.01875516  1
  O  O229  1  0.74254570  0.09265709  0.51838330  1
  O  O230  1  0.72364925  0.42371293  0.02527615  1
  O  O231  1  0.73398496  0.43130131  0.53723245  1
  O  O232  1  0.73905962  0.76802103  0.02010156  1
  O  O233  1  0.74098921  0.75838674  0.51130324  1
  O  O234  1  0.10431749  0.26492138  0.02665970  1
  O  O235  1  0.10050863  0.25924407  0.51866444  1
  O  O236  1  0.09672095  0.58690775  0.01555493  1
  O  O237  1  0.09547787  0.58495065  0.51446953  1
  O  O238  1  0.10151639  0.93005515  0.01411979  1
  O  O239  1  0.10057171  0.93426902  0.52024864  1
  O  O240  1  0.42924014  0.25903029  0.01775353  1
  O  O241  1  0.42520550  0.25901308  0.53030776  1
  O  O242  1  0.42967612  0.58327050  0.02425434  1
  O  O243  1  0.42314548  0.59343729  0.52255464  1
  O  O244  1  0.42771660  0.93298086  0.00619733  1
  O  O245  1  0.42972333  0.93840247  0.52385573  1
  O  O246  1  0.75141278  0.25988837  0.01702386  1
  O  O247  1  0.76386742  0.26539044  0.51374630  1
  O  O248  1  0.74883411  0.58432832  0.02639611  1
  O  O249  1  0.75057952  0.58721297  0.52564543  1
  O  O250  1  0.75601997  0.92598322  0.02021906  1
  O  O251  1  0.76317812  0.92846436  0.50675677  1
  O  O252  1  0.23802760  0.07673386  0.26671033  1
  O  O253  1  0.24247154  0.07097936  0.77585638  1
  O  O254  1  0.22526545  0.39199444  0.26649467  1
  O  O255  1  0.25109708  0.40059959  0.76138103  1
  O  O256  1  0.24185134  0.74733095  0.26712940  1
  O  O257  1  0.23627835  0.74405412  0.78248107  1
  O  O258  1  0.57188230  0.07948817  0.25967790  1
  O  O259  1  0.56661872  0.06978118  0.77633702  1
  O  O260  1  0.56968868  0.40947688  0.26985465  1
  O  O261  1  0.56606545  0.39491052  0.77659619  1
  O  O262  1  0.56651531  0.73761700  0.27632660  1
  O  O263  1  0.57239426  0.74509091  0.77555188  1
  O  O264  1  0.89989516  0.06334138  0.27998772  1
  O  O265  1  0.91959806  0.08052713  0.77473956  1
  O  O266  1  0.89830716  0.39287624  0.27748067  1
  O  O267  1  0.89233631  0.40640423  0.77874397  1
  O  O268  1  0.90487877  0.73973367  0.26089256  1
  O  O269  1  0.89529105  0.74117944  0.78313719  1
  O  O270  1  0.25827143  0.23409738  0.27306047  1
  O  O271  1  0.27320713  0.22957849  0.77054257  1
  O  O272  1  0.26724568  0.56260442  0.27810113  1
  O  O273  1  0.25468729  0.57711756  0.77280599  1
  O  O274  1  0.26147796  0.90052583  0.26741290  1
  O  O275  1  0.27197015  0.91092060  0.77905960  1
  O  O276  1  0.58789536  0.23741930  0.25959866  1
  O  O277  1  0.59317419  0.23629797  0.78391246  1
  O  O278  1  0.58774476  0.58488445  0.26921699  1
  O  O279  1  0.59628570  0.56677655  0.76714197  1
  O  O280  1  0.58934339  0.90495329  0.26207136  1
  O  O281  1  0.59250792  0.90677644  0.77953789  1
  O  O282  1  0.94740021  0.22429387  0.26609874  1
  O  O283  1  0.92465505  0.24407294  0.78072697  1
  O  O284  1  0.93193417  0.57817068  0.25544529  1
  O  O285  1  0.91296896  0.57743493  0.77371695  1
  O  O286  1  0.92125743  0.90174545  0.25650595  1
  O  O287  1  0.92618820  0.89896557  0.77597883  1
  O  O288  1  0.25869868  0.23846623  0.48041393  1
  O  O289  1  0.27462982  0.23132253  0.97437837  1
  O  O290  1  0.25803176  0.56317127  0.47693368  1
  O  O291  1  0.25550108  0.57267702  0.97909174  1
  O  O292  1  0.26615526  0.90479884  0.47704057  1
  O  O293  1  0.26663646  0.90530546  0.96939862  1
  O  O294  1  0.58574404  0.23597580  0.48890051  1
  O  O295  1  0.59483119  0.23173408  0.97234074  1
  O  O296  1  0.58250605  0.58375740  0.47571749  1
  O  O297  1  0.58667778  0.56664882  0.98965283  1
  O  O298  1  0.58554063  0.90792544  0.48407734  1
  O  O299  1  0.59703969  0.90713424  0.96858880  1
  O  O300  1  0.94649058  0.23388952  0.47923368  1
  O  O301  1  0.92826774  0.23798922  0.96543706  1
  O  O302  1  0.93021525  0.56764155  0.50011857  1
  O  O303  1  0.91812466  0.58536587  0.97748470  1
  O  O304  1  0.92822085  0.91796787  0.47769716  1
  O  O305  1  0.92650132  0.89884268  0.97522708  1
  O  O306  1  0.23381257  0.06805692  0.48916557  1
  O  O307  1  0.24366365  0.06885683  0.96948359  1
  O  O308  1  0.23576653  0.39876482  0.47828278  1
  O  O309  1  0.23815125  0.39783949  0.99027727  1
  O  O310  1  0.24352120  0.75122835  0.47120876  1
  O  O311  1  0.23234438  0.74692032  0.97455042  1
  O  O312  1  0.56496496  0.07340010  0.49115858  1
  O  O313  1  0.56694719  0.07018531  0.96974879  1
  O  O314  1  0.56437323  0.40312040  0.49376102  1
  O  O315  1  0.56408296  0.39294142  0.97823196  1
  O  O316  1  0.56032213  0.74546323  0.47753877  1
  O  O317  1  0.58070693  0.74656504  0.97248989  1
  O  O318  1  0.91240881  0.07061407  0.47221490  1
  O  O319  1  0.91147859  0.07587489  0.96794286  1
  O  O320  1  0.90963903  0.39046067  0.48108276  1
  O  O321  1  0.89751476  0.39991634  0.97247368  1
  O  O322  1  0.91433968  0.74724072  0.49102118  1
  O  O323  1  0.89845459  0.74530601  0.96721094  1
  O  O324  1  0.10749204  0.26139333  0.22527880  1
  O  O325  1  0.09642724  0.24953629  0.72577858  1
  O  O326  1  0.08976471  0.59710128  0.23057099  1
  O  O327  1  0.09479692  0.59526877  0.75337087  1
  O  O328  1  0.09133259  0.91864068  0.23398662  1
  O  O329  1  0.11272670  0.94360661  0.73299554  1
  O  O330  1  0.42130027  0.25008656  0.23165369  1
  O  O331  1  0.43606511  0.26018783  0.72574831  1
  O  O332  1  0.42839201  0.59483926  0.21428472  1
  O  O333  1  0.43192985  0.58310037  0.74040166  1
  O  O334  1  0.42967695  0.92059666  0.23170373  1
  O  O335  1  0.43681774  0.94099773  0.72846343  1
  O  O336  1  0.75573337  0.25743474  0.23178781  1
  O  O337  1  0.75192929  0.26436213  0.73897936  1
  O  O338  1  0.74629045  0.59562671  0.22514447  1
  O  O339  1  0.75461549  0.59076309  0.72781221  1
  O  O340  1  0.75877552  0.91414302  0.22203230  1
  O  O341  1  0.75493436  0.92758781  0.73510134  1
  O  O342  1  0.07342678  0.10315582  0.23005512  1
  O  O343  1  0.08194199  0.09880184  0.71502954  1
  O  O344  1  0.06795598  0.43264495  0.21848178  1
  O  O345  1  0.06484448  0.43401382  0.72340252  1
  O  O346  1  0.06837933  0.76680621  0.22641180  1
  O  O347  1  0.06196008  0.77651679  0.74253201  1
  O  O348  1  0.40638581  0.09642746  0.22810063  1
  O  O349  1  0.40356830  0.09944062  0.72467466  1
  O  O350  1  0.39134166  0.43269018  0.22611852  1
  O  O351  1  0.41518981  0.41812956  0.72566951  1
  O  O352  1  0.41707659  0.75917833  0.22922815  1
  O  O353  1  0.40781718  0.77040864  0.73934371  1
  O  O354  1  0.73584428  0.09720977  0.21587598  1
  O  O355  1  0.73378326  0.08741446  0.73838578  1
  O  O356  1  0.73186343  0.43588870  0.21666040  1
  O  O357  1  0.72900158  0.42921599  0.73031509  1
  O  O358  1  0.73440686  0.76204079  0.22009582  1
  O  O359  1  0.72959302  0.76574818  0.74358505  1
