# generated using pymatgen
data_BaLaInIrO6
_symmetry_space_group_name_H-M   'P 1'
_cell_length_a   17.52892562
_cell_length_b   17.54931324
_cell_length_c   16.48517879
_cell_angle_alpha   89.96989266
_cell_angle_beta   89.98616453
_cell_angle_gamma   89.97573508
_symmetry_Int_Tables_number   1
_chemical_formula_structural   BaLaInIrO6
_chemical_formula_sum   'Ba36 La36 In36 Ir36 O216'
_cell_volume   5071.17939338
_cell_formula_units_Z   36
loop_
 _symmetry_equiv_pos_site_id
 _symmetry_equiv_pos_as_xyz
  1  'x, y, z'
loop_
 _atom_site_type_symbol
 _atom_site_label
 _atom_site_symmetry_multiplicity
 _atom_site_fract_x
 _atom_site_fract_y
 _atom_site_fract_z
 _atom_site_occupancy
  Ba  Ba0  1  0.83477229  0.65186563  0.87557180  1
  Ba  Ba1  1  0.33545238  0.50611529  0.62874310  1
  Ba  Ba2  1  0.49921095  0.99643075  0.87716124  1
  Ba  Ba3  1  0.50384360  0.65663648  0.37781122  1
  Ba  Ba4  1  0.83439481  0.98989731  0.37653736  1
  Ba  Ba5  1  0.50430309  0.32852371  0.37665755  1
  Ba  Ba6  1  0.66571299  0.49136602  0.37342047  1
  Ba  Ba7  1  0.16666846  0.00624284  0.62298945  1
  Ba  Ba8  1  0.66526217  0.17590935  0.12134716  1
  Ba  Ba9  1  0.49859348  0.00901892  0.62596914  1
  Ba  Ba10  1  0.83457913  0.32819335  0.87277661  1
  Ba  Ba11  1  0.66894672  0.49285177  0.87264253  1
  Ba  Ba12  1  -0.00218704  0.82515154  0.87361255  1
  Ba  Ba13  1  0.66820430  0.84382439  0.12639686  1
  Ba  Ba14  1  0.00059701  0.49431091  0.37291642  1
  Ba  Ba15  1  0.32535368  0.15637996  0.87650437  1
  Ba  Ba16  1  0.49781102  0.33027296  0.87297281  1
  Ba  Ba17  1  -0.00043711  0.82655019  0.37937373  1
  Ba  Ba18  1  1.00308936  0.84271739  0.12221360  1
  Ba  Ba19  1  0.33933522  0.83592566  0.12619083  1
  Ba  Ba20  1  0.16373412  0.65814219  0.87593618  1
  Ba  Ba21  1  0.66442037  0.82223683  0.87579936  1
  Ba  Ba22  1  0.16793927  0.67400862  0.12314646  1
  Ba  Ba23  1  0.17101302  0.98207368  0.38255799  1
  Ba  Ba24  1  0.66265813  0.16586005  0.87479669  1
  Ba  Ba25  1  0.33464251  0.49410989  0.87302152  1
  Ba  Ba26  1  0.50050603  0.67321518  0.62899682  1
  Ba  Ba27  1  -0.00417663  0.15911653  0.87151841  1
  Ba  Ba28  1  0.16999655  0.67145414  0.62564923  1
  Ba  Ba29  1  0.33478041  0.50961487  0.11645595  1
  Ba  Ba30  1  0.33093087  0.17548115  0.13058547  1
  Ba  Ba31  1  0.83583972  0.00894068  0.12688466  1
  Ba  Ba32  1  0.33921438  0.83702427  0.62392658  1
  Ba  Ba33  1  0.83476669  0.34608132  0.62703211  1
  Ba  Ba34  1  0.83630410  0.32661671  0.37568830  1
  Ba  Ba35  1  0.16910407  0.32595128  0.87555822  1
  La  La36  1  0.16176910  0.35017733  0.62589137  1
  La  La37  1  0.66902139  0.18456074  0.62676532  1
  La  La38  1  0.49580651  0.02016893  0.12177620  1
  La  La39  1  0.83657005  0.65175483  0.37378656  1
  La  La40  1  0.67000272  0.51341967  0.12574082  1
  La  La41  1  -0.00855360  0.49293360  0.87400807  1
  La  La42  1  1.00392121  0.17758176  0.12594152  1
  La  La43  1  0.82594544  0.67921009  0.62804003  1
  La  La44  1  0.33066456  0.81768759  0.86975912  1
  La  La45  1  0.33427220  0.17982766  0.62363209  1
  La  La46  1  0.66670902  0.84755492  0.62734612  1
  La  La47  1  0.16189889  0.34993526  0.11928586  1
  La  La48  1  0.32939254  0.49510002  0.37349353  1
  La  La49  1  0.66423880  0.16098616  0.37334378  1
  La  La50  1  0.66410505  0.81438001  0.37688713  1
  La  La51  1  0.33073055  0.14800450  0.37851994  1
  La  La52  1  0.83075800  0.34748876  0.12349500  1
  La  La53  1  1.00083609  0.51126400  0.62621492  1
  La  La54  1  0.16161315  0.00295140  0.11875315  1
  La  La55  1  0.17460108  0.31824095  0.37363132  1
  La  La56  1  0.50202275  0.98552053  0.37466547  1
  La  La57  1  0.15978777  0.66762843  0.37371104  1
  La  La58  1  1.00259689  0.51307045  0.12542716  1
  La  La59  1  0.83399078  0.98567476  0.87911444  1
  La  La60  1  0.50369994  0.65496293  0.87572526  1
  La  La61  1  0.50248436  0.67297469  0.12049479  1
  La  La62  1  1.00458939  0.84469266  0.62579542  1
  La  La63  1  1.00311299  0.18683580  0.61911540  1
  La  La64  1  -0.00606785  0.15252431  0.37290478  1
  La  La65  1  0.50055590  0.34792441  0.62567363  1
  La  La66  1  0.82640038  0.68256493  0.12280543  1
  La  La67  1  0.17293416  0.98192735  0.87164806  1
  La  La68  1  0.32983055  0.80967631  0.38107362  1
  La  La69  1  0.67440241  0.51457044  0.61933304  1
  La  La70  1  0.82736925  0.01515267  0.62594474  1
  La  La71  1  0.49859664  0.34851375  0.12427484  1
  In  In72  1  0.49574015  0.17288656  -0.00069843  1
  In  In73  1  0.49652818  0.16846018  0.74639968  1
  In  In74  1  0.33429175  0.33346555  0.49711048  1
  In  In75  1  0.33184303  0.33324112  0.74715022  1
  In  In76  1  0.50174061  0.83394675  0.00034298  1
  In  In77  1  0.66745102  0.33229673  0.24737087  1
  In  In78  1  0.33085810  -0.00359347  0.00124574  1
  In  In79  1  0.17065251  0.83105142  -0.00228168  1
  In  In80  1  0.00195485  0.33387387  0.25099540  1
  In  In81  1  -0.00321751  0.66607187  -0.00060281  1
  In  In82  1  0.66957231  0.33569413  0.50046425  1
  In  In83  1  0.16558946  0.16665296  0.49975840  1
  In  In84  1  0.16410637  0.50214378  0.49797898  1
  In  In85  1  -0.00232188  0.00036687  0.50366501  1
  In  In86  1  0.16561724  0.16491657  0.25170755  1
  In  In87  1  0.16695138  0.50173922  0.24832375  1
  In  In88  1  0.50120566  0.83103404  0.50038174  1
  In  In89  1  0.00254335  0.33361765  0.75268399  1
  In  In90  1  0.16345935  0.16404658  -0.00177877  1
  In  In91  1  0.83228287  0.16745948  0.75065283  1
  In  In92  1  -0.00159135  0.00279088  0.74788241  1
  In  In93  1  0.49860857  0.50070083  0.25173002  1
  In  In94  1  0.00031017  0.00440543  -0.00439958  1
  In  In95  1  0.66632670  0.00269678  0.00024268  1
  In  In96  1  0.66695125  0.00169202  0.49902654  1
  In  In97  1  -0.00246631  0.66757392  0.74677141  1
  In  In98  1  0.33426408  0.66351977  0.74998606  1
  In  In99  1  -0.00361543  0.66944472  0.24829337  1
  In  In100  1  0.17194557  0.83363714  0.25016369  1
  In  In101  1  0.83254501  0.83353756  0.25457390  1
  In  In102  1  0.66628733  0.00315793  0.75021322  1
  In  In103  1  0.50077838  0.83392470  0.25189283  1
  In  In104  1  0.33226413  0.33380223  0.00236416  1
  In  In105  1  0.66561111  0.00174359  0.25316556  1
  In  In106  1  0.33282613  -0.00452794  0.25286191  1
  In  In107  1  0.00199868  0.00093583  0.25055851  1
  Ir  Ir108  1  0.83506787  0.16966542  0.49962501  1
  Ir  Ir109  1  0.83726137  0.50359513  0.50066766  1
  Ir  Ir110  1  0.66550037  0.66830655  0.74957230  1
  Ir  Ir111  1  0.49560964  0.16973563  0.25798632  1
  Ir  Ir112  1  0.83038165  0.83175938  -0.00407779  1
  Ir  Ir113  1  0.83444404  0.17176717  0.00238115  1
  Ir  Ir114  1  -0.00544231  0.33562675  0.00493601  1
  Ir  Ir115  1  0.32998277  -0.00196111  0.74482902  1
  Ir  Ir116  1  0.16224245  0.49999270  0.74940899  1
  Ir  Ir117  1  0.00199978  0.33723865  0.49990362  1
  Ir  Ir118  1  0.66692778  0.33833975  -0.00060126  1
  Ir  Ir119  1  0.33398809  0.33509545  0.25279978  1
  Ir  Ir120  1  0.83419550  0.49655256  0.00350558  1
  Ir  Ir121  1  0.33664950  0.65828334  0.49706313  1
  Ir  Ir122  1  0.16201175  0.49943597  -0.00179304  1
  Ir  Ir123  1  -0.00642887  0.66675335  0.50281075  1
  Ir  Ir124  1  0.67009869  0.66384448  0.24985436  1
  Ir  Ir125  1  0.33852420  0.66251885  0.00097539  1
  Ir  Ir126  1  0.33775792  -0.00054686  0.50324181  1
  Ir  Ir127  1  0.16759570  0.16479327  0.74319142  1
  Ir  Ir128  1  0.50818956  0.50130200  -0.00108117  1
  Ir  Ir129  1  0.83158504  0.82838962  0.50675402  1
  Ir  Ir130  1  0.83342395  0.50103186  0.24732026  1
  Ir  Ir131  1  0.83374218  0.17110390  0.25075449  1
  Ir  Ir132  1  0.49908238  0.83292212  0.75259087  1
  Ir  Ir133  1  0.66856196  0.66223614  -0.00045906  1
  Ir  Ir134  1  0.50796787  0.50162103  0.74958661  1
  Ir  Ir135  1  0.16820407  0.82525116  0.50512253  1
  Ir  Ir136  1  0.33706753  0.66073145  0.24995567  1
  Ir  Ir137  1  0.67162407  0.66532429  0.50280217  1
  Ir  Ir138  1  0.83305600  0.50049821  0.74783921  1
  Ir  Ir139  1  0.49957235  0.16631376  0.49914259  1
  Ir  Ir140  1  0.66518258  0.33881058  0.74853456  1
  Ir  Ir141  1  0.50160163  0.50143887  0.50462582  1
  Ir  Ir142  1  0.16759358  0.83308571  0.74407839  1
  Ir  Ir143  1  0.83259938  0.83108069  0.74573345  1
  O  O144  1  0.30033674  0.33323771  0.13532975  1
  O  O145  1  0.29745906  0.32852892  0.62135621  1
  O  O146  1  0.31690583  0.66949947  0.12711893  1
  O  O147  1  0.32191600  0.66671201  0.61888603  1
  O  O148  1  0.29528406  0.99286275  0.12886035  1
  O  O149  1  0.31272152  0.99060684  0.62376988  1
  O  O150  1  0.63815144  0.33629768  0.11816499  1
  O  O151  1  0.63962146  0.33108422  0.62720857  1
  O  O152  1  0.64020702  0.65462671  0.12486202  1
  O  O153  1  0.64703759  0.65279574  0.62657183  1
  O  O154  1  0.63288235  1.00185079  0.12962105  1
  O  O155  1  0.64862758  0.98421706  0.62295754  1
  O  O156  1  0.96631185  0.32033861  0.12373288  1
  O  O157  1  0.98310930  0.32873919  0.61963351  1
  O  O158  1  0.96176074  0.65443502  0.12258037  1
  O  O159  1  0.96276154  0.65352248  0.62104783  1
  O  O160  1  0.98990481  1.00133200  0.12261459  1
  O  O161  1  0.96388075  0.98612065  0.62498926  1
  O  O162  1  0.18079364  0.13963880  0.12690570  1
  O  O163  1  0.19769074  0.16460443  0.62555686  1
  O  O164  1  0.18553773  0.49227359  0.11797678  1
  O  O165  1  0.18424468  0.49269081  0.62783531  1
  O  O166  1  0.19021056  0.83699696  0.12381686  1
  O  O167  1  0.19020325  0.82900189  0.62504476  1
  O  O168  1  0.51498669  0.15924541  0.13871407  1
  O  O169  1  0.53350688  0.16271497  0.61569282  1
  O  O170  1  0.53163814  0.49245532  0.11935886  1
  O  O171  1  0.53695642  0.49502209  0.62753812  1
  O  O172  1  0.51817218  0.80758327  0.12824584  1
  O  O173  1  0.52780450  0.82876689  0.62967558  1
  O  O174  1  0.86611273  0.16881048  0.12819138  1
  O  O175  1  0.86807565  0.15972286  0.61738994  1
  O  O176  1  0.86483244  0.49042404  0.12549546  1
  O  O177  1  0.86487029  0.50253301  0.62441465  1
  O  O178  1  0.84890387  0.82039453  0.11749831  1
  O  O179  1  0.86566132  0.81629764  0.62584281  1
  O  O180  1  0.12998108  0.18434213  0.37719983  1
  O  O181  1  0.14659571  0.16835659  0.86143319  1
  O  O182  1  0.15118446  0.52778250  0.37382465  1
  O  O183  1  0.12943266  0.50125505  0.87319381  1
  O  O184  1  0.15197358  0.81866701  0.38505551  1
  O  O185  1  0.14787526  0.83810340  0.86276878  1
  O  O186  1  0.46590644  0.17702457  0.38014734  1
  O  O187  1  0.47476813  0.17765468  0.87170600  1
  O  O188  1  0.46934871  0.50118261  0.38283887  1
  O  O189  1  0.48477301  0.51430876  0.87487145  1
  O  O190  1  0.46598408  0.84355625  0.37649196  1
  O  O191  1  0.46900772  0.83388737  0.87213582  1
  O  O192  1  0.80189129  0.17546232  0.37515549  1
  O  O193  1  0.81328457  0.17586075  0.88203450  1
  O  O194  1  0.81034486  0.51324659  0.37309207  1
  O  O195  1  0.81512615  0.49613937  0.87575901  1
  O  O196  1  0.79920148  0.83182579  0.38869268  1
  O  O197  1  0.81004176  0.84687317  0.86874043  1
  O  O198  1  0.01723814  0.01121427  0.37983885  1
  O  O199  1  0.03279830  0.00137317  0.86951213  1
  O  O200  1  0.03419884  0.34058561  0.38086236  1
  O  O201  1  0.01647722  0.35111803  0.88303360  1
  O  O202  1  0.02317969  0.67012252  0.38363407  1
  O  O203  1  0.01019051  0.65868538  0.87238791  1
  O  O204  1  0.36711475  0.01016353  0.38500655  1
  O  O205  1  0.34815714  0.00206462  0.86223167  1
  O  O206  1  0.35779164  0.35388723  0.37057474  1
  O  O207  1  0.34543329  0.33619542  0.87330565  1
  O  O208  1  0.35493596  0.64410111  0.37249340  1
  O  O209  1  0.36453351  0.66615731  0.87965488  1
  O  O210  1  0.68900815  0.02607614  0.37803429  1
  O  O211  1  0.70144085  0.00726543  0.87301959  1
  O  O212  1  0.68434628  0.33056219  0.37514681  1
  O  O213  1  0.68876729  0.33810157  0.87342019  1
  O  O214  1  0.70104018  0.67287148  0.37697258  1
  O  O215  1  0.68991392  0.66735982  0.87419198  1
  O  O216  1  0.05718087  0.11094855  0.01575853  1
  O  O217  1  0.06663099  0.10060008  0.52545790  1
  O  O218  1  0.06461556  0.43000877  0.02750637  1
  O  O219  1  0.06672363  0.42981657  0.52719492  1
  O  O220  1  0.07736074  0.75488274  0.01143305  1
  O  O221  1  0.06540849  0.75876655  0.52912185  1
  O  O222  1  0.40647944  0.09019409  0.02195594  1
  O  O223  1  0.39875301  0.10188613  0.52139285  1
  O  O224  1  0.41976552  0.42904934  0.01488928  1
  O  O225  1  0.41713138  0.42423134  0.52748571  1
  O  O226  1  0.41173955  0.74706371  0.01639115  1
  O  O227  1  0.40474624  0.75183115  0.50251671  1
  O  O228  1  0.74869596  0.10081079  0.01929662  1
  O  O229  1  0.74348514  0.10089409  0.52775858  1
  O  O230  1  0.73744602  0.43084037  0.02908797  1
  O  O231  1  0.74371584  0.43556944  0.52220384  1
  O  O232  1  0.73972826  0.75241332  0.02023673  1
  O  O233  1  0.73658075  0.76162815  0.53209963  1
  O  O234  1  0.08786433  0.27169479  0.02648298  1
  O  O235  1  0.09587017  0.27246252  0.52496647  1
  O  O236  1  0.08861609  0.58293465  0.02157831  1
  O  O237  1  0.08184937  0.59431636  0.52333835  1
  O  O238  1  0.10298028  0.93479298  0.00776973  1
  O  O239  1  0.09068534  0.91263032  0.52141599  1
  O  O240  1  0.43033546  0.26922797  0.03324192  1
  O  O241  1  0.43337049  0.25916076  0.52661962  1
  O  O242  1  0.44055392  0.59576188  0.01917251  1
  O  O243  1  0.43038608  0.59075373  0.52040505  1
  O  O244  1  0.43196632  0.93024748  0.02869060  1
  O  O245  1  0.42821123  0.93098307  0.51485505  1
  O  O246  1  0.76467985  0.27113040  0.02459108  1
  O  O247  1  0.76100286  0.25444708  0.52555481  1
  O  O248  1  0.76639009  0.59222647  0.02806359  1
  O  O249  1  0.76662752  0.59622959  0.52649868  1
  O  O250  1  0.76363601  0.92285408  0.01212434  1
  O  O251  1  0.76730985  0.92210883  0.53229425  1
  O  O252  1  0.24597461  0.07763215  0.28646210  1
  O  O253  1  0.23066464  0.06298157  0.76490507  1
  O  O254  1  0.23821025  0.40127895  0.27624407  1
  O  O255  1  0.23412487  0.41188524  0.76075082  1
  O  O256  1  0.24298676  0.72499165  0.27737925  1
  O  O257  1  0.24465511  0.74743025  0.76910690  1
  O  O258  1  0.56109507  0.07695874  0.28220185  1
  O  O259  1  0.57352869  0.07798706  0.76414118  1
  O  O260  1  0.57258956  0.40689597  0.25847839  1
  O  O261  1  0.57585299  0.40996016  0.76348142  1
  O  O262  1  0.58446108  0.73847774  0.27491705  1
  O  O263  1  0.56787333  0.73701873  0.77604642  1
  O  O264  1  0.89968931  0.08159437  0.27189484  1
  O  O265  1  0.89247273  0.06152747  0.76943638  1
  O  O266  1  0.90282655  0.41040204  0.26291723  1
  O  O267  1  0.90957803  0.41542978  0.76510628  1
  O  O268  1  0.89557915  0.73176799  0.27407009  1
  O  O269  1  0.89515978  0.73663897  0.75964677  1
  O  O270  1  0.26776546  0.24364673  0.28297257  1
  O  O271  1  0.26071220  0.22979361  0.75740175  1
  O  O272  1  0.27448311  0.56414564  0.25965127  1
  O  O273  1  0.25027936  0.57428535  0.76564752  1
  O  O274  1  0.27465753  0.89223432  0.28505305  1
  O  O275  1  0.26194587  0.90216028  0.77124703  1
  O  O276  1  0.59298520  0.23189049  0.27202528  1
  O  O277  1  0.59437875  0.24990705  0.75692361  1
  O  O278  1  0.59952752  0.57417958  0.26034599  1
  O  O279  1  0.58974430  0.58304564  0.77594641  1
  O  O280  1  0.59597483  0.90423199  0.29006767  1
  O  O281  1  0.59097121  0.90025686  0.76158572  1
  O  O282  1  0.93042877  0.23490819  0.27398820  1
  O  O283  1  0.92864403  0.24044815  0.75302439  1
  O  O284  1  0.91927078  0.57216725  0.26826113  1
  O  O285  1  0.92748070  0.56388292  0.76562096  1
  O  O286  1  0.92838101  0.90504983  0.26390457  1
  O  O287  1  0.92289757  0.89782462  0.76220320  1
  O  O288  1  0.26387648  0.23619681  0.47024612  1
  O  O289  1  0.25235353  0.24293220  0.99198188  1
  O  O290  1  0.27101892  0.56494357  0.48610902  1
  O  O291  1  0.25378181  0.57121079  0.97824071  1
  O  O292  1  0.27003208  0.89667975  0.48078281  1
  O  O293  1  0.26724571  0.89848794  0.96259912  1
  O  O294  1  0.59646542  0.22924577  0.48156365  1
  O  O295  1  0.59527765  0.25255163  0.98435924  1
  O  O296  1  0.60113406  0.57147435  0.48617620  1
  O  O297  1  0.60308586  0.56870637  0.98864235  1
  O  O298  1  0.60042398  0.90047134  0.47464864  1
  O  O299  1  0.59495247  0.90587610  0.98336916  1
  O  O300  1  0.93540750  0.23756055  0.47772886  1
  O  O301  1  0.92773428  0.24147885  0.98390349  1
  O  O302  1  0.92411709  0.57781414  0.47430933  1
  O  O303  1  0.93049259  0.55715208  0.98313479  1
  O  O304  1  0.92141850  0.89653248  0.49058363  1
  O  O305  1  0.91688409  0.90793802  0.97851861  1
  O  O306  1  0.24814553  0.07113015  0.48415492  1
  O  O307  1  0.22587015  0.05907634  0.97594502  1
  O  O308  1  0.23278383  0.40329135  0.47270163  1
  O  O309  1  0.23476233  0.41199545  0.98755169  1
  O  O310  1  0.24094959  0.72684480  0.47474851  1
  O  O311  1  0.25382785  0.73629262  0.97695698  1
  O  O312  1  0.56195640  0.07303471  0.47327915  1
  O  O313  1  0.57446112  0.08168300  0.99139612  1
  O  O314  1  0.57192267  0.41226849  0.49213531  1
  O  O315  1  0.57463958  0.40711598  0.98063793  1
  O  O316  1  0.58514543  0.73909981  0.48050134  1
  O  O317  1  0.57132750  0.72473317  0.98114735  1
  O  O318  1  0.90333876  0.08185988  0.47959262  1
  O  O319  1  0.89632788  0.07584437  0.97605331  1
  O  O320  1  0.90818610  0.40965514  0.48177445  1
  O  O321  1  0.89888746  0.40116657  0.99016834  1
  O  O322  1  0.89433707  0.73100900  0.48125117  1
  O  O323  1  0.89825453  0.74144697  0.98477674  1
  O  O324  1  0.10419476  0.27023206  0.22078025  1
  O  O325  1  0.10309989  0.26128098  0.72139950  1
  O  O326  1  0.08567019  0.59001212  0.22750735  1
  O  O327  1  0.08709474  0.58378522  0.72565197  1
  O  O328  1  0.10799291  0.93812643  0.23618592  1
  O  O329  1  0.09049529  0.91856007  0.72407882  1
  O  O330  1  0.43255173  0.26974205  0.22961611  1
  O  O331  1  0.42402819  0.25952370  0.70789605  1
  O  O332  1  0.43398133  0.60023599  0.22342463  1
  O  O333  1  0.43119423  0.58634278  0.74017383  1
  O  O334  1  0.44124896  0.94124770  0.22903983  1
  O  O335  1  0.42802516  0.92578663  0.73107795  1
  O  O336  1  0.77062229  0.26627148  0.22483571  1
  O  O337  1  0.74989310  0.26226563  0.72884495  1
  O  O338  1  0.76292459  0.59345591  0.22002321  1
  O  O339  1  0.75946786  0.59465009  0.72212406  1
  O  O340  1  0.75763562  0.92501104  0.23674404  1
  O  O341  1  0.76723501  0.92379258  0.72184081  1
  O  O342  1  0.05532560  0.11150791  0.24176896  1
  O  O343  1  0.06841416  0.10495810  0.71861741  1
  O  O344  1  0.07159549  0.42859414  0.21825576  1
  O  O345  1  0.07287467  0.42881598  0.72363851  1
  O  O346  1  0.07673432  0.75845910  0.23862898  1
  O  O347  1  0.07356434  0.76334045  0.72314177  1
  O  O348  1  0.40530585  0.10248325  0.24483297  1
  O  O349  1  0.39211899  0.09476222  0.72114313  1
  O  O350  1  0.40397466  0.42340670  0.22608969  1
  O  O351  1  0.42421838  0.42208640  0.72787164  1
  O  O352  1  0.40142006  0.75494258  0.25042734  1
  O  O353  1  0.41096284  0.76076928  0.74175186  1
  O  O354  1  0.73984794  0.10695017  0.23794051  1
  O  O355  1  0.74001341  0.09738052  0.71107528  1
  O  O356  1  0.74278891  0.43198974  0.22101713  1
  O  O357  1  0.73553282  0.43494016  0.72414236  1
  O  O358  1  0.73966889  0.75181922  0.23235837  1
  O  O359  1  0.73561187  0.76203728  0.71975405  1
