# generated using pymatgen
data_BaLaInIrO6
_symmetry_space_group_name_H-M   'P 1'
_cell_length_a   17.52119012
_cell_length_b   17.55712128
_cell_length_c   16.53047463
_cell_angle_alpha   89.96907044
_cell_angle_beta   89.97915137
_cell_angle_gamma   89.98786918
_symmetry_Int_Tables_number   1
_chemical_formula_structural   BaLaInIrO6
_chemical_formula_sum   'Ba36 La36 In36 Ir36 O216'
_cell_volume   5085.13085606
_cell_formula_units_Z   36
loop_
 _symmetry_equiv_pos_site_id
 _symmetry_equiv_pos_as_xyz
  1  'x, y, z'
loop_
 _atom_site_type_symbol
 _atom_site_label
 _atom_site_symmetry_multiplicity
 _atom_site_fract_x
 _atom_site_fract_y
 _atom_site_fract_z
 _atom_site_occupancy
  Ba  Ba0  1  0.33059711  0.48550757  0.37797031  1
  Ba  Ba1  1  1.00381959  0.83954589  0.12521395  1
  Ba  Ba2  1  0.49921316  0.00643345  0.62509992  1
  Ba  Ba3  1  0.83525000  0.65545976  0.37265455  1
  Ba  Ba4  1  0.50114301  0.32022009  0.37596789  1
  Ba  Ba5  1  -0.00417136  0.82551857  0.87098411  1
  Ba  Ba6  1  0.16793284  0.65380252  0.37839909  1
  Ba  Ba7  1  -0.00427580  0.49224112  0.37224080  1
  Ba  Ba8  1  0.66608070  0.49034133  0.37845802  1
  Ba  Ba9  1  0.99899090  0.50460652  0.12215778  1
  Ba  Ba10  1  0.16184498  0.67108028  0.12935739  1
  Ba  Ba11  1  0.33199849  0.16051614  0.37296503  1
  Ba  Ba12  1  0.83391268  0.01321056  0.63035549  1
  Ba  Ba13  1  0.83425586  0.65756654  0.87135108  1
  Ba  Ba14  1  0.16694540  0.34370934  0.62410253  1
  Ba  Ba15  1  0.16343766  0.67733179  0.62072191  1
  Ba  Ba16  1  0.66220732  0.15903409  0.37469857  1
  Ba  Ba17  1  0.33325003  0.84891592  0.62265850  1
  Ba  Ba18  1  -0.00155372  0.49249760  0.87148111  1
  Ba  Ba19  1  0.83356641  0.32041307  0.37363140  1
  Ba  Ba20  1  0.49742843  0.67422483  0.62187665  1
  Ba  Ba21  1  0.83401572  0.34084920  0.12697402  1
  Ba  Ba22  1  0.33676216  0.50873244  0.12917812  1
  Ba  Ba23  1  0.67083734  0.49342741  0.87100328  1
  Ba  Ba24  1  0.66802900  0.82399664  0.37335453  1
  Ba  Ba25  1  0.83503030  0.67526963  0.62062200  1
  Ba  Ba26  1  1.00399618  0.17979787  0.62772919  1
  Ba  Ba27  1  0.83394285  0.33112796  0.87967540  1
  Ba  Ba28  1  0.33375527  0.83993234  0.12818552  1
  Ba  Ba29  1  0.83529537  0.67067619  0.12431538  1
  Ba  Ba30  1  0.83067184  0.00597343  0.12685417  1
  Ba  Ba31  1  0.50017738  0.00927610  0.12181077  1
  Ba  Ba32  1  0.67056110  0.50565110  0.12347911  1
  Ba  Ba33  1  0.00154787  0.15978611  0.38108132  1
  Ba  Ba34  1  0.16462404  0.01524655  0.63076693  1
  Ba  Ba35  1  0.66597064  0.82481059  0.87272787  1
  La  La36  1  0.49395148  0.68076881  0.12368524  1
  La  La37  1  0.50710566  0.65156186  0.87395148  1
  La  La38  1  0.67465850  0.18259684  0.13030786  1
  La  La39  1  0.33285158  0.17669471  0.61732603  1
  La  La40  1  0.66922688  0.51290551  0.62499388  1
  La  La41  1  -0.00504994  0.16001539  0.87395199  1
  La  La42  1  0.83694473  0.34411201  0.62295372  1
  La  La43  1  0.32827688  0.81700505  0.86920785  1
  La  La44  1  0.66969255  0.17984029  0.62215027  1
  La  La45  1  0.67699259  0.84683567  0.12647897  1
  La  La46  1  1.00371536  0.51260441  0.62115717  1
  La  La47  1  0.16990738  0.32244161  0.37985080  1
  La  La48  1  0.50711097  0.31835193  0.87683890  1
  La  La49  1  0.50104197  0.98761854  0.37410246  1
  La  La50  1  0.33765346  0.18675975  0.12373880  1
  La  La51  1  0.33411691  0.51682603  0.62223925  1
  La  La52  1  0.16135013  0.34594882  0.13340190  1
  La  La53  1  0.49148198  0.34595370  0.61911967  1
  La  La54  1  0.67443217  0.85412408  0.61763081  1
  La  La55  1  0.50561204  0.64966872  0.37176569  1
  La  La56  1  0.17002129  0.64721680  0.87413172  1
  La  La57  1  0.49840441  0.98318541  0.87354821  1
  La  La58  1  0.15780562  0.01632337  0.12407462  1
  La  La59  1  0.32673954  0.48228328  0.87253603  1
  La  La60  1  0.17524177  0.98559972  0.37943921  1
  La  La61  1  0.16883419  0.98428886  0.87446958  1
  La  La62  1  0.83933724  0.98884051  0.38081850  1
  La  La63  1  0.83894766  0.98517631  0.87713428  1
  La  La64  1  0.66438745  0.15610652  0.87501185  1
  La  La65  1  -0.00337230  0.81651695  0.37454858  1
  La  La66  1  0.16659548  0.32095679  0.87377722  1
  La  La67  1  0.99261217  0.17563390  0.13387146  1
  La  La68  1  0.32647555  0.15107386  0.87226843  1
  La  La69  1  0.33057218  0.81865870  0.38217881  1
  La  La70  1  0.49968735  0.34680777  0.13178286  1
  La  La71  1  1.01011166  0.85166013  0.62087068  1
  In  In72  1  0.66421647  0.33260685  -0.00128290  1
  In  In73  1  0.66300651  0.00374370  -0.00002631  1
  In  In74  1  0.00457708  0.33055078  0.00010129  1
  In  In75  1  0.17062775  0.83221032  -0.00211342  1
  In  In76  1  0.49771636  0.16626955  0.74895235  1
  In  In77  1  0.83316017  0.83230047  0.00090594  1
  In  In78  1  0.33152781  0.00129985  0.24889506  1
  In  In79  1  0.33497090  0.33119796  0.74948173  1
  In  In80  1  0.16779970  0.16645574  0.25074301  1
  In  In81  1  0.83444208  0.50050378  -0.00134986  1
  In  In82  1  0.00190812  0.00508876  -0.00022113  1
  In  In83  1  0.83201942  0.83318440  0.74580072  1
  In  In84  1  0.83269170  0.49803817  0.50004193  1
  In  In85  1  0.16974525  0.83487538  0.25218560  1
  In  In86  1  0.49660714  0.49635841  0.74858761  1
  In  In87  1  0.66540307  0.00414332  0.75133053  1
  In  In88  1  0.33467627  0.66422403  -0.00177551  1
  In  In89  1  0.17087291  0.49566478  0.00107368  1
  In  In90  1  0.66667469  0.66965014  0.49908379  1
  In  In91  1  0.33088167  0.00042468  0.00076160  1
  In  In92  1  0.66368177  0.66689767  0.00176231  1
  In  In93  1  0.33364900  0.66376440  0.25233595  1
  In  In94  1  0.49982543  0.16455098  0.24566718  1
  In  In95  1  0.50011749  0.83039856  0.74861089  1
  In  In96  1  0.00123957  0.33309763  0.49951732  1
  In  In97  1  0.00048267  0.00712000  0.75117371  1
  In  In98  1  0.16627333  0.83252815  0.74787547  1
  In  In99  1  0.00043457  0.66778044  0.74823327  1
  In  In100  1  0.83045600  0.16627649  -0.00153125  1
  In  In101  1  0.50090215  0.83241763  0.49906511  1
  In  In102  1  0.00244523  0.00173927  0.25389004  1
  In  In103  1  0.83435067  0.83210339  0.25331336  1
  In  In104  1  0.50176605  0.83473008  0.24745785  1
  In  In105  1  0.66394603  0.33261618  0.50331301  1
  In  In106  1  0.00082958  0.66335682  0.24955750  1
  In  In107  1  0.49699849  0.49834268  -0.00106384  1
  Ir  Ir108  1  0.83052396  0.49586558  0.25033565  1
  Ir  Ir109  1  0.33427915  0.66455794  0.74965869  1
  Ir  Ir110  1  0.33223738  0.33412303  0.24799517  1
  Ir  Ir111  1  0.16780582  0.49823146  0.50160674  1
  Ir  Ir112  1  0.83102455  0.16372394  0.25686301  1
  Ir  Ir113  1  0.50236958  0.49689142  0.25218551  1
  Ir  Ir114  1  0.00106585  0.33488185  0.74983857  1
  Ir  Ir115  1  0.83291201  0.16431728  0.50357491  1
  Ir  Ir116  1  0.16939926  0.16630670  0.50304834  1
  Ir  Ir117  1  0.66511195  0.33169335  0.25128433  1
  Ir  Ir118  1  0.00096690  0.66810694  0.50103400  1
  Ir  Ir119  1  0.16557545  0.83722627  0.49896230  1
  Ir  Ir120  1  0.00542180  0.66665421  -0.00358587  1
  Ir  Ir121  1  0.82886489  0.17549641  0.74833536  1
  Ir  Ir122  1  0.17068911  0.17024405  -0.00067337  1
  Ir  Ir123  1  0.83982038  0.83915506  0.50117623  1
  Ir  Ir124  1  0.16620731  0.49227492  0.25619599  1
  Ir  Ir125  1  0.16629456  0.17154984  0.75689312  1
  Ir  Ir126  1  0.33327753  0.66554867  0.50251580  1
  Ir  Ir127  1  0.66393639  0.66382398  0.74641469  1
  Ir  Ir128  1  0.33520051  0.00466488  0.50137967  1
  Ir  Ir129  1  0.49840981  0.83406688  -0.00337024  1
  Ir  Ir130  1  0.33199695  0.00670275  0.74992310  1
  Ir  Ir131  1  0.66407070  0.33022030  0.74769407  1
  Ir  Ir132  1  0.00176905  0.33111310  0.25112789  1
  Ir  Ir133  1  0.66751310  0.00072604  0.25494360  1
  Ir  Ir134  1  0.49604037  0.49700352  0.50012645  1
  Ir  Ir135  1  0.66188640  0.66150570  0.24975439  1
  Ir  Ir136  1  0.33269400  0.32964548  0.49941300  1
  Ir  Ir137  1  0.00491505  0.00184055  0.49881737  1
  Ir  Ir138  1  0.66911672  0.00342453  0.49693286  1
  Ir  Ir139  1  0.83403232  0.49457693  0.74381781  1
  Ir  Ir140  1  0.49569323  0.16926538  -0.00223966  1
  Ir  Ir141  1  0.16787721  0.49778327  0.74766245  1
  Ir  Ir142  1  0.33621456  0.32969895  -0.00122832  1
  Ir  Ir143  1  0.50149164  0.16160434  0.50115468  1
  O  O144  1  0.30096918  0.32629627  0.12208633  1
  O  O145  1  0.31546210  0.31672474  0.61934889  1
  O  O146  1  0.31100046  0.66436438  0.12528297  1
  O  O147  1  0.30838602  0.65463712  0.62689107  1
  O  O148  1  0.29297617  0.99418928  0.12296626  1
  O  O149  1  0.31157747  1.00676529  0.62508220  1
  O  O150  1  0.63794189  0.32605927  0.12955655  1
  O  O151  1  0.63015028  0.32021510  0.63125936  1
  O  O152  1  0.62891948  0.65915384  0.13224797  1
  O  O153  1  0.64554461  0.65269449  0.62756378  1
  O  O154  1  0.64794615  0.98976571  0.13491479  1
  O  O155  1  0.64840138  0.99789509  0.61748127  1
  O  O156  1  0.98620046  0.31637533  0.13150098  1
  O  O157  1  0.97593199  0.33334946  0.63033130  1
  O  O158  1  0.99156768  0.66440002  0.11795143  1
  O  O159  1  0.98730519  0.65418527  0.61959485  1
  O  O160  1  0.98324865  1.00933194  0.12588318  1
  O  O161  1  0.98354867  0.99590826  0.61882846  1
  O  O162  1  0.20332562  0.15678615  0.11755941  1
  O  O163  1  0.19773496  0.16744292  0.63175493  1
  O  O164  1  0.18723176  0.48838869  0.13474625  1
  O  O165  1  0.19752601  0.49907544  0.62479239  1
  O  O166  1  0.18554859  0.82478554  0.12404639  1
  O  O167  1  0.18632078  0.83403962  0.61826408  1
  O  O168  1  0.53379273  0.16532237  0.11486953  1
  O  O169  1  0.53000296  0.15835732  0.62054799  1
  O  O170  1  0.51923571  0.48398014  0.13154437  1
  O  O171  1  0.52700358  0.48670470  0.62035923  1
  O  O172  1  0.53640128  0.82540536  0.11598146  1
  O  O173  1  0.53500781  0.83437727  0.62353267  1
  O  O174  1  0.85664517  0.16246641  0.13587012  1
  O  O175  1  0.85547930  0.16951653  0.62675283  1
  O  O176  1  0.84519738  0.49745303  0.13163667  1
  O  O177  1  0.86303009  0.48621854  0.62696857  1
  O  O178  1  0.84934132  0.83735995  0.12827437  1
  O  O179  1  0.87139939  0.83761514  0.61801598  1
  O  O180  1  0.15444357  0.18191154  0.38185992  1
  O  O181  1  0.13465985  0.18399957  0.87919899  1
  O  O182  1  0.14470768  0.48692900  0.38012312  1
  O  O183  1  0.14999054  0.50074050  0.86732409  1
  O  O184  1  0.13346325  0.84809984  0.38315286  1
  O  O185  1  0.14535868  0.84792147  0.87233566  1
  O  O186  1  0.48267575  0.16320210  0.38022128  1
  O  O187  1  0.46131651  0.18295148  0.88017932  1
  O  O188  1  0.47695084  0.51124625  0.37660960  1
  O  O189  1  0.46193816  0.50810813  0.87237586  1
  O  O190  1  0.47089167  0.84783210  0.37538628  1
  O  O191  1  0.46511874  0.84028724  0.87734010  1
  O  O192  1  0.80975298  0.16264354  0.38248027  1
  O  O193  1  0.79842096  0.18126528  0.86582455  1
  O  O194  1  0.81786280  0.49535768  0.37044500  1
  O  O195  1  0.82127429  0.49873867  0.86300509  1
  O  O196  1  0.81563894  0.84403529  0.38303755  1
  O  O197  1  0.81381950  0.84279702  0.87344778  1
  O  O198  1  0.03707176  0.00707468  0.38238525  1
  O  O199  1  0.03534312  0.02373334  0.87611181  1
  O  O200  1  0.03047275  0.33502543  0.37100402  1
  O  O201  1  0.02989175  0.33447410  0.86947389  1
  O  O202  1  0.01642630  0.67142983  0.38212483  1
  O  O203  1  0.03180459  0.66604165  0.87489016  1
  O  O204  1  0.36528238  0.00951766  0.38394425  1
  O  O205  1  0.36170566  0.01715279  0.86932650  1
  O  O206  1  0.35369412  0.33117516  0.37256334  1
  O  O207  1  0.36984870  0.33999217  0.87918909  1
  O  O208  1  0.36665659  0.67047896  0.38354681  1
  O  O209  1  0.36889284  0.67275895  0.86719180  1
  O  O210  1  0.70030822  0.00594555  0.37618769  1
  O  O211  1  0.70358706  0.01875589  0.87415028  1
  O  O212  1  0.68156742  0.33058657  0.37349828  1
  O  O213  1  0.68281179  0.33159285  0.86533087  1
  O  O214  1  0.68480818  0.66268666  0.36834681  1
  O  O215  1  0.68242693  0.66758359  0.86402827  1
  O  O216  1  0.07451933  0.11278047  0.02706843  1
  O  O217  1  0.07611393  0.09603702  0.52220367  1
  O  O218  1  0.08595283  0.41690525  0.02387030  1
  O  O219  1  0.07342729  0.43334271  0.52301596  1
  O  O220  1  0.07205713  0.75645586  0.00949006  1
  O  O221  1  0.06664988  0.77046257  0.51734599  1
  O  O222  1  0.39919695  0.10671114  0.02061215  1
  O  O223  1  0.40185229  0.09920911  0.52443297  1
  O  O224  1  0.39957441  0.42084398  0.02056910  1
  O  O225  1  0.40211032  0.42302897  0.52723295  1
  O  O226  1  0.41132956  0.76420136  0.01753613  1
  O  O227  1  0.40045189  0.75795372  0.51672873  1
  O  O228  1  0.72629542  0.10350490  0.02410552  1
  O  O229  1  0.73548287  0.09916705  0.52377134  1
  O  O230  1  0.74018834  0.42350654  0.00684151  1
  O  O231  1  0.73646892  0.42404001  0.53423962  1
  O  O232  1  0.72873955  0.76535800  0.02504621  1
  O  O233  1  0.74310168  0.77239364  0.52392272  1
  O  O234  1  0.11531273  0.26650805  0.02120539  1
  O  O235  1  0.09946933  0.25892944  0.51389256  1
  O  O236  1  0.09972880  0.59697578  0.00378601  1
  O  O237  1  0.09167217  0.58886140  0.52342650  1
  O  O238  1  0.10833136  0.94274517  0.01464859  1
  O  O239  1  0.09485687  0.92844940  0.52530950  1
  O  O240  1  0.43178109  0.26466975  0.03085844  1
  O  O241  1  0.43037338  0.25718823  0.52673550  1
  O  O242  1  0.43422059  0.59963804  0.02571950  1
  O  O243  1  0.41821391  0.58429302  0.52696862  1
  O  O244  1  0.43166937  0.92751223  0.01236267  1
  O  O245  1  0.42393542  0.93321703  0.51434755  1
  O  O246  1  0.75325160  0.25508038  0.02465328  1
  O  O247  1  0.76234145  0.25559895  0.52889177  1
  O  O248  1  0.75892946  0.59341131  0.01038441  1
  O  O249  1  0.75120856  0.58598654  0.51726413  1
  O  O250  1  0.74998563  0.92432415  0.01881474  1
  O  O251  1  0.76554313  0.93284792  0.51973024  1
  O  O252  1  0.23058714  0.06674759  0.27728500  1
  O  O253  1  0.23332742  0.07409674  0.77983358  1
  O  O254  1  0.23195916  0.39521013  0.27166692  1
  O  O255  1  0.23672856  0.40503594  0.77392715  1
  O  O256  1  0.25107722  0.74644063  0.28437051  1
  O  O257  1  0.24124549  0.73165752  0.77563523  1
  O  O258  1  0.57190373  0.06522050  0.27240351  1
  O  O259  1  0.56797615  0.07500344  0.78388257  1
  O  O260  1  0.56987014  0.40070867  0.26594054  1
  O  O261  1  0.56632192  0.39286824  0.77016174  1
  O  O262  1  0.57131742  0.72934206  0.27255522  1
  O  O263  1  0.56973955  0.72869017  0.77120118  1
  O  O264  1  0.89713126  0.07149082  0.27912155  1
  O  O265  1  0.89840397  0.08593703  0.77763794  1
  O  O266  1  0.90564783  0.40301585  0.26617385  1
  O  O267  1  0.89889474  0.39674305  0.75814772  1
  O  O268  1  0.91059544  0.74167928  0.27064837  1
  O  O269  1  0.90370346  0.73790633  0.75983053  1
  O  O270  1  0.26289396  0.24435618  0.25818834  1
  O  O271  1  0.25997122  0.23798966  0.78111886  1
  O  O272  1  0.25455852  0.56562123  0.27096969  1
  O  O273  1  0.26536071  0.56546723  0.77398735  1
  O  O274  1  0.26511450  0.90546286  0.29170034  1
  O  O275  1  0.26689751  0.91099266  0.77294577  1
  O  O276  1  0.59420972  0.24207105  0.25916500  1
  O  O277  1  0.60142771  0.23528140  0.77309651  1
  O  O278  1  0.59010786  0.57014721  0.27655319  1
  O  O279  1  0.59186898  0.57246028  0.76343264  1
  O  O280  1  0.59767581  0.91075488  0.27154461  1
  O  O281  1  0.58302087  0.91501491  0.77529889  1
  O  O282  1  0.93081206  0.23420545  0.26734653  1
  O  O283  1  0.93150528  0.24017561  0.77468189  1
  O  O284  1  0.91790004  0.57009615  0.26015775  1
  O  O285  1  0.92662423  0.56384845  0.75228979  1
  O  O286  1  0.92976357  0.90864557  0.28451900  1
  O  O287  1  0.91533162  0.92398812  0.77068766  1
  O  O288  1  0.26256463  0.23704334  0.48354179  1
  O  O289  1  0.27029859  0.23304624  0.97391846  1
  O  O290  1  0.26237115  0.56889474  0.48840722  1
  O  O291  1  0.26571604  0.56455184  0.96835557  1
  O  O292  1  0.26310550  0.90865525  0.47423001  1
  O  O293  1  0.26889093  0.90367807  0.96252972  1
  O  O294  1  0.59216792  0.23190897  0.49152542  1
  O  O295  1  0.58820210  0.23324496  0.96822239  1
  O  O296  1  0.58127778  0.57206524  0.48522367  1
  O  O297  1  0.58698221  0.57630277  0.97223003  1
  O  O298  1  0.59885910  0.91341083  0.47928968  1
  O  O299  1  0.58213097  0.91087839  0.97307847  1
  O  O300  1  0.92186116  0.23517052  0.48880099  1
  O  O301  1  0.93719793  0.23070785  0.98668642  1
  O  O302  1  0.93087529  0.57584370  0.49137469  1
  O  O303  1  0.93384781  0.57939001  0.98422559  1
  O  O304  1  0.93664187  0.90734927  0.47323850  1
  O  O305  1  0.92260621  0.91551955  0.97656003  1
  O  O306  1  0.23800764  0.07059149  0.48132312  1
  O  O307  1  0.23058440  0.07525188  0.96870402  1
  O  O308  1  0.23569635  0.39863181  0.47817748  1
  O  O309  1  0.24571830  0.39654930  0.96734465  1
  O  O310  1  0.24454450  0.74622290  0.47490840  1
  O  O311  1  0.24188244  0.73453492  0.96018047  1
  O  O312  1  0.56872066  0.06592819  0.47504258  1
  O  O313  1  0.55937202  0.07587262  0.96788295  1
  O  O314  1  0.56463972  0.40614574  0.48737193  1
  O  O315  1  0.56003150  0.39483437  0.98308097  1
  O  O316  1  0.56844302  0.73412471  0.47232957  1
  O  O317  1  0.55964363  0.73791399  0.97446190  1
  O  O318  1  0.90468882  0.06694935  0.47826755  1
  O  O319  1  0.90181421  0.07541914  0.96521143  1
  O  O320  1  0.90239744  0.39993674  0.49094053  1
  O  O321  1  0.91551770  0.41071991  0.99110121  1
  O  O322  1  0.91217204  0.74595362  0.47532749  1
  O  O323  1  0.91419461  0.73601687  0.98409344  1
  O  O324  1  0.09655209  0.26621598  0.23206486  1
  O  O325  1  0.10231208  0.27132682  0.74159293  1
  O  O326  1  0.09298042  0.58001426  0.24352972  1
  O  O327  1  0.09926099  0.58880793  0.73414134  1
  O  O328  1  0.10710216  0.94041354  0.23176763  1
  O  O329  1  0.09025495  0.92831514  0.73438573  1
  O  O330  1  0.42517525  0.26516180  0.22152115  1
  O  O331  1  0.43657380  0.26748669  0.72527876  1
  O  O332  1  0.43848023  0.59134176  0.23382311  1
  O  O333  1  0.42037281  0.59345851  0.72654554  1
  O  O334  1  0.43060597  0.93232716  0.23482764  1
  O  O335  1  0.42220156  0.93662399  0.73959037  1
  O  O336  1  0.75489196  0.25583934  0.22937834  1
  O  O337  1  0.75960389  0.26759392  0.71602097  1
  O  O338  1  0.75719848  0.58943484  0.23227319  1
  O  O339  1  0.75709705  0.58449794  0.72016860  1
  O  O340  1  0.75504980  0.92821133  0.24116146  1
  O  O341  1  0.74770828  0.91937770  0.72228335  1
  O  O342  1  0.06788261  0.10430291  0.22674860  1
  O  O343  1  0.07363372  0.10718680  0.74053280  1
  O  O344  1  0.07451071  0.41954243  0.22761464  1
  O  O345  1  0.06937231  0.43317214  0.72324380  1
  O  O346  1  0.07277936  0.76143027  0.24931560  1
  O  O347  1  0.06710266  0.76659556  0.72045142  1
  O  O348  1  0.39821649  0.10328940  0.22058182  1
  O  O349  1  0.38933148  0.10709574  0.73065826  1
  O  O350  1  0.41068974  0.42104379  0.23032363  1
  O  O351  1  0.39791064  0.43045659  0.71827025  1
  O  O352  1  0.41790194  0.75117582  0.22629986  1
  O  O353  1  0.39819089  0.75981295  0.73200829  1
  O  O354  1  0.73367491  0.09823099  0.23093472  1
  O  O355  1  0.73287545  0.11116369  0.72829070  1
  O  O356  1  0.73741374  0.42079996  0.23621372  1
  O  O357  1  0.73290226  0.42606448  0.71997058  1
  O  O358  1  0.72889719  0.75552797  0.22811893  1
  O  O359  1  0.72743258  0.75848998  0.72046917  1
