# generated using pymatgen
data_BaLaInIrO6
_symmetry_space_group_name_H-M   'P 1'
_cell_length_a   17.50746245
_cell_length_b   17.53119283
_cell_length_c   16.47016189
_cell_angle_alpha   90.01310732
_cell_angle_beta   90.00787634
_cell_angle_gamma   90.05315695
_symmetry_Int_Tables_number   1
_chemical_formula_structural   BaLaInIrO6
_chemical_formula_sum   'Ba36 La36 In36 Ir36 O216'
_cell_volume   5055.13008369
_cell_formula_units_Z   36
loop_
 _symmetry_equiv_pos_site_id
 _symmetry_equiv_pos_as_xyz
  1  'x, y, z'
loop_
 _atom_site_type_symbol
 _atom_site_label
 _atom_site_symmetry_multiplicity
 _atom_site_fract_x
 _atom_site_fract_y
 _atom_site_fract_z
 _atom_site_occupancy
  Ba  Ba0  1  0.66627495  0.50291171  0.12264345  1
  Ba  Ba1  1  0.49636462  0.65275856  0.87307450  1
  Ba  Ba2  1  0.83302996  0.67390324  0.62148774  1
  Ba  Ba3  1  0.33453426  0.82126736  0.87077799  1
  Ba  Ba4  1  0.00177150  0.82597410  0.37089746  1
  Ba  Ba5  1  -0.00008342  0.48429999  0.87300459  1
  Ba  Ba6  1  0.00095108  0.49417808  0.38036612  1
  Ba  Ba7  1  0.49836350  0.34245585  0.12578172  1
  Ba  Ba8  1  0.33739011  0.17730614  0.62949632  1
  Ba  Ba9  1  0.83100604  0.67452811  0.12447091  1
  Ba  Ba10  1  0.66853512  0.17521847  0.62184580  1
  Ba  Ba11  1  0.49924216  0.32502482  0.87921343  1
  Ba  Ba12  1  -0.00256218  0.16147710  0.37269366  1
  Ba  Ba13  1  0.49530058  0.67530946  0.62505147  1
  Ba  Ba14  1  0.16993684  0.32190079  0.37563357  1
  Ba  Ba15  1  0.66750834  0.16013248  0.37185196  1
  Ba  Ba16  1  0.99879759  0.17728589  0.12400907  1
  Ba  Ba17  1  0.83109633  0.34023555  0.12948233  1
  Ba  Ba18  1  0.16444381  0.67286819  0.62524020  1
  Ba  Ba19  1  0.16697622  0.32642228  0.87840362  1
  Ba  Ba20  1  0.49995171  0.32687231  0.37773564  1
  Ba  Ba21  1  0.32926407  0.49256967  0.87779532  1
  Ba  Ba22  1  0.32848234  0.82544427  0.37293843  1
  Ba  Ba23  1  0.16275658  0.34380311  0.12162328  1
  Ba  Ba24  1  0.50029160  0.67356442  0.12100326  1
  Ba  Ba25  1  1.00191962  0.17755980  0.62640785  1
  Ba  Ba26  1  0.66174626  0.50831026  0.62361295  1
  Ba  Ba27  1  0.33449419  0.16191610  0.87830717  1
  Ba  Ba28  1  0.83588262  0.32755288  0.37410627  1
  Ba  Ba29  1  0.17221184  0.65009540  0.87495077  1
  Ba  Ba30  1  0.50247293  0.99451337  0.37653303  1
  Ba  Ba31  1  0.83699400  0.65712578  0.37352279  1
  Ba  Ba32  1  0.99979217  0.83966708  0.12453768  1
  Ba  Ba33  1  0.33205412  0.84234860  0.11693179  1
  Ba  Ba34  1  0.49616411  0.34479544  0.63021217  1
  Ba  Ba35  1  0.66446120  0.17486285  0.12804219  1
  La  La36  1  0.83724237  0.99782410  0.37641881  1
  La  La37  1  0.82822429  0.34515443  0.62184582  1
  La  La38  1  0.50082319  0.65530691  0.37341215  1
  La  La39  1  0.32608212  0.15257131  0.37394152  1
  La  La40  1  0.66193306  0.81719562  0.87482115  1
  La  La41  1  0.33803675  0.18386086  0.12432555  1
  La  La42  1  0.66163276  0.82262244  0.37216508  1
  La  La43  1  0.67315680  0.84974383  0.12409834  1
  La  La44  1  0.16447019  0.01353012  0.62739585  1
  La  La45  1  0.83738417  0.64781072  0.87423583  1
  La  La46  1  0.33773550  0.51313496  0.12040027  1
  La  La47  1  0.66041006  0.15269397  0.87607481  1
  La  La48  1  0.16201245  0.67972908  0.11737762  1
  La  La49  1  0.33600825  0.84701114  0.62551664  1
  La  La50  1  0.49890276  0.01510148  0.12260843  1
  La  La51  1  0.17105569  0.98598223  0.87533261  1
  La  La52  1  0.66980564  0.84039996  0.62549595  1
  La  La53  1  1.00105571  0.51773913  0.62723384  1
  La  La54  1  1.00362232  0.50935825  0.12479588  1
  La  La55  1  0.16109786  0.01183624  0.12663302  1
  La  La56  1  0.83700929  0.31682320  0.87655650  1
  La  La57  1  1.00701235  0.84224565  0.62653197  1
  La  La58  1  0.83157699  0.01493728  0.62362691  1
  La  La59  1  0.50414685  0.99352482  0.87417045  1
  La  La60  1  0.66338738  0.48435215  0.87589941  1
  La  La61  1  0.00019569  0.81330568  0.87700933  1
  La  La62  1  0.49826359  0.01595373  0.62491505  1
  La  La63  1  0.17157298  0.65049470  0.37126153  1
  La  La64  1  0.83455626  0.98607459  0.87569001  1
  La  La65  1  0.83259934  0.00742810  0.12882285  1
  La  La66  1  0.32446716  0.48535589  0.37477747  1
  La  La67  1  0.17125397  0.99219949  0.37273098  1
  La  La68  1  0.33760547  0.51198719  0.63233196  1
  La  La69  1  0.66444113  0.48949992  0.37512792  1
  La  La70  1  -0.00243042  0.15746124  0.87433902  1
  La  La71  1  0.16043483  0.35156394  0.63412137  1
  In  In72  1  0.66745737  0.32853714  -0.00205777  1
  In  In73  1  0.66660965  0.66684085  0.74956189  1
  In  In74  1  0.33414950  -0.00056011  0.24373641  1
  In  In75  1  0.50185840  0.83448912  0.74705978  1
  In  In76  1  0.66553229  0.66819203  0.49796122  1
  In  In77  1  0.33174866  0.66765831  -0.00085192  1
  In  In78  1  0.16584519  0.83134312  0.25032667  1
  In  In79  1  0.66564928  0.66745707  0.24911684  1
  In  In80  1  0.33391327  0.00038943  0.75209422  1
  In  In81  1  0.49595485  0.16705174  0.25366188  1
  In  In82  1  0.33124264  0.33207489  0.50316282  1
  In  In83  1  0.83311388  0.49741501  0.75016992  1
  In  In84  1  0.83383476  0.16772640  0.50149530  1
  In  In85  1  0.83542125  0.83385314  0.74980192  1
  In  In86  1  0.00197601  0.67251399  0.49740065  1
  In  In87  1  0.00398536  0.33685229  0.25175957  1
  In  In88  1  0.49534086  0.50059617  0.25081680  1
  In  In89  1  0.50355857  0.83611043  0.00016148  1
  In  In90  1  0.83336657  0.83409325  0.25247186  1
  In  In91  1  0.83399300  0.49778686  0.00127019  1
  In  In92  1  0.66508865  0.33389218  0.25194858  1
  In  In93  1  0.16703410  0.50094813  0.50156796  1
  In  In94  1  0.00094518  -0.00180256  -0.00019010  1
  In  In95  1  0.50218987  0.17081655  0.75100186  1
  In  In96  1  0.83494158  0.50015345  0.50088639  1
  In  In97  1  -0.00042316  -0.00301180  0.75297817  1
  In  In98  1  0.83346287  0.83174921  -0.00283914  1
  In  In99  1  0.00143319  -0.00264449  0.50102539  1
  In  In100  1  0.49869596  0.83387545  0.24781450  1
  In  In101  1  0.49438168  0.50189116  0.49946361  1
  In  In102  1  0.16615422  0.16550353  0.00138746  1
  In  In103  1  0.16532136  0.16721980  0.75252315  1
  In  In104  1  0.16689466  0.16739698  0.50203175  1
  In  In105  1  0.83423413  0.16613959  0.24772826  1
  In  In106  1  0.66661720  -0.00310063  0.50043635  1
  In  In107  1  0.33482167  -0.00147056  0.50043293  1
  Ir  Ir108  1  0.49976423  0.83306981  0.49953448  1
  Ir  Ir109  1  0.33268881  0.67142569  0.49580201  1
  Ir  Ir110  1  0.00163877  0.00054919  0.25030315  1
  Ir  Ir111  1  0.16710894  0.83057771  0.74791731  1
  Ir  Ir112  1  0.00267007  0.66318135  -0.00236775  1
  Ir  Ir113  1  0.33313317  0.33408546  0.00199071  1
  Ir  Ir114  1  0.67207543  0.00077666  0.75272358  1
  Ir  Ir115  1  0.66818923  -0.00230224  0.24631100  1
  Ir  Ir116  1  0.32780252  0.66570260  0.74374702  1
  Ir  Ir117  1  0.50037869  0.49914618  -0.00290369  1
  Ir  Ir118  1  0.32880711  0.33671858  0.75457355  1
  Ir  Ir119  1  0.83012851  0.16301009  -0.00693693  1
  Ir  Ir120  1  0.16846078  0.16428197  0.25022471  1
  Ir  Ir121  1  -0.00002675  0.33548185  0.50855169  1
  Ir  Ir122  1  -0.00458174  0.33076216  0.75040769  1
  Ir  Ir123  1  0.67001905  0.00407821  -0.00175597  1
  Ir  Ir124  1  0.49984470  0.16847801  0.50220279  1
  Ir  Ir125  1  0.33014280  0.66544725  0.25118603  1
  Ir  Ir126  1  0.00426123  0.66322974  0.24407789  1
  Ir  Ir127  1  0.66864612  0.66735520  -0.00294456  1
  Ir  Ir128  1  0.33222593  0.00031506  -0.00108625  1
  Ir  Ir129  1  0.83432359  0.83745580  0.50200241  1
  Ir  Ir130  1  0.16655664  0.83387133  -0.00351337  1
  Ir  Ir131  1  0.49692393  0.16097463  -0.00068093  1
  Ir  Ir132  1  0.17047580  0.50318564  0.24461240  1
  Ir  Ir133  1  0.49896766  0.49747595  0.75415362  1
  Ir  Ir134  1  0.16660465  0.49791867  0.00312913  1
  Ir  Ir135  1  0.16563596  0.49881194  0.75071509  1
  Ir  Ir136  1  0.82989826  0.16627740  0.75388530  1
  Ir  Ir137  1  0.32780522  0.33587433  0.24662967  1
  Ir  Ir138  1  0.00204229  0.66624592  0.75482894  1
  Ir  Ir139  1  -0.00263600  0.33110176  -0.00366169  1
  Ir  Ir140  1  0.83658766  0.50264189  0.25031415  1
  Ir  Ir141  1  0.66545435  0.33413982  0.50550730  1
  Ir  Ir142  1  0.16998397  0.83228224  0.50540066  1
  Ir  Ir143  1  0.67101761  0.33213693  0.74796908  1
  O  O144  1  0.31035208  0.32181918  0.12421692  1
  O  O145  1  0.30110355  0.33391042  0.63479189  1
  O  O146  1  0.29993489  0.65632671  0.13128321  1
  O  O147  1  0.31172866  0.65217353  0.61770823  1
  O  O148  1  0.29757262  0.99916463  0.11531850  1
  O  O149  1  0.30141043  0.99182526  0.62554523  1
  O  O150  1  0.64925116  0.33360188  0.12304371  1
  O  O151  1  0.64370976  0.32938551  0.62745654  1
  O  O152  1  0.64830131  0.65895635  0.11696387  1
  O  O153  1  0.64598357  0.67511063  0.62344492  1
  O  O154  1  0.63744912  0.98978090  0.12123180  1
  O  O155  1  0.63701872  0.98580462  0.63372773  1
  O  O156  1  0.98264462  0.34239963  0.11579989  1
  O  O157  1  0.96576963  0.33325577  0.63014260  1
  O  O158  1  0.97978675  0.65091199  0.12056893  1
  O  O159  1  0.98658539  0.66386814  0.63351076  1
  O  O160  1  0.96885948  0.99597110  0.12962295  1
  O  O161  1  0.96605251  0.97864212  0.62835862  1
  O  O162  1  0.19981702  0.15563370  0.13057753  1
  O  O163  1  0.19135302  0.15165672  0.62771967  1
  O  O164  1  0.19945495  0.49938614  0.12451740  1
  O  O165  1  0.19488420  0.49435413  0.63097099  1
  O  O166  1  0.18380423  0.82160812  0.11850804  1
  O  O167  1  0.20030358  0.82246661  0.62728748  1
  O  O168  1  0.51253874  0.15826056  0.11981069  1
  O  O169  1  0.52054249  0.16368759  0.62286294  1
  O  O170  1  0.51429246  0.50280349  0.11875766  1
  O  O171  1  0.51025577  0.50458991  0.63269024  1
  O  O172  1  0.53883757  0.83097487  0.12260342  1
  O  O173  1  0.53324478  0.82813831  0.61773070  1
  O  O174  1  0.85022715  0.14635148  0.11364812  1
  O  O175  1  0.85270988  0.15483768  0.63432907  1
  O  O176  1  0.86513591  0.50092327  0.12798369  1
  O  O177  1  0.86733123  0.48582880  0.62828663  1
  O  O178  1  0.84834924  0.84055094  0.12299393  1
  O  O179  1  0.87002420  0.82958435  0.62149693  1
  O  O180  1  0.14641068  0.16463737  0.36961198  1
  O  O181  1  0.13220009  0.17012407  0.87693348  1
  O  O182  1  0.15145158  0.51034571  0.36599908  1
  O  O183  1  0.14492285  0.49675687  0.87874165  1
  O  O184  1  0.15057844  0.84892125  0.38412481  1
  O  O185  1  0.13574983  0.84596046  0.87141168  1
  O  O186  1  0.46599078  0.16402124  0.38265714  1
  O  O187  1  0.48606445  0.15547270  0.87918199  1
  O  O188  1  0.45760701  0.50612093  0.37406809  1
  O  O189  1  0.48004576  0.49241951  0.87527338  1
  O  O190  1  0.47629882  0.84272255  0.38167256  1
  O  O191  1  0.48442841  0.85736289  0.87459097  1
  O  O192  1  0.81878164  0.15528133  0.37517324  1
  O  O193  1  0.79850684  0.17947645  0.87236078  1
  O  O194  1  0.80727294  0.50038388  0.37124472  1
  O  O195  1  0.80574706  0.50920710  0.87453310  1
  O  O196  1  0.80045283  0.85053771  0.38188181  1
  O  O197  1  0.79674939  0.84929928  0.87584542  1
  O  O198  1  0.03478431  0.00157004  0.36983730  1
  O  O199  1  0.03510526  0.01762239  0.87643390  1
  O  O200  1  0.02151072  0.33791035  0.38682171  1
  O  O201  1  0.01732573  0.32087988  0.87245661  1
  O  O202  1  0.03390586  0.66784101  0.36500398  1
  O  O203  1  0.02677422  0.67472129  0.87633690  1
  O  O204  1  0.35246512  0.00913295  0.37325364  1
  O  O205  1  0.36757694  0.00028009  0.88142795  1
  O  O206  1  0.34673579  0.34684682  0.36714169  1
  O  O207  1  0.35261496  0.33845604  0.87936901  1
  O  O208  1  0.36237348  0.67445935  0.37314097  1
  O  O209  1  0.34295364  0.66448796  0.86595099  1
  O  O210  1  0.69696527  0.00032759  0.36799235  1
  O  O211  1  0.70149536  0.01692044  0.87554680  1
  O  O212  1  0.68483775  0.34618320  0.38639956  1
  O  O213  1  0.69872751  0.34017588  0.86720067  1
  O  O214  1  0.69202900  0.69023339  0.37512801  1
  O  O215  1  0.70152895  0.67962759  0.87855609  1
  O  O216  1  0.08008480  0.08516949  0.03232974  1
  O  O217  1  0.07838774  0.08598192  0.52479588  1
  O  O218  1  0.06497892  0.43147726  0.01811282  1
  O  O219  1  0.06662883  0.42933747  0.53456965  1
  O  O220  1  0.07415129  0.75889747  0.01584886  1
  O  O221  1  0.07254330  0.77089775  0.52295928  1
  O  O222  1  0.39973569  0.09369468  0.02828790  1
  O  O223  1  0.41584137  0.09153884  0.52508571  1
  O  O224  1  0.40326780  0.43060355  0.02386115  1
  O  O225  1  0.39658920  0.43406780  0.52357509  1
  O  O226  1  0.41078543  0.75713957  0.01150763  1
  O  O227  1  0.39914140  0.77005963  0.52360042  1
  O  O228  1  0.72997179  0.10402605  0.00718881  1
  O  O229  1  0.74551641  0.08386508  0.52384793  1
  O  O230  1  0.73886465  0.42668796  0.00562858  1
  O  O231  1  0.74144265  0.41841340  0.52507155  1
  O  O232  1  0.72866685  0.76601055  0.01925852  1
  O  O233  1  0.74043811  0.77324927  0.52285791  1
  O  O234  1  0.08560062  0.26083664  0.01604771  1
  O  O235  1  0.09722661  0.27214186  0.52901814  1
  O  O236  1  0.09559934  0.59041128  0.02859069  1
  O  O237  1  0.09432463  0.59396908  0.50960390  1
  O  O238  1  0.10362509  0.92762287  0.01875052  1
  O  O239  1  0.10217852  0.92368895  0.53311825  1
  O  O240  1  0.42456389  0.25584285  0.02229289  1
  O  O241  1  0.43055212  0.25893051  0.51730971  1
  O  O242  1  0.42177961  0.58376925  0.01518057  1
  O  O243  1  0.42404518  0.60607435  0.50873922  1
  O  O244  1  0.43050573  0.93930493  0.02326656  1
  O  O245  1  0.43537582  0.92689786  0.53068073  1
  O  O246  1  0.76915770  0.25715585  0.00976154  1
  O  O247  1  0.75929565  0.26472995  0.52215482  1
  O  O248  1  0.76174061  0.60180184  0.00751141  1
  O  O249  1  0.75513229  0.58819813  0.51389801  1
  O  O250  1  0.76814810  0.94520645  0.01837963  1
  O  O251  1  0.76574963  0.92538119  0.53503435  1
  O  O252  1  0.23486500  0.07300981  0.27348473  1
  O  O253  1  0.23629322  0.06678704  0.77920309  1
  O  O254  1  0.23777915  0.41050889  0.26900475  1
  O  O255  1  0.23233534  0.40393525  0.76461965  1
  O  O256  1  0.23446738  0.72860616  0.27119936  1
  O  O257  1  0.23551833  0.73783610  0.76618723  1
  O  O258  1  0.57499667  0.06622295  0.25638009  1
  O  O259  1  0.57827091  0.06643393  0.77395088  1
  O  O260  1  0.58017844  0.41792673  0.27557049  1
  O  O261  1  0.57941839  0.40763740  0.77676064  1
  O  O262  1  0.56537140  0.73813695  0.27772238  1
  O  O263  1  0.57484639  0.74412909  0.77689323  1
  O  O264  1  0.90920900  0.06715531  0.26996348  1
  O  O265  1  0.89696106  0.07316420  0.77935041  1
  O  O266  1  0.90955723  0.41714904  0.26607204  1
  O  O267  1  0.89966183  0.39254675  0.77398783  1
  O  O268  1  0.91532159  0.73816086  0.26160993  1
  O  O269  1  0.90941261  0.73423573  0.78182700  1
  O  O270  1  0.26482286  0.23188672  0.27081333  1
  O  O271  1  0.26085279  0.24600658  0.77105940  1
  O  O272  1  0.26515812  0.56983656  0.27511715  1
  O  O273  1  0.26128918  0.56660955  0.75992261  1
  O  O274  1  0.25283284  0.91190597  0.26371591  1
  O  O275  1  0.25726246  0.90054340  0.76553367  1
  O  O276  1  0.58381817  0.24355447  0.26780552  1
  O  O277  1  0.60389598  0.23848789  0.77382332  1
  O  O278  1  0.59051249  0.57595865  0.28221976  1
  O  O279  1  0.59406039  0.56443966  0.77521816  1
  O  O280  1  0.60552429  0.90303084  0.26792585  1
  O  O281  1  0.60840134  0.90837521  0.77556621  1
  O  O282  1  0.92647301  0.24566827  0.25632940  1
  O  O283  1  0.92712603  0.23315373  0.77752570  1
  O  O284  1  0.93411925  0.57216160  0.26362116  1
  O  O285  1  0.93221183  0.57529023  0.76748257  1
  O  O286  1  0.92342345  0.91814940  0.27569491  1
  O  O287  1  0.93277778  0.89995722  0.78527909  1
  O  O288  1  0.26893462  0.23092732  0.47537115  1
  O  O289  1  0.26355421  0.24109578  0.99149939  1
  O  O290  1  0.26598482  0.57855581  0.47063870  1
  O  O291  1  0.25742850  0.56898502  0.99356108  1
  O  O292  1  0.26298596  0.89595983  0.49380961  1
  O  O293  1  0.25821998  0.90825928  0.97050416  1
  O  O294  1  0.59196648  0.24217698  0.48095756  1
  O  O295  1  0.59332983  0.22803827  0.97600259  1
  O  O296  1  0.58788331  0.57407061  0.46547005  1
  O  O297  1  0.60072988  0.56905054  0.97161497  1
  O  O298  1  0.59833118  0.89562550  0.47954446  1
  O  O299  1  0.61011541  0.90786795  0.97647283  1
  O  O300  1  0.93213368  0.24402148  0.49062847  1
  O  O301  1  0.92867714  0.23129576  0.97221013  1
  O  O302  1  0.93017510  0.57615739  0.49665175  1
  O  O303  1  0.92967541  0.57534532  0.97828139  1
  O  O304  1  0.92098768  0.90663834  0.47471088  1
  O  O305  1  0.93225695  0.90228324  0.96865548  1
  O  O306  1  0.23743832  0.06731192  0.47180619  1
  O  O307  1  0.23833570  0.06391928  0.97386346  1
  O  O308  1  0.23779251  0.40825923  0.48466257  1
  O  O309  1  0.23993799  0.40626262  0.98552979  1
  O  O310  1  0.23236530  0.73379590  0.47490221  1
  O  O311  1  0.23369950  0.74116946  0.98694240  1
  O  O312  1  0.57139878  0.07659820  0.49223837  1
  O  O313  1  0.56519845  0.06314770  0.98098081  1
  O  O314  1  0.58012052  0.41135011  0.48825208  1
  O  O315  1  0.57654806  0.41432255  0.97925081  1
  O  O316  1  0.56215051  0.74067412  0.46994386  1
  O  O317  1  0.58056058  0.73730197  0.97414858  1
  O  O318  1  0.90312447  0.06583012  0.48557999  1
  O  O319  1  0.89975420  0.07243527  0.96921186  1
  O  O320  1  0.90804998  0.40063046  0.49031196  1
  O  O321  1  0.90430820  0.39567346  0.97437357  1
  O  O322  1  0.90464572  0.74863931  0.47895316  1
  O  O323  1  0.90928502  0.73339022  0.97137643  1
  O  O324  1  0.09816402  0.25462813  0.23370740  1
  O  O325  1  0.09255863  0.26971267  0.72641649  1
  O  O326  1  0.10277844  0.59652453  0.21969829  1
  O  O327  1  0.09029439  0.58673064  0.72831532  1
  O  O328  1  0.09199297  0.93085264  0.22761717  1
  O  O329  1  0.10095991  0.92203255  0.72294003  1
  O  O330  1  0.41454922  0.26336899  0.23216515  1
  O  O331  1  0.42070756  0.26590882  0.74352618  1
  O  O332  1  0.41814120  0.59625321  0.22881144  1
  O  O333  1  0.41861587  0.58813989  0.72757391  1
  O  O334  1  0.43444127  0.93339889  0.21976653  1
  O  O335  1  0.42907305  0.92623219  0.71682959  1
  O  O336  1  0.75457636  0.25460452  0.23996332  1
  O  O337  1  0.76760139  0.26583806  0.72669916  1
  O  O338  1  0.76417117  0.58934322  0.23585259  1
  O  O339  1  0.76626632  0.59904374  0.74049215  1
  O  O340  1  0.76023482  0.93244687  0.22415988  1
  O  O341  1  0.77010046  0.94200238  0.73026198  1
  O  O342  1  0.07937094  0.08832844  0.22244584  1
  O  O343  1  0.07460459  0.08665916  0.72623360  1
  O  O344  1  0.07488724  0.43773823  0.22511559  1
  O  O345  1  0.06599035  0.42787338  0.72384690  1
  O  O346  1  0.07643723  0.75052025  0.22413154  1
  O  O347  1  0.06534059  0.76764442  0.73540077  1
  O  O348  1  0.39939925  0.10003375  0.22416429  1
  O  O349  1  0.41837195  0.08590482  0.72953388  1
  O  O350  1  0.39163964  0.43083947  0.22568451  1
  O  O351  1  0.39850525  0.43080976  0.73108859  1
  O  O352  1  0.39691142  0.75676809  0.22929961  1
  O  O353  1  0.39640801  0.76009475  0.72488788  1
  O  O354  1  0.74160378  0.08272616  0.22497773  1
  O  O355  1  0.73615838  0.09734395  0.73388761  1
  O  O356  1  0.74776126  0.43153566  0.23875651  1
  O  O357  1  0.73921273  0.42085223  0.72486990  1
  O  O358  1  0.73084567  0.77056821  0.22922392  1
  O  O359  1  0.73302195  0.77466296  0.73186387  1
