# generated using pymatgen
data_BaLaInIrO6
_symmetry_space_group_name_H-M   'P 1'
_cell_length_a   17.53761652
_cell_length_b   17.57015469
_cell_length_c   16.52083741
_cell_angle_alpha   90.00566801
_cell_angle_beta   90.01341812
_cell_angle_gamma   90.03454432
_symmetry_Int_Tables_number   1
_chemical_formula_structural   BaLaInIrO6
_chemical_formula_sum   'Ba36 La36 In36 Ir36 O216'
_cell_volume   5090.70720004
_cell_formula_units_Z   36
loop_
 _symmetry_equiv_pos_site_id
 _symmetry_equiv_pos_as_xyz
  1  'x, y, z'
loop_
 _atom_site_type_symbol
 _atom_site_label
 _atom_site_symmetry_multiplicity
 _atom_site_fract_x
 _atom_site_fract_y
 _atom_site_fract_z
 _atom_site_occupancy
  Ba  Ba0  1  0.33303033  0.17333681  0.62645633  1
  Ba  Ba1  1  -0.00379168  0.49225502  0.87387194  1
  Ba  Ba2  1  0.66751642  0.51241828  0.12511155  1
  Ba  Ba3  1  0.16670637  0.99305299  0.87596063  1
  Ba  Ba4  1  0.16481682  0.01330042  0.62713192  1
  Ba  Ba5  1  0.33918200  0.51089998  0.62014823  1
  Ba  Ba6  1  0.17275327  0.99024605  0.37564207  1
  Ba  Ba7  1  0.66290542  0.15217523  0.37315062  1
  Ba  Ba8  1  0.66590439  0.49897777  0.87276439  1
  Ba  Ba9  1  0.83553159  0.65543194  0.37430529  1
  Ba  Ba10  1  0.49766241  0.34076979  0.62520226  1
  Ba  Ba11  1  0.83350726  0.00566632  0.62077331  1
  Ba  Ba12  1  0.33447408  0.82647653  0.87572129  1
  Ba  Ba13  1  0.50536241  0.98237042  0.37811522  1
  Ba  Ba14  1  0.50531802  0.00562416  0.12339918  1
  Ba  Ba15  1  0.50045334  0.99035246  0.87098068  1
  Ba  Ba16  1  0.50216825  0.32868102  0.87419997  1
  Ba  Ba17  1  0.49933554  0.67255047  0.62585279  1
  Ba  Ba18  1  0.99794192  0.17961812  0.12687673  1
  Ba  Ba19  1  0.82864723  0.65901129  0.87714243  1
  Ba  Ba20  1  -0.00191445  0.49065452  0.37104884  1
  Ba  Ba21  1  0.82837579  0.34715710  0.12648364  1
  Ba  Ba22  1  0.49897595  0.66129347  0.87452712  1
  Ba  Ba23  1  0.33774254  0.15769953  0.37523266  1
  Ba  Ba24  1  0.99825416  0.50654056  0.12307372  1
  Ba  Ba25  1  0.49968262  0.34248937  0.12800934  1
  Ba  Ba26  1  0.66577525  0.82496378  0.87822041  1
  Ba  Ba27  1  0.66599167  0.16055887  0.87311922  1
  Ba  Ba28  1  0.83251646  0.67093271  0.62514115  1
  Ba  Ba29  1  0.66155277  0.50759385  0.62658057  1
  Ba  Ba30  1  0.66817447  0.81743589  0.37467900  1
  Ba  Ba31  1  0.16522156  0.32432370  0.87856632  1
  Ba  Ba32  1  0.99711858  0.84194585  0.13291845  1
  Ba  Ba33  1  0.83625974  0.32774806  0.87623353  1
  Ba  Ba34  1  0.66415756  0.17600711  0.62162715  1
  Ba  Ba35  1  -0.00253485  0.15657158  0.87666922  1
  La  La36  1  0.32495060  0.15307536  0.87947311  1
  La  La37  1  0.33519130  0.18119637  0.12760340  1
  La  La38  1  0.49914648  0.68372485  0.12442720  1
  La  La39  1  0.82813848  0.34806624  0.62551996  1
  La  La40  1  0.99943527  0.51537352  0.62192731  1
  La  La41  1  0.33127365  0.48213223  0.37300904  1
  La  La42  1  -0.00605087  0.81927833  0.38009896  1
  La  La43  1  0.67390940  0.18506975  0.11846980  1
  La  La44  1  0.49779306  0.01462724  0.62464611  1
  La  La45  1  0.16136932  0.34768086  0.12556651  1
  La  La46  1  0.34044589  0.51594029  0.12776039  1
  La  La47  1  0.83817158  0.99331042  0.87056262  1
  La  La48  1  0.16376452  0.68211316  0.62580772  1
  La  La49  1  0.66489295  0.49110514  0.37423570  1
  La  La50  1  0.83489545  0.32307935  0.37475211  1
  La  La51  1  0.16185901  0.34748786  0.62868899  1
  La  La52  1  -0.00814895  0.81994529  0.88025312  1
  La  La53  1  0.50428671  0.31771916  0.37962755  1
  La  La54  1  0.15977171  0.01809887  0.12864873  1
  La  La55  1  1.00904422  0.18396868  0.62970961  1
  La  La56  1  0.33809166  0.84892989  0.12508888  1
  La  La57  1  0.17306381  0.31752062  0.36965655  1
  La  La58  1  0.17088445  0.65856128  0.37272919  1
  La  La59  1  0.50697002  0.65356964  0.37517449  1
  La  La60  1  0.82185594  0.01317810  0.12390271  1
  La  La61  1  0.67123067  0.84170271  0.12709397  1
  La  La62  1  0.34025735  0.84452046  0.62097090  1
  La  La63  1  0.83672768  0.98262720  0.37400891  1
  La  La64  1  -0.00601311  0.15367376  0.37405848  1
  La  La65  1  0.16158147  0.68185215  0.12257519  1
  La  La66  1  0.32818274  0.48526617  0.87400499  1
  La  La67  1  0.82733840  0.67537100  0.12582693  1
  La  La68  1  1.00690811  0.84953116  0.62701969  1
  La  La69  1  0.17495590  0.65220217  0.87512699  1
  La  La70  1  0.66801541  0.84140524  0.62419601  1
  La  La71  1  0.33750227  0.82242084  0.37187950  1
  In  In72  1  0.83475854  0.82867064  0.50183705  1
  In  In73  1  0.33137330  0.66959090  0.74634643  1
  In  In74  1  0.83584318  0.16539689  0.74412640  1
  In  In75  1  0.00088485  0.00153347  0.49931368  1
  In  In76  1  0.00134719  0.66597265  0.24728484  1
  In  In77  1  0.16817482  0.83463089  0.24984663  1
  In  In78  1  0.33449468  0.00074796  0.24852241  1
  In  In79  1  0.16695218  0.50210557  0.49861606  1
  In  In80  1  0.49495881  0.50143991  0.75338468  1
  In  In81  1  0.66715344  0.33433604  0.74782765  1
  In  In82  1  0.17062205  0.50260925  0.24960716  1
  In  In83  1  0.16852512  0.83154954  0.49813017  1
  In  In84  1  0.83443734  0.16575997  0.49920923  1
  In  In85  1  -0.00032218  0.33525128  0.00199583  1
  In  In86  1  0.33158519  0.66817920  0.00170528  1
  In  In87  1  0.66529025  0.33877067  -0.00202159  1
  In  In88  1  0.33153639  -0.00270231  0.75021559  1
  In  In89  1  0.16863829  0.50221296  0.00192246  1
  In  In90  1  0.49856294  0.16528486  0.00050395  1
  In  In91  1  0.83335558  0.16420771  -0.00150276  1
  In  In92  1  0.16441562  0.16963568  0.49922983  1
  In  In93  1  0.00463036  0.66673709  0.75342128  1
  In  In94  1  0.50320493  0.16276855  0.24729836  1
  In  In95  1  0.16513980  0.83457392  0.00007884  1
  In  In96  1  0.49533710  0.16804612  0.75324037  1
  In  In97  1  0.00034225  0.33632798  0.49783022  1
  In  In98  1  -0.00168239  -0.00310781  0.00706619  1
  In  In99  1  0.66347427  0.33665562  0.25202308  1
  In  In100  1  0.33246182  0.33235863  0.49914122  1
  In  In101  1  0.83531935  0.50148831  0.74855002  1
  In  In102  1  0.83559065  0.83220031  0.75010199  1
  In  In103  1  0.33490066  -0.00214760  0.49839637  1
  In  In104  1  0.16687991  0.16925158  0.00421890  1
  In  In105  1  0.66552252  0.66912645  0.74886911  1
  In  In106  1  0.83179203  0.16524733  0.25233879  1
  In  In107  1  0.66604405  -0.00209207  -0.00387577  1
  Ir  Ir108  1  0.16384785  0.83168502  0.74956491  1
  Ir  Ir109  1  0.16437983  0.16902994  0.24985009  1
  Ir  Ir110  1  0.00334078  -0.00293139  0.75323280  1
  Ir  Ir111  1  0.49751185  0.50304513  0.49007738  1
  Ir  Ir112  1  0.66578885  0.66328164  0.49527780  1
  Ir  Ir113  1  0.16726344  0.49925192  0.74789586  1
  Ir  Ir114  1  0.49524287  0.50425645  0.25088418  1
  Ir  Ir115  1  0.50004418  0.83192117  0.00392525  1
  Ir  Ir116  1  0.83469680  0.83088433  0.00436873  1
  Ir  Ir117  1  0.32550612  0.33422643  0.75382540  1
  Ir  Ir118  1  -0.00055668  0.00168071  0.25244712  1
  Ir  Ir119  1  0.00362763  0.33487476  0.25278632  1
  Ir  Ir120  1  0.16580924  0.17037866  0.75231468  1
  Ir  Ir121  1  0.66466346  -0.00506635  0.50101699  1
  Ir  Ir122  1  0.50271634  0.82871546  0.50179682  1
  Ir  Ir123  1  0.33789053  0.66701212  0.25345165  1
  Ir  Ir124  1  0.49456140  0.50456007  0.00834332  1
  Ir  Ir125  1  0.33078250  -0.00115715  0.00368574  1
  Ir  Ir126  1  0.00043425  0.33392649  0.74638874  1
  Ir  Ir127  1  0.33207357  0.33383655  0.00262769  1
  Ir  Ir128  1  0.66831859  0.33981579  0.49604927  1
  Ir  Ir129  1  0.83185264  0.49969371  0.49438984  1
  Ir  Ir130  1  0.00386142  0.66613513  0.50189653  1
  Ir  Ir131  1  0.33094331  0.33419024  0.24749853  1
  Ir  Ir132  1  0.66167708  0.66895977  0.00706577  1
  Ir  Ir133  1  0.50321859  0.83537801  0.74594186  1
  Ir  Ir134  1  -0.00155514  0.66950270  0.00273839  1
  Ir  Ir135  1  0.50123701  0.82774911  0.24925038  1
  Ir  Ir136  1  0.66792467  -0.00915041  0.25188491  1
  Ir  Ir137  1  0.50393277  0.16600407  0.49992680  1
  Ir  Ir138  1  0.83377740  0.50837316  0.00405205  1
  Ir  Ir139  1  0.33643554  0.66767489  0.49236670  1
  Ir  Ir140  1  0.66739568  -0.00369016  0.74437485  1
  Ir  Ir141  1  0.83482438  0.83338420  0.24956496  1
  Ir  Ir142  1  0.66444905  0.66516505  0.25076079  1
  Ir  Ir143  1  0.83061200  0.50334068  0.25114977  1
  O  O144  1  0.29719786  0.32318340  0.12408772  1
  O  O145  1  0.30004988  0.33123792  0.63126331  1
  O  O146  1  0.30041690  0.65588655  0.13507825  1
  O  O147  1  0.30211093  0.66632303  0.61305092  1
  O  O148  1  0.29921043  0.98622666  0.12274830  1
  O  O149  1  0.31370081  0.98022549  0.62396060  1
  O  O150  1  0.64952077  0.33186770  0.12585597  1
  O  O151  1  0.64675397  0.33788945  0.61243884  1
  O  O152  1  0.63591320  0.67107568  0.13051515  1
  O  O153  1  0.64890419  0.66716367  0.61274279  1
  O  O154  1  0.65337356  0.97952766  0.13231777  1
  O  O155  1  0.63506461  0.98257882  0.62251743  1
  O  O156  1  0.97970703  0.33594093  0.13564988  1
  O  O157  1  0.97069675  0.32403701  0.62669467  1
  O  O158  1  0.96457874  0.66690312  0.12050487  1
  O  O159  1  0.98445699  0.65655942  0.62042800  1
  O  O160  1  0.96228793  0.99741719  0.13741911  1
  O  O161  1  0.98508494  0.98970519  0.63317302  1
  O  O162  1  0.19830395  0.16017384  0.13159490  1
  O  O163  1  0.18021915  0.17312631  0.63318687  1
  O  O164  1  0.20550186  0.48805270  0.12744677  1
  O  O165  1  0.19070215  0.48821845  0.62821467  1
  O  O166  1  0.20404671  0.81606730  0.12585101  1
  O  O167  1  0.19898948  0.82026976  0.62903633  1
  O  O168  1  0.53860327  0.16512900  0.12581978  1
  O  O169  1  0.51353364  0.16736220  0.61965866  1
  O  O170  1  0.51879569  0.49880755  0.13094996  1
  O  O171  1  0.50980630  0.49724688  0.60974203  1
  O  O172  1  0.53140885  0.82238468  0.12682430  1
  O  O173  1  0.53382356  0.82689062  0.62468672  1
  O  O174  1  0.85141443  0.14816334  0.12915544  1
  O  O175  1  0.87374453  0.15893318  0.62049026  1
  O  O176  1  0.85059378  0.51520908  0.12765372  1
  O  O177  1  0.86346873  0.49083487  0.61273652  1
  O  O178  1  0.85078716  0.81418993  0.12694873  1
  O  O179  1  0.87074169  0.83195829  0.62513390  1
  O  O180  1  0.12966190  0.17943750  0.36795274  1
  O  O181  1  0.15059026  0.16566208  0.87265992  1
  O  O182  1  0.14608824  0.52285185  0.37376727  1
  O  O183  1  0.14548192  0.51132081  0.86861369  1
  O  O184  1  0.13095508  0.82959420  0.37406348  1
  O  O185  1  0.13064263  0.83556529  0.86876645  1
  O  O186  1  0.48906802  0.16502437  0.37940524  1
  O  O187  1  0.45890479  0.16683864  0.87703456  1
  O  O188  1  0.46582883  0.51655977  0.36903390  1
  O  O189  1  0.46350452  0.50665207  0.88934498  1
  O  O190  1  0.47231085  0.82876733  0.37548275  1
  O  O191  1  0.48041382  0.83767674  0.87344877  1
  O  O192  1  0.80909439  0.18517500  0.37566931  1
  O  O193  1  0.81853432  0.15486285  0.87001698  1
  O  O194  1  0.80190356  0.50170525  0.37255403  1
  O  O195  1  0.82263665  0.50269425  0.88333112  1
  O  O196  1  0.81742915  0.84147152  0.37008276  1
  O  O197  1  0.81835411  0.84799363  0.88343955  1
  O  O198  1  0.02733173  0.01116192  0.36865792  1
  O  O199  1  0.01726303  -0.00195603  0.87288810  1
  O  O200  1  0.03623352  0.33828500  0.37003535  1
  O  O201  1  0.01647429  0.33862376  0.86712478  1
  O  O202  1  0.03139801  0.67597147  0.38049804  1
  O  O203  1  0.03613620  0.67492739  0.88235578  1
  O  O204  1  0.35582498  -0.00222974  0.37365542  1
  O  O205  1  0.35054019  0.00995301  0.88127917  1
  O  O206  1  0.36508193  0.34217666  0.36543440  1
  O  O207  1  0.35343676  0.34684002  0.87922626  1
  O  O208  1  0.37212965  0.68237478  0.37240029  1
  O  O209  1  0.34601370  0.67389403  0.87422260  1
  O  O210  1  0.69649067  -0.00416680  0.37657521  1
  O  O211  1  0.69860508  -0.00124232  0.86583348  1
  O  O212  1  0.69761070  0.34788852  0.37821781  1
  O  O213  1  0.68762464  0.34268235  0.87394718  1
  O  O214  1  0.68624479  0.65680728  0.37208777  1
  O  O215  1  0.67826399  0.66984228  0.88694748  1
  O  O216  1  0.07728068  0.08928988  0.02552511  1
  O  O217  1  0.05924332  0.10774354  0.51625507  1
  O  O218  1  0.08159942  0.42323957  0.01993108  1
  O  O219  1  0.06662177  0.43567802  0.52539625  1
  O  O220  1  0.06691991  0.75747655  0.02393041  1
  O  O221  1  0.06906170  0.75925703  0.52825057  1
  O  O222  1  0.39392741  0.09311091  0.02779438  1
  O  O223  1  0.41843358  0.09010053  0.52087879  1
  O  O224  1  0.39727426  0.43612551  0.02703023  1
  O  O225  1  0.40498232  0.43302760  0.49994134  1
  O  O226  1  0.40597633  0.76417177  0.02993590  1
  O  O227  1  0.40071783  0.76674435  0.51759600  1
  O  O228  1  0.73477332  0.09055411  0.03144937  1
  O  O229  1  0.73351759  0.08646845  0.51371412  1
  O  O230  1  0.74615989  0.43750838  0.01661214  1
  O  O231  1  0.73466324  0.43599518  0.51294100  1
  O  O232  1  0.73508101  0.76134837  0.02873512  1
  O  O233  1  0.73467399  0.75682145  0.51860172  1
  O  O234  1  0.10082457  0.26653735  0.02776304  1
  O  O235  1  0.09947846  0.27126464  0.52806840  1
  O  O236  1  0.09417068  0.60308980  0.02453390  1
  O  O237  1  0.09998804  0.60379437  0.52447138  1
  O  O238  1  0.09842425  0.93020895  0.03204043  1
  O  O239  1  0.09148839  0.92258191  0.52220363  1
  O  O240  1  0.41518420  0.25968636  0.02929577  1
  O  O241  1  0.43300568  0.25877971  0.50253040  1
  O  O242  1  0.42744554  0.59540133  0.03621717  1
  O  O243  1  0.43431519  0.60260218  0.50554088  1
  O  O244  1  0.42168243  0.92193201  0.02533809  1
  O  O245  1  0.43787011  0.92055169  0.52943625  1
  O  O246  1  0.75375439  0.25374944  0.02135126  1
  O  O247  1  0.76425943  0.27564422  0.51752059  1
  O  O248  1  0.76280990  0.60542513  0.02325614  1
  O  O249  1  0.76177532  0.59497610  0.51288671  1
  O  O250  1  0.76560685  0.92058341  0.02804369  1
  O  O251  1  0.75292132  0.92288256  0.51595200  1
  O  O252  1  0.23119835  0.07560264  0.26262437  1
  O  O253  1  0.24110578  0.08249313  0.76786297  1
  O  O254  1  0.24139438  0.40292480  0.27741548  1
  O  O255  1  0.23270830  0.40528178  0.77105818  1
  O  O256  1  0.24800581  0.73329760  0.28304595  1
  O  O257  1  0.22409713  0.73360724  0.76816260  1
  O  O258  1  0.57838567  0.06025914  0.26660815  1
  O  O259  1  0.57664318  0.06546132  0.75316382  1
  O  O260  1  0.56353103  0.41467590  0.28219634  1
  O  O261  1  0.57252779  0.41258216  0.75820313  1
  O  O262  1  0.56492668  0.72887935  0.26814532  1
  O  O263  1  0.57104375  0.74813799  0.76450466  1
  O  O264  1  0.90653171  0.06801900  0.28233018  1
  O  O265  1  0.90889136  0.06056090  0.76974942  1
  O  O266  1  0.90077275  0.40223179  0.27439914  1
  O  O267  1  0.90963608  0.40044535  0.75664463  1
  O  O268  1  0.91346179  0.75057273  0.27303532  1
  O  O269  1  0.91618758  0.74494559  0.77988023  1
  O  O270  1  0.25722623  0.24217761  0.27350441  1
  O  O271  1  0.26147251  0.23602137  0.77711508  1
  O  O272  1  0.27524783  0.57376351  0.27947097  1
  O  O273  1  0.25725931  0.56696636  0.77461647  1
  O  O274  1  0.26995720  0.89671241  0.26966857  1
  O  O275  1  0.25438545  0.90008496  0.76659648  1
  O  O276  1  0.57980306  0.25236173  0.27817543  1
  O  O277  1  0.58920714  0.24047658  0.76101495  1
  O  O278  1  0.59254813  0.57087507  0.27705791  1
  O  O279  1  0.58514832  0.58184928  0.76207418  1
  O  O280  1  0.59914020  0.89306420  0.26421718  1
  O  O281  1  0.59950321  0.90162956  0.76136712  1
  O  O282  1  0.93319681  0.24407745  0.27734288  1
  O  O283  1  0.93896431  0.23883528  0.76041070  1
  O  O284  1  0.92280578  0.57250642  0.26560909  1
  O  O285  1  0.93584489  0.56855727  0.75104304  1
  O  O286  1  0.93041820  0.90746572  0.28175484  1
  O  O287  1  0.93744938  0.90428585  0.77452024  1
  O  O288  1  0.25502045  0.24593442  0.46932591  1
  O  O289  1  0.27033028  0.23741157  0.98126143  1
  O  O290  1  0.27253932  0.57438625  0.46854353  1
  O  O291  1  0.26574936  0.56806696  0.97557143  1
  O  O292  1  0.27320581  0.89020278  0.47884630  1
  O  O293  1  0.26519051  0.90731278  0.98498864  1
  O  O294  1  0.59433982  0.24791703  0.47355348  1
  O  O295  1  0.58862150  0.24397333  0.98455736  1
  O  O296  1  0.59445955  0.57007280  0.46891171  1
  O  O297  1  0.58827230  0.57522645  0.98669277  1
  O  O298  1  0.59889824  0.89431198  0.48778987  1
  O  O299  1  0.59438470  0.89748577  0.99428904  1
  O  O300  1  0.93307630  0.23872704  0.46812349  1
  O  O301  1  0.92729108  0.24156487  0.98790659  1
  O  O302  1  0.93449310  0.56820044  0.48566496  1
  O  O303  1  0.92750361  0.58068893  0.98257138  1
  O  O304  1  0.92907379  0.90380134  0.47397894  1
  O  O305  1  0.93030594  0.89334154  0.98459677  1
  O  O306  1  0.24019106  0.07567682  0.48902158  1
  O  O307  1  0.24461182  0.07230633  0.98669293  1
  O  O308  1  0.23830475  0.40699920  0.46775072  1
  O  O309  1  0.24679234  0.40521549  0.98161606  1
  O  O310  1  0.23919858  0.72809998  0.47307493  1
  O  O311  1  0.22576333  0.72943805  0.98237012  1
  O  O312  1  0.57057665  0.06475734  0.49606071  1
  O  O313  1  0.57140002  0.06872688  0.98009628  1
  O  O314  1  0.57020289  0.40885314  0.46568535  1
  O  O315  1  0.56516898  0.41944538  0.98820311  1
  O  O316  1  0.56937906  0.73025968  0.47461715  1
  O  O317  1  0.56255987  0.73336890  0.99523348  1
  O  O318  1  0.90012679  0.06555885  0.46645824  1
  O  O319  1  0.89403258  0.05492231  0.98487514  1
  O  O320  1  0.89334953  0.40243754  0.47532140  1
  O  O321  1  0.90670248  0.42006949  0.99513772  1
  O  O322  1  0.91624424  0.73724629  0.47829039  1
  O  O323  1  0.90702677  0.74024282  0.97783745  1
  O  O324  1  0.10169700  0.27036197  0.22945502  1
  O  O325  1  0.09679085  0.26700374  0.72600592  1
  O  O326  1  0.10110093  0.59816153  0.22278094  1
  O  O327  1  0.10580241  0.59548153  0.72459148  1
  O  O328  1  0.09545013  0.93718872  0.22541010  1
  O  O329  1  0.09449379  0.92272964  0.72615791  1
  O  O330  1  0.41462096  0.25802042  0.22867355  1
  O  O331  1  0.41292625  0.26479102  0.73607256  1
  O  O332  1  0.43096590  0.60111797  0.22334310  1
  O  O333  1  0.41933921  0.59162086  0.73207342  1
  O  O334  1  0.42992365  0.91519845  0.22726900  1
  O  O335  1  0.43392795  0.92345075  0.72240151  1
  O  O336  1  0.75084445  0.25348502  0.23057675  1
  O  O337  1  0.76590551  0.26125489  0.71945777  1
  O  O338  1  0.76386592  0.60184939  0.22991815  1
  O  O339  1  0.75853652  0.59274013  0.73909668  1
  O  O340  1  0.76495136  0.92477765  0.22668875  1
  O  O341  1  0.75728771  0.92634577  0.72919621  1
  O  O342  1  0.07163050  0.09442900  0.22606119  1
  O  O343  1  0.06871886  0.09945135  0.72924743  1
  O  O344  1  0.07764517  0.42136238  0.23001687  1
  O  O345  1  0.07088569  0.42949079  0.71839406  1
  O  O346  1  0.08326606  0.75291232  0.22386296  1
  O  O347  1  0.07474152  0.76437445  0.71864153  1
  O  O348  1  0.40304427  0.09699328  0.22250676  1
  O  O349  1  0.41316530  0.08350200  0.72579536  1
  O  O350  1  0.39489100  0.43718227  0.22985967  1
  O  O351  1  0.39210968  0.42668537  0.74264143  1
  O  O352  1  0.40398011  0.76182332  0.22261445  1
  O  O353  1  0.40590618  0.77103630  0.72491385  1
  O  O354  1  0.73516737  0.08148965  0.22883577  1
  O  O355  1  0.73680423  0.08443479  0.72525323  1
  O  O356  1  0.73812643  0.43657947  0.24130433  1
  O  O357  1  0.75112795  0.42101329  0.72046789  1
  O  O358  1  0.73819715  0.75873396  0.22375882  1
  O  O359  1  0.73707148  0.76516844  0.72743816  1
