# generated using pymatgen
data_BaLaInIrO6
_symmetry_space_group_name_H-M   'P 1'
_cell_length_a   17.50902987
_cell_length_b   17.53989447
_cell_length_c   16.48329487
_cell_angle_alpha   89.97527190
_cell_angle_beta   90.00009527
_cell_angle_gamma   90.01540261
_symmetry_Int_Tables_number   1
_chemical_formula_structural   BaLaInIrO6
_chemical_formula_sum   'Ba36 La36 In36 Ir36 O216'
_cell_volume   5062.12693760
_cell_formula_units_Z   36
loop_
 _symmetry_equiv_pos_site_id
 _symmetry_equiv_pos_as_xyz
  1  'x, y, z'
loop_
 _atom_site_type_symbol
 _atom_site_label
 _atom_site_symmetry_multiplicity
 _atom_site_fract_x
 _atom_site_fract_y
 _atom_site_fract_z
 _atom_site_occupancy
  Ba  Ba0  1  0.50097359  0.32521265  0.37488891  1
  Ba  Ba1  1  0.50136293  0.66040504  0.37581146  1
  Ba  Ba2  1  0.66741074  0.49365377  0.37378140  1
  Ba  Ba3  1  0.83472407  0.66144034  0.37572963  1
  Ba  Ba4  1  0.50209407  0.66135393  0.87826661  1
  Ba  Ba5  1  0.67130427  0.17474305  0.63083055  1
  Ba  Ba6  1  -0.00576252  0.48611502  0.37445072  1
  Ba  Ba7  1  0.49564224  0.32789668  0.87388334  1
  Ba  Ba8  1  0.83386145  0.99356763  0.37577062  1
  Ba  Ba9  1  0.66246690  0.17317674  0.12552663  1
  Ba  Ba10  1  0.16616236  0.00755479  0.62316489  1
  Ba  Ba11  1  0.50343787  0.99533149  0.87456888  1
  Ba  Ba12  1  1.00008424  0.84075853  0.12340658  1
  Ba  Ba13  1  0.66503256  0.50590007  0.12539959  1
  Ba  Ba14  1  0.33908186  0.83962930  0.12521446  1
  Ba  Ba15  1  0.32519494  0.16130027  0.88039888  1
  Ba  Ba16  1  0.67007470  0.82276377  0.87454596  1
  Ba  Ba17  1  0.00137940  0.15818323  0.37606492  1
  Ba  Ba18  1  1.00273460  0.17770733  0.62249164  1
  Ba  Ba19  1  0.16786365  0.65377826  0.87773129  1
  Ba  Ba20  1  0.16659273  0.32548579  0.87432773  1
  Ba  Ba21  1  -0.00090652  0.83165513  0.37846766  1
  Ba  Ba22  1  0.67053657  0.84366332  0.62773919  1
  Ba  Ba23  1  0.83113793  0.00948434  0.62613863  1
  Ba  Ba24  1  0.32781150  0.50622528  0.62328372  1
  Ba  Ba25  1  0.16690535  0.98649833  0.37995919  1
  Ba  Ba26  1  0.66405673  0.15820002  0.87906871  1
  Ba  Ba27  1  0.00030290  0.15522319  0.87337441  1
  Ba  Ba28  1  0.16909797  0.32658426  0.37763768  1
  Ba  Ba29  1  0.32731207  0.49212959  0.87208043  1
  Ba  Ba30  1  0.66866554  0.83981144  0.12076038  1
  Ba  Ba31  1  0.83477446  0.65622628  0.87554932  1
  Ba  Ba32  1  1.00352912  0.50817725  0.62446378  1
  Ba  Ba33  1  0.50349493  0.98885320  0.37735208  1
  Ba  Ba34  1  0.33584703  0.82095200  0.37924303  1
  Ba  Ba35  1  0.50286391  0.34224820  0.12075364  1
  La  La36  1  0.99737666  0.18239961  0.12613582  1
  La  La37  1  0.33778038  0.84240424  0.62760359  1
  La  La38  1  -0.00423829  0.48006933  0.87427832  1
  La  La39  1  0.16386578  0.68281988  0.12252492  1
  La  La40  1  0.50030583  0.01864665  0.62640325  1
  La  La41  1  0.82338698  0.34744815  0.12446114  1
  La  La42  1  0.66490652  0.15180117  0.37904329  1
  La  La43  1  0.16385683  0.67817244  0.62917620  1
  La  La44  1  0.33834147  0.18628229  0.12796574  1
  La  La45  1  1.00307043  0.51823576  0.12235613  1
  La  La46  1  0.16047989  0.34353575  0.62901966  1
  La  La47  1  0.33102477  0.49533058  0.37669780  1
  La  La48  1  0.83865964  0.31594078  0.87634525  1
  La  La49  1  0.49453090  0.01976539  0.12639337  1
  La  La50  1  0.83349129  0.34720032  0.62589106  1
  La  La51  1  0.65915319  0.81701877  0.37852623  1
  La  La52  1  0.66127333  0.49300429  0.87455071  1
  La  La53  1  0.83598658  0.98414935  0.87244771  1
  La  La54  1  0.16407195  0.01329366  0.12595460  1
  La  La55  1  0.83188962  0.68283263  0.12765950  1
  La  La56  1  0.49978941  0.67903952  0.12382162  1
  La  La57  1  -0.00561072  0.81654696  0.87317350  1
  La  La58  1  1.00176781  0.84539541  0.62536201  1
  La  La59  1  0.67190904  0.51179491  0.62535881  1
  La  La60  1  0.16108524  0.35131569  0.11962460  1
  La  La61  1  0.16833562  0.66316915  0.37589282  1
  La  La62  1  0.49974437  0.35222998  0.62522728  1
  La  La63  1  0.33814192  0.51414478  0.12151143  1
  La  La64  1  0.32397435  0.14673357  0.37175559  1
  La  La65  1  0.17289853  0.98738886  0.87426710  1
  La  La66  1  0.83873230  0.32127054  0.37514297  1
  La  La67  1  0.32908510  0.81642574  0.87518024  1
  La  La68  1  0.83099796  0.68286481  0.62261192  1
  La  La69  1  0.49799540  0.68019245  0.62703834  1
  La  La70  1  0.83376909  0.01073704  0.12316261  1
  La  La71  1  0.33763859  0.18507875  0.62135377  1
  In  In72  1  0.00025558  -0.00007321  0.24707347  1
  In  In73  1  0.83126679  0.16698679  0.24982334  1
  In  In74  1  0.67019084  0.66315546  0.00143162  1
  In  In75  1  0.33284461  -0.00142063  0.00123240  1
  In  In76  1  0.16656054  0.50176553  0.24745518  1
  In  In77  1  0.33324265  0.66258531  0.74876565  1
  In  In78  1  0.49536268  0.16958318  -0.00069760  1
  In  In79  1  0.16995154  0.16725939  0.49894975  1
  In  In80  1  0.50136093  0.83614095  0.25064384  1
  In  In81  1  0.66799022  0.33231094  0.25185452  1
  In  In82  1  0.33423372  0.00032533  0.75050178  1
  In  In83  1  0.66546906  -0.00119175  0.24809385  1
  In  In84  1  0.49845326  0.17072555  0.74839135  1
  In  In85  1  0.33132447  0.33619702  0.74805527  1
  In  In86  1  0.16732872  0.16500279  0.74966771  1
  In  In87  1  0.66922548  0.33388155  -0.00340250  1
  In  In88  1  0.66915742  0.33465914  0.75069400  1
  In  In89  1  0.33667349  -0.00387015  0.50120898  1
  In  In90  1  -0.00253106  0.00202927  0.50255600  1
  In  In91  1  0.00251497  0.66836997  0.25038507  1
  In  In92  1  0.83591983  0.50169734  0.24733353  1
  In  In93  1  0.16421292  0.83573798  0.00050664  1
  In  In94  1  0.33391478  0.66517294  0.24983945  1
  In  In95  1  0.66640341  0.33404662  0.50140368  1
  In  In96  1  0.83213801  0.83575301  0.25224521  1
  In  In97  1  0.16439522  0.50317516  0.49873186  1
  In  In98  1  0.66811264  -0.00123950  0.75216212  1
  In  In99  1  0.83346488  0.50151716  0.50192063  1
  In  In100  1  0.00115376  0.66844827  0.50277700  1
  In  In101  1  0.16216108  0.16596403  0.00267866  1
  In  In102  1  0.16686214  0.17070908  0.24545838  1
  In  In103  1  0.16457911  0.83108977  0.75274811  1
  In  In104  1  0.66872442  0.66631384  0.74891064  1
  In  In105  1  0.33559653  0.33531143  0.49519363  1
  In  In106  1  0.49769694  0.50064700  0.25019287  1
  In  In107  1  0.50260163  0.83711948  -0.00223724  1
  Ir  Ir108  1  0.16940525  0.82640914  0.50235955  1
  Ir  Ir109  1  0.49975429  0.83341204  0.74690608  1
  Ir  Ir110  1  0.83984969  0.83416191  -0.00373422  1
  Ir  Ir111  1  0.15794128  0.49931598  0.75198842  1
  Ir  Ir112  1  0.83058216  0.17102145  0.50501148  1
  Ir  Ir113  1  0.33046594  0.66230141  0.00054588  1
  Ir  Ir114  1  0.66382915  0.66662465  0.50271364  1
  Ir  Ir115  1  0.50076177  0.50551505  0.50499447  1
  Ir  Ir116  1  -0.00006014  -0.00225905  0.75372811  1
  Ir  Ir117  1  0.32683714  0.33881253  0.00392452  1
  Ir  Ir118  1  0.83768656  0.16318002  -0.00375337  1
  Ir  Ir119  1  -0.00313306  0.33109374  0.50048192  1
  Ir  Ir120  1  0.82792426  0.83374309  0.50325086  1
  Ir  Ir121  1  0.50459537  0.83300205  0.50647349  1
  Ir  Ir122  1  0.67186707  0.00069263  0.00175571  1
  Ir  Ir123  1  0.00011702  0.66323919  -0.00443845  1
  Ir  Ir124  1  0.33145311  0.33575194  0.24719192  1
  Ir  Ir125  1  0.33458093  0.66748766  0.50265676  1
  Ir  Ir126  1  0.83847035  0.49948639  -0.00371053  1
  Ir  Ir127  1  0.50135045  0.16696614  0.49858605  1
  Ir  Ir128  1  0.32984040  -0.00165146  0.24861458  1
  Ir  Ir129  1  0.83826171  0.16776758  0.75063997  1
  Ir  Ir130  1  -0.00265799  0.33224523  0.24509543  1
  Ir  Ir131  1  0.66588418  0.00031775  0.50038008  1
  Ir  Ir132  1  0.49679841  0.50077601  -0.00534753  1
  Ir  Ir133  1  0.66692470  0.66735657  0.25057222  1
  Ir  Ir134  1  0.17092721  0.83294162  0.25077403  1
  Ir  Ir135  1  0.83446291  0.50018998  0.75225509  1
  Ir  Ir136  1  0.84015661  0.83219601  0.75048436  1
  Ir  Ir137  1  -0.00283083  0.66371476  0.75099647  1
  Ir  Ir138  1  0.49202520  0.16681189  0.25554895  1
  Ir  Ir139  1  -0.00583156  0.33471442  0.00326327  1
  Ir  Ir140  1  -0.00203903  0.00085548  -0.00307746  1
  Ir  Ir141  1  0.50336924  0.50223985  0.74928976  1
  Ir  Ir142  1  0.16393676  0.50031948  0.00175684  1
  Ir  Ir143  1  -0.00464884  0.33521244  0.75135217  1
  O  O144  1  0.30025941  0.32622517  0.12682087  1
  O  O145  1  0.29798014  0.33035161  0.61968543  1
  O  O146  1  0.30044851  0.65559309  0.11989888  1
  O  O147  1  0.30411669  0.67023237  0.62049136  1
  O  O148  1  0.29848088  0.99167685  0.13089666  1
  O  O149  1  0.31306376  0.97572092  0.62545725  1
  O  O150  1  0.65547314  0.33082239  0.12268317  1
  O  O151  1  0.63448222  0.33271082  0.62590391  1
  O  O152  1  0.63887602  0.66500728  0.13026787  1
  O  O153  1  0.63486871  0.65552094  0.62270392  1
  O  O154  1  0.63638531  0.99862652  0.12001908  1
  O  O155  1  0.64200378  0.99863021  0.62048325  1
  O  O156  1  0.96161692  0.32680434  0.12475819  1
  O  O157  1  0.96798094  0.33539482  0.62577272  1
  O  O158  1  0.96899745  0.65879758  0.11335328  1
  O  O159  1  0.96604811  0.66256137  0.63363114  1
  O  O160  1  0.96619652  0.99355453  0.11305412  1
  O  O161  1  0.97802058  0.98385820  0.63322182  1
  O  O162  1  0.20260091  0.15307681  0.12410370  1
  O  O163  1  0.19966140  0.16865823  0.62418139  1
  O  O164  1  0.19660980  0.49113751  0.11954433  1
  O  O165  1  0.17338799  0.48488460  0.63064854  1
  O  O166  1  0.18849282  0.82470919  0.12945073  1
  O  O167  1  0.19765273  0.81981118  0.62255179  1
  O  O168  1  0.50972745  0.16618358  0.13446640  1
  O  O169  1  0.52567460  0.15806320  0.61507589  1
  O  O170  1  0.51355258  0.49782747  0.11297818  1
  O  O171  1  0.53456458  0.49593809  0.62739859  1
  O  O172  1  0.51680683  0.81656777  0.12480714  1
  O  O173  1  0.52490726  0.81810680  0.62665543  1
  O  O174  1  0.86302200  0.15300374  0.11488213  1
  O  O175  1  0.85588345  0.16177569  0.62863932  1
  O  O176  1  0.87063008  0.48547335  0.11340983  1
  O  O177  1  0.85840609  0.48620818  0.63463525  1
  O  O178  1  0.85154272  0.82200248  0.11617553  1
  O  O179  1  0.86456502  0.82386367  0.62799939  1
  O  O180  1  0.15188859  0.17234913  0.37025988  1
  O  O181  1  0.14893139  0.17327133  0.87746565  1
  O  O182  1  0.14323934  0.52261455  0.37218959  1
  O  O183  1  0.13186059  0.50301223  0.87791052  1
  O  O184  1  0.14821570  0.82416665  0.37665431  1
  O  O185  1  0.12890540  0.84339080  0.87690184  1
  O  O186  1  0.46343002  0.16721372  0.37756279  1
  O  O187  1  0.47483629  0.16347986  0.87447184  1
  O  O188  1  0.46742462  0.50745821  0.38421987  1
  O  O189  1  0.47591267  0.50612600  0.87128967  1
  O  O190  1  0.48777419  0.83284980  0.38558910  1
  O  O191  1  0.46711308  0.83694376  0.86725864  1
  O  O192  1  0.80433844  0.18307721  0.38469653  1
  O  O193  1  0.81497608  0.17847343  0.87305386  1
  O  O194  1  0.81811904  0.50261165  0.37503326  1
  O  O195  1  0.80194489  0.50527866  0.87422498  1
  O  O196  1  0.79746780  0.83527850  0.38324036  1
  O  O197  1  0.81868280  0.84373084  0.87395812  1
  O  O198  1  0.01452612  -0.00175137  0.37589070  1
  O  O199  1  0.03312555  0.00212353  0.87625215  1
  O  O200  1  0.02094410  0.32945163  0.37015140  1
  O  O201  1  0.01898108  0.34106071  0.87830365  1
  O  O202  1  0.03250515  0.67431143  0.37647770  1
  O  O203  1  0.02215368  0.67523232  0.87211946  1
  O  O204  1  0.35457401  0.00342577  0.36932450  1
  O  O205  1  0.35613407  0.00867875  0.87570975  1
  O  O206  1  0.35355086  0.35570179  0.36561759  1
  O  O207  1  0.34399897  0.33908171  0.88203100  1
  O  O208  1  0.35153258  0.66203386  0.38251447  1
  O  O209  1  0.35109051  0.67015406  0.87904742  1
  O  O210  1  0.68116075  0.01046006  0.38040864  1
  O  O211  1  0.69993873  0.00272032  0.88110698  1
  O  O212  1  0.70136222  0.33611607  0.37813466  1
  O  O213  1  0.70364772  0.35109387  0.87418477  1
  O  O214  1  0.68832681  0.67748925  0.37716063  1
  O  O215  1  0.68436829  0.65648604  0.87403501  1
  O  O216  1  0.05756008  0.09615440  0.02796303  1
  O  O217  1  0.07710101  0.08978159  0.51727686  1
  O  O218  1  0.06577339  0.43025807  0.02698053  1
  O  O219  1  0.07221581  0.41784772  0.51403283  1
  O  O220  1  0.07521958  0.74996575  0.01735251  1
  O  O221  1  0.07695885  0.76153170  0.53515392  1
  O  O222  1  0.40197886  0.09685168  0.03605036  1
  O  O223  1  0.41070291  0.09828450  0.52352505  1
  O  O224  1  0.39703074  0.43437539  0.01894658  1
  O  O225  1  0.41748324  0.42819493  0.52570355  1
  O  O226  1  0.40477155  0.74834463  0.01543071  1
  O  O227  1  0.40746843  0.76349701  0.53081569  1
  O  O228  1  0.74802396  0.08915706  0.02615955  1
  O  O229  1  0.73085922  0.10248850  0.51033521  1
  O  O230  1  0.75027763  0.43095487  0.01742989  1
  O  O231  1  0.73961255  0.42943439  0.53426787  1
  O  O232  1  0.75437100  0.75596085  0.01465954  1
  O  O233  1  0.74017040  0.75501590  0.52531400  1
  O  O234  1  0.08436409  0.26459445  0.03422899  1
  O  O235  1  0.09468397  0.26789992  0.52350319  1
  O  O236  1  0.09379620  0.59374359  0.02796786  1
  O  O237  1  0.10481909  0.60461250  0.52738808  1
  O  O238  1  0.09405228  0.93895113  0.02384315  1
  O  O239  1  0.09239978  0.91157245  0.52135577  1
  O  O240  1  0.41280050  0.26507142  0.02085119  1
  O  O241  1  0.43708241  0.26096413  0.52631546  1
  O  O242  1  0.42477656  0.59334073  0.02546546  1
  O  O243  1  0.43125922  0.60208747  0.52932375  1
  O  O244  1  0.43567236  0.93414368  0.02824693  1
  O  O245  1  0.43788046  0.92493466  0.52823476  1
  O  O246  1  0.77467639  0.25969102  0.01425545  1
  O  O247  1  0.76938657  0.26553393  0.52859433  1
  O  O248  1  0.77445303  0.59227751  0.02699284  1
  O  O249  1  0.75446344  0.59751600  0.53100427  1
  O  O250  1  0.77276869  0.93194260  0.01750897  1
  O  O251  1  0.75696037  0.92908487  0.51953389  1
  O  O252  1  0.24032777  0.06658893  0.26843523  1
  O  O253  1  0.22809293  0.06046882  0.77195521  1
  O  O254  1  0.23439947  0.39665906  0.25639095  1
  O  O255  1  0.22855124  0.40896799  0.76029534  1
  O  O256  1  0.23103458  0.73232832  0.26624988  1
  O  O257  1  0.24260102  0.73996362  0.77157818  1
  O  O258  1  0.55782852  0.07255929  0.25952319  1
  O  O259  1  0.57122509  0.06981280  0.75244254  1
  O  O260  1  0.57316454  0.40960525  0.26412546  1
  O  O261  1  0.57421994  0.41501226  0.77073416  1
  O  O262  1  0.58020851  0.73867357  0.26868489  1
  O  O263  1  0.56836346  0.74052936  0.76101773  1
  O  O264  1  0.90070192  0.07126753  0.25480460  1
  O  O265  1  0.90345034  0.06615024  0.77539553  1
  O  O266  1  0.90360171  0.39255373  0.26944240  1
  O  O267  1  0.89856469  0.40346041  0.77926627  1
  O  O268  1  0.90246086  0.73555469  0.25389355  1
  O  O269  1  0.90986100  0.73983462  0.77133695  1
  O  O270  1  0.27413224  0.23672734  0.26693564  1
  O  O271  1  0.26614065  0.23674448  0.75875852  1
  O  O272  1  0.27188338  0.56182468  0.26717138  1
  O  O273  1  0.24863803  0.57014696  0.75726894  1
  O  O274  1  0.26673150  0.90109807  0.26993081  1
  O  O275  1  0.26461947  0.89781347  0.77900840  1
  O  O276  1  0.59038791  0.22885495  0.27777935  1
  O  O277  1  0.59438465  0.24366685  0.77061354  1
  O  O278  1  0.59555310  0.57987112  0.26574852  1
  O  O279  1  0.59946569  0.56435889  0.76581527  1
  O  O280  1  0.60254301  0.89881504  0.27543189  1
  O  O281  1  0.59109865  0.90110848  0.76685623  1
  O  O282  1  0.93514206  0.23756556  0.26064800  1
  O  O283  1  0.92834609  0.24250349  0.76905431  1
  O  O284  1  0.93807256  0.56482310  0.25050291  1
  O  O285  1  0.93200816  0.56530107  0.77784340  1
  O  O286  1  0.93060895  0.90265207  0.25963914  1
  O  O287  1  0.93282586  0.90294676  0.77765181  1
  O  O288  1  0.27579191  0.23295850  0.47381809  1
  O  O289  1  0.25714121  0.24881982  0.99530636  1
  O  O290  1  0.26772016  0.57712443  0.47978921  1
  O  O291  1  0.25959698  0.56779136  0.98482670  1
  O  O292  1  0.25973306  0.89499918  0.48791113  1
  O  O293  1  0.26433829  0.89762638  0.96955527  1
  O  O294  1  0.59440686  0.23280070  0.47431787  1
  O  O295  1  0.58751157  0.24604206  0.98555214  1
  O  O296  1  0.59384147  0.57489748  0.48405581  1
  O  O297  1  0.59194142  0.56613350  0.97783070  1
  O  O298  1  0.60282037  0.89987207  0.48184575  1
  O  O299  1  0.60319713  0.91250915  0.97963756  1
  O  O300  1  0.92238397  0.24032855  0.47998128  1
  O  O301  1  0.92780199  0.23938358  0.97768380  1
  O  O302  1  0.92704382  0.57552393  0.48858063  1
  O  O303  1  0.93622247  0.56391668  0.97509575  1
  O  O304  1  0.91762429  0.90470045  0.49388125  1
  O  O305  1  0.93327771  0.90615263  0.96739147  1
  O  O306  1  0.24960331  0.07431262  0.47845981  1
  O  O307  1  0.22328924  0.05837835  0.98526878  1
  O  O308  1  0.24916207  0.42044682  0.47647435  1
  O  O309  1  0.23011040  0.40525011  0.98827673  1
  O  O310  1  0.23549858  0.73016941  0.47966990  1
  O  O311  1  0.24349455  0.73699450  0.98437930  1
  O  O312  1  0.57264058  0.07324607  0.47973249  1
  O  O313  1  0.58072714  0.07182638  0.99304219  1
  O  O314  1  0.57016030  0.41562081  0.48569619  1
  O  O315  1  0.57473882  0.41749945  0.97309107  1
  O  O316  1  0.57557246  0.74115075  0.48327992  1
  O  O317  1  0.57762202  0.74149762  0.98891880  1
  O  O318  1  0.89911677  0.08109170  0.48753687  1
  O  O319  1  0.90017076  0.06343746  0.97245090  1
  O  O320  1  0.89969160  0.39408769  0.48349808  1
  O  O321  1  0.90333006  0.40465312  0.96824397  1
  O  O322  1  0.90110045  0.74582386  0.49054043  1
  O  O323  1  0.91495707  0.74392961  0.97091163  1
  O  O324  1  0.09179462  0.26820649  0.21520915  1
  O  O325  1  0.09086741  0.27041442  0.72659230  1
  O  O326  1  0.09935058  0.59935062  0.21329110  1
  O  O327  1  0.09284364  0.59916936  0.72847615  1
  O  O328  1  0.10780005  0.92875664  0.22870159  1
  O  O329  1  0.08660926  0.92452999  0.73028209  1
  O  O330  1  0.42514255  0.26587416  0.23299858  1
  O  O331  1  0.42841268  0.26695554  0.71289646  1
  O  O332  1  0.42977238  0.59428377  0.21591381  1
  O  O333  1  0.43560282  0.59621534  0.72521615  1
  O  O334  1  0.42889086  0.93833849  0.22603674  1
  O  O335  1  0.43618733  0.92498923  0.71965226  1
  O  O336  1  0.77242689  0.26799728  0.22877510  1
  O  O337  1  0.77644370  0.26649049  0.73255413  1
  O  O338  1  0.76224166  0.60237125  0.22531929  1
  O  O339  1  0.76934536  0.59210103  0.71954342  1
  O  O340  1  0.76695366  0.93496569  0.22189598  1
  O  O341  1  0.76736288  0.92223677  0.74052235  1
  O  O342  1  0.07165449  0.09562797  0.21358037  1
  O  O343  1  0.06566186  0.08801383  0.73255877  1
  O  O344  1  0.06486993  0.42678264  0.21886214  1
  O  O345  1  0.06158450  0.43070256  0.74403204  1
  O  O346  1  0.08219767  0.76302597  0.22971566  1
  O  O347  1  0.06580335  0.75645633  0.72385935  1
  O  O348  1  0.39243409  0.09966612  0.22976541  1
  O  O349  1  0.40376897  0.09608761  0.71033022  1
  O  O350  1  0.39157928  0.43317343  0.22646305  1
  O  O351  1  0.41411651  0.42997499  0.72921141  1
  O  O352  1  0.41234581  0.75444220  0.23633670  1
  O  O353  1  0.40692728  0.76411427  0.72685550  1
  O  O354  1  0.72816889  0.10203965  0.24877009  1
  O  O355  1  0.74937696  0.09589486  0.74167458  1
  O  O356  1  0.74785442  0.42526435  0.22438854  1
  O  O357  1  0.73975745  0.43701834  0.72715716  1
  O  O358  1  0.73750768  0.75620142  0.23447184  1
  O  O359  1  0.75359362  0.75539951  0.72803395  1
