# generated using pymatgen
data_BaLaInIrO6
_symmetry_space_group_name_H-M   'P 1'
_cell_length_a   17.51503808
_cell_length_b   17.54203550
_cell_length_c   16.49325522
_cell_angle_alpha   90.02111658
_cell_angle_beta   90.01356945
_cell_angle_gamma   89.97894416
_symmetry_Int_Tables_number   1
_chemical_formula_structural   BaLaInIrO6
_chemical_formula_sum   'Ba36 La36 In36 Ir36 O216'
_cell_volume   5067.54226727
_cell_formula_units_Z   36
loop_
 _symmetry_equiv_pos_site_id
 _symmetry_equiv_pos_as_xyz
  1  'x, y, z'
loop_
 _atom_site_type_symbol
 _atom_site_label
 _atom_site_symmetry_multiplicity
 _atom_site_fract_x
 _atom_site_fract_y
 _atom_site_fract_z
 _atom_site_occupancy
  Ba  Ba0  1  0.66354362  0.49290862  0.37548066  1
  Ba  Ba1  1  0.50180330  0.33819949  0.12801174  1
  Ba  Ba2  1  0.66796651  0.17771989  0.62738082  1
  Ba  Ba3  1  -0.00352301  0.82615645  0.87442176  1
  Ba  Ba4  1  -0.00645504  0.15689481  0.37520929  1
  Ba  Ba5  1  0.66767717  0.82561823  0.87416441  1
  Ba  Ba6  1  0.50035814  0.67510794  0.12353287  1
  Ba  Ba7  1  1.00297008  0.50783558  0.62523808  1
  Ba  Ba8  1  0.49826823  0.00647168  0.62630011  1
  Ba  Ba9  1  0.16842197  0.65986429  0.88121950  1
  Ba  Ba10  1  -0.00381794  0.15879868  0.87205016  1
  Ba  Ba11  1  0.83650819  0.98996501  0.87520622  1
  Ba  Ba12  1  0.33494216  0.17786118  0.62831157  1
  Ba  Ba13  1  0.16614207  0.67562787  0.12527698  1
  Ba  Ba14  1  0.66974097  0.84335062  0.62526371  1
  Ba  Ba15  1  0.83252516  0.00308618  0.12355942  1
  Ba  Ba16  1  0.49633444  0.34264296  0.62600732  1
  Ba  Ba17  1  0.33603585  0.49257317  0.36883074  1
  Ba  Ba18  1  0.33099680  0.16141936  0.87644274  1
  Ba  Ba19  1  0.83141890  0.67413121  0.62201716  1
  Ba  Ba20  1  0.66174433  0.15787970  0.37509800  1
  Ba  Ba21  1  0.16676087  0.32845993  0.87910280  1
  Ba  Ba22  1  0.66623582  0.84180013  0.12332423  1
  Ba  Ba23  1  0.33669081  0.16281381  0.37574032  1
  Ba  Ba24  1  0.33706541  0.49342397  0.88092420  1
  Ba  Ba25  1  1.00116653  0.84444491  0.12591458  1
  Ba  Ba26  1  0.16962493  0.99433273  0.87429236  1
  Ba  Ba27  1  0.16935777  0.65366233  0.37002386  1
  Ba  Ba28  1  0.49934898  0.00434931  0.12487769  1
  Ba  Ba29  1  0.82614982  0.00734671  0.62832738  1
  Ba  Ba30  1  0.66973850  0.82658188  0.37122968  1
  Ba  Ba31  1  0.83840075  0.32405125  0.87691999  1
  Ba  Ba32  1  0.17139111  0.33690693  0.62908018  1
  Ba  Ba33  1  0.83298978  0.99364203  0.37636742  1
  Ba  Ba34  1  0.83281768  0.32186766  0.37535931  1
  Ba  Ba35  1  0.83066473  0.68198157  0.12407405  1
  La  La36  1  0.66994448  0.18151223  0.12221697  1
  La  La37  1  0.50835882  0.98117633  0.37886429  1
  La  La38  1  0.32703610  0.82056452  0.37215837  1
  La  La39  1  0.33516074  0.51670651  0.12327652  1
  La  La40  1  0.83957921  0.65859040  0.87388966  1
  La  La41  1  0.83944626  0.64993573  0.37323722  1
  La  La42  1  0.16404400  0.02100781  0.62269114  1
  La  La43  1  0.33653624  0.84788130  0.12053986  1
  La  La44  1  0.16703675  0.32140549  0.37628273  1
  La  La45  1  -0.00853583  0.82005303  0.37253735  1
  La  La46  1  0.50147580  0.98432630  0.87322264  1
  La  La47  1  0.99907926  0.18038727  0.12659065  1
  La  La48  1  0.66719493  0.14746722  0.87382307  1
  La  La49  1  -0.00441100  0.49151178  0.87134939  1
  La  La50  1  0.16052756  0.01770849  0.12719342  1
  La  La51  1  1.00203485  0.85200385  0.62361023  1
  La  La52  1  0.50476759  0.65266772  0.87834749  1
  La  La53  1  0.33811281  0.17837586  0.12117304  1
  La  La54  1  0.16616396  0.34599496  0.12915822  1
  La  La55  1  0.67575504  0.52378514  0.12699376  1
  La  La56  1  0.50705898  0.31855413  0.38351531  1
  La  La57  1  0.33859260  0.84411056  0.62806210  1
  La  La58  1  0.49832898  0.66165527  0.36564128  1
  La  La59  1  0.82655236  0.34667580  0.62644258  1
  La  La60  1  0.67056984  0.51163476  0.62180204  1
  La  La61  1  0.82829831  0.34727891  0.12537871  1
  La  La62  1  0.49961036  0.67484053  0.62617144  1
  La  La63  1  1.00182440  0.50680120  0.12685309  1
  La  La64  1  0.32612351  0.82123191  0.87633731  1
  La  La65  1  0.32779264  0.50321830  0.62721364  1
  La  La66  1  0.66139019  0.48194836  0.87625976  1
  La  La67  1  0.16162366  0.67756079  0.62888333  1
  La  La68  1  -0.00558641  0.48068871  0.37498331  1
  La  La69  1  0.50902711  0.31155270  0.87459710  1
  La  La70  1  0.99958429  0.18288438  0.62351689  1
  La  La71  1  0.16756080  0.98627222  0.37164596  1
  In  In72  1  0.83129203  0.16566962  0.50206143  1
  In  In73  1  0.33373493  0.66410747  0.75133445  1
  In  In74  1  0.83028907  0.50157696  -0.00300732  1
  In  In75  1  0.16661474  0.83703765  0.00319405  1
  In  In76  1  0.00156737  0.66518246  0.24830306  1
  In  In77  1  0.16740499  0.50123126  0.75530847  1
  In  In78  1  0.16638345  0.83435298  0.49802161  1
  In  In79  1  0.66652265  0.66598762  0.49650179  1
  In  In80  1  0.50084848  0.50399796  0.50270839  1
  In  In81  1  0.49880298  0.16513625  0.50394631  1
  In  In82  1  0.16687083  0.49879280  0.49732983  1
  In  In83  1  0.16652534  0.83503296  0.75019918  1
  In  In84  1  0.66670539  0.33539206  0.25038204  1
  In  In85  1  0.66319190  0.00076646  0.24739280  1
  In  In86  1  0.50495407  0.49647256  0.00343029  1
  In  In87  1  0.33219106  0.00248217  0.24954791  1
  In  In88  1  0.49763845  0.82710120  0.50026442  1
  In  In89  1  0.50095429  0.82798488  0.75126848  1
  In  In90  1  0.33311527  0.33752061  0.49753873  1
  In  In91  1  -0.00130254  0.66575425  0.00002918  1
  In  In92  1  0.83389627  0.16544655  -0.00038990  1
  In  In93  1  0.33710273  0.33558015  0.00406440  1
  In  In94  1  -0.00302017  0.33717974  0.74829148  1
  In  In95  1  0.33230816  -0.00052419  0.49552690  1
  In  In96  1  0.33292050  -0.00017500  0.75063343  1
  In  In97  1  0.49942629  0.16327871  0.24681621  1
  In  In98  1  0.33055927  0.66504910  0.50112006  1
  In  In99  1  0.16431217  0.16878002  0.75373846  1
  In  In100  1  0.00213342  0.66713712  0.50017501  1
  In  In101  1  0.83259908  0.16570471  0.24800796  1
  In  In102  1  0.00233910  0.33442630  0.00310265  1
  In  In103  1  0.83371132  0.83078235  0.74883087  1
  In  In104  1  0.33757051  0.33644663  0.75610330  1
  In  In105  1  0.83418371  0.83140362  0.49878310  1
  In  In106  1  0.50047303  0.49762677  0.24806001  1
  In  In107  1  0.00128702  0.00138629  -0.00071939  1
  Ir  Ir108  1  0.82756543  0.50218939  0.74761498  1
  Ir  Ir109  1  0.50455709  0.16576262  0.75586436  1
  Ir  Ir110  1  0.66125260  -0.00119793  -0.00486760  1
  Ir  Ir111  1  0.33701600  0.66914313  0.00260814  1
  Ir  Ir112  1  -0.00218238  0.33326716  0.49834022  1
  Ir  Ir113  1  0.66838742  0.33402422  0.75151351  1
  Ir  Ir114  1  0.32841845  0.33316141  0.24830724  1
  Ir  Ir115  1  0.66779636  0.33100249  -0.00375993  1
  Ir  Ir116  1  0.67189937  0.66889887  0.24836509  1
  Ir  Ir117  1  0.16693815  0.83655594  0.25085284  1
  Ir  Ir118  1  0.66855851  0.66884318  -0.00464256  1
  Ir  Ir119  1  0.50402280  0.16163547  -0.00262267  1
  Ir  Ir120  1  0.66766297  0.66022422  0.75481723  1
  Ir  Ir121  1  -0.00168296  0.66638432  0.74829160  1
  Ir  Ir122  1  0.50802261  0.50166327  0.75280700  1
  Ir  Ir123  1  0.15889188  0.16730362  0.49464700  1
  Ir  Ir124  1  0.82871186  0.83255893  -0.00053470  1
  Ir  Ir125  1  0.16595273  0.49624454  0.24756008  1
  Ir  Ir126  1  0.49425105  0.82905317  0.24479929  1
  Ir  Ir127  1  0.33495560  0.00155012  0.00173962  1
  Ir  Ir128  1  0.83167727  0.16710462  0.74880708  1
  Ir  Ir129  1  0.49505711  0.83306918  -0.00041233  1
  Ir  Ir130  1  0.83370349  0.83415067  0.24873726  1
  Ir  Ir131  1  0.83554322  0.49881980  0.25218698  1
  Ir  Ir132  1  0.00124971  0.33485930  0.24986136  1
  Ir  Ir133  1  0.00432148  0.00013549  0.25229437  1
  Ir  Ir134  1  0.83553634  0.49598962  0.49887776  1
  Ir  Ir135  1  -0.00195418  0.00278245  0.74194306  1
  Ir  Ir136  1  0.16723464  0.50005398  0.00804767  1
  Ir  Ir137  1  0.00396647  0.00145168  0.49986262  1
  Ir  Ir138  1  0.16437416  0.16941847  0.25136277  1
  Ir  Ir139  1  0.66546801  0.00205854  0.75174631  1
  Ir  Ir140  1  0.33187365  0.66903031  0.24462008  1
  Ir  Ir141  1  0.17133277  0.16680215  0.00977955  1
  Ir  Ir142  1  0.66469962  -0.00145841  0.50099412  1
  Ir  Ir143  1  0.66733104  0.33538116  0.50523163  1
  O  O144  1  0.29957014  0.32043137  0.13011934  1
  O  O145  1  0.32347738  0.34132179  0.62733045  1
  O  O146  1  0.31135401  0.65531000  0.12317304  1
  O  O147  1  0.29644301  0.64493373  0.62685391  1
  O  O148  1  0.30043619  0.99044325  0.12168500  1
  O  O149  1  0.29715106  0.98317436  0.62163100  1
  O  O150  1  0.64881525  0.32215885  0.11440529  1
  O  O151  1  0.64668799  0.34128207  0.62899486  1
  O  O152  1  0.64755217  0.66202485  0.12055987  1
  O  O153  1  0.63767786  0.65515903  0.63525765  1
  O  O154  1  0.64709746  0.99617074  0.11451575  1
  O  O155  1  0.64761414  1.00085548  0.62769316  1
  O  O156  1  0.96810422  0.33446731  0.13173594  1
  O  O157  1  0.96685121  0.33081797  0.61884724  1
  O  O158  1  0.97604102  0.64457212  0.12576204  1
  O  O159  1  0.97857499  0.66267438  0.63047746  1
  O  O160  1  0.98655295  1.00035538  0.13410473  1
  O  O161  1  0.97492315  0.99108506  0.61945304  1
  O  O162  1  0.20123492  0.15703583  0.13226255  1
  O  O163  1  0.18036570  0.15984373  0.61424491  1
  O  O164  1  0.20109576  0.48873362  0.12832540  1
  O  O165  1  0.19355767  0.49060927  0.62531562  1
  O  O166  1  0.20002534  0.83460001  0.13215052  1
  O  O167  1  0.20089974  0.81826401  0.62405253  1
  O  O168  1  0.53530526  0.15811789  0.11474344  1
  O  O169  1  0.51993554  0.16716389  0.63621885  1
  O  O170  1  0.54168012  0.49727330  0.12592315  1
  O  O171  1  0.53538481  0.49790256  0.63583272  1
  O  O172  1  0.51896012  0.83044771  0.12239514  1
  O  O173  1  0.52704929  0.81121455  0.62632247  1
  O  O174  1  0.86420965  0.16032989  0.12543765  1
  O  O175  1  0.86038032  0.16476642  0.62896001  1
  O  O176  1  0.86204624  0.49010709  0.13062220  1
  O  O177  1  0.85490549  0.48539634  0.62321269  1
  O  O178  1  0.84961278  0.83711544  0.12492840  1
  O  O179  1  0.86508804  0.83106377  0.62419203  1
  O  O180  1  0.13748514  0.18322626  0.37148726  1
  O  O181  1  0.14764669  0.16734549  0.88940916  1
  O  O182  1  0.13121939  0.49766060  0.36519475  1
  O  O183  1  0.13163624  0.50240659  0.89021455  1
  O  O184  1  0.12795905  0.84551803  0.36781524  1
  O  O185  1  0.14562361  0.83936793  0.87684487  1
  O  O186  1  0.49034006  0.18436103  0.37329654  1
  O  O187  1  0.48099495  0.17251209  0.87747905  1
  O  O188  1  0.48757557  0.52403105  0.37245788  1
  O  O189  1  0.48968781  0.51054896  0.87306000  1
  O  O190  1  0.46751210  0.83177808  0.36520671  1
  O  O191  1  0.46600931  0.83949262  0.87996950  1
  O  O192  1  0.81721661  0.16627635  0.37508809  1
  O  O193  1  0.80392416  0.17137155  0.87015932  1
  O  O194  1  0.81116686  0.50850098  0.37571390  1
  O  O195  1  0.79676575  0.51224717  0.86680318  1
  O  O196  1  0.82297099  0.83727887  0.36754618  1
  O  O197  1  0.81823416  0.82921306  0.87879157  1
  O  O198  1  0.03274173  0.00362051  0.37709208  1
  O  O199  1  0.01883930  0.00281281  0.86247496  1
  O  O200  1  0.02986070  0.33906633  0.37365752  1
  O  O201  1  0.01454324  0.34703909  0.87678949  1
  O  O202  1  0.02112159  0.68065412  0.37231443  1
  O  O203  1  0.01659147  0.66538788  0.86688223  1
  O  O204  1  0.37351300  0.00547503  0.36979662  1
  O  O205  1  0.36575035  0.00702961  0.88289748  1
  O  O206  1  0.36579488  0.33741125  0.36406423  1
  O  O207  1  0.37333340  0.33648997  0.88167354  1
  O  O208  1  0.36276427  0.67836821  0.36385950  1
  O  O209  1  0.36895652  0.68043878  0.88345456  1
  O  O210  1  0.67859106  -0.00327679  0.38079334  1
  O  O211  1  0.68629209  0.00811256  0.87369695  1
  O  O212  1  0.68314880  0.33048828  0.38448265  1
  O  O213  1  0.69202626  0.34358818  0.87323507  1
  O  O214  1  0.70232093  0.66571493  0.36691764  1
  O  O215  1  0.70165498  0.66674588  0.87499883  1
  O  O216  1  0.07865126  0.10091850  0.03355067  1
  O  O217  1  0.06496979  0.09958545  0.52473807  1
  O  O218  1  0.08130017  0.42614058  0.03755770  1
  O  O219  1  0.06428995  0.42569867  0.50676754  1
  O  O220  1  0.07601199  0.75597130  0.01623275  1
  O  O221  1  0.06563833  0.77119552  0.52576131  1
  O  O222  1  0.40519383  0.09724788  0.02494639  1
  O  O223  1  0.40255855  0.09447804  0.52015856  1
  O  O224  1  0.40564455  0.43198186  0.03239330  1
  O  O225  1  0.39932482  0.44155205  0.52070778  1
  O  O226  1  0.40139353  0.76488995  0.02583423  1
  O  O227  1  0.39607789  0.76381853  0.52924807  1
  O  O228  1  0.72565924  0.09687551  0.01255120  1
  O  O229  1  0.73517584  0.08886190  0.51518586  1
  O  O230  1  0.73157913  0.42792943  0.02207460  1
  O  O231  1  0.73972394  0.42779747  0.52737207  1
  O  O232  1  0.73573768  0.76177329  0.01328851  1
  O  O233  1  0.73869067  0.75789393  0.51511227  1
  O  O234  1  0.10200583  0.25787276  0.03594750  1
  O  O235  1  0.08716478  0.26043691  0.52232666  1
  O  O236  1  0.08930329  0.58000926  0.02765207  1
  O  O237  1  0.10168385  0.60158599  0.52472391  1
  O  O238  1  0.10025218  0.93750671  0.02516701  1
  O  O239  1  0.09939806  0.94021442  0.52192001  1
  O  O240  1  0.43221150  0.25027484  0.02116898  1
  O  O241  1  0.42943819  0.26609700  0.50440113  1
  O  O242  1  0.42459294  0.59330458  0.01430017  1
  O  O243  1  0.43769608  0.60667800  0.52291352  1
  O  O244  1  0.42274613  0.92599732  0.02307855  1
  O  O245  1  0.42183499  0.91931790  0.51984571  1
  O  O246  1  0.76252345  0.26641806  0.02497818  1
  O  O247  1  0.76242886  0.26970425  0.52651173  1
  O  O248  1  0.75500561  0.59500704  0.01980039  1
  O  O249  1  0.76623221  0.58469331  0.51447062  1
  O  O250  1  0.75573151  0.92658371  0.01286923  1
  O  O251  1  0.75575389  0.92767192  0.51273992  1
  O  O252  1  0.22702619  0.07284681  0.27382532  1
  O  O253  1  0.23415531  0.07145116  0.75259148  1
  O  O254  1  0.23060452  0.39918082  0.26984182  1
  O  O255  1  0.24429341  0.41008702  0.77582141  1
  O  O256  1  0.24302387  0.74800036  0.27412388  1
  O  O257  1  0.24321517  0.74197074  0.77419288  1
  O  O258  1  0.56045611  0.06038383  0.27537763  1
  O  O259  1  0.57284424  0.07325093  0.78019970  1
  O  O260  1  0.56552683  0.39837570  0.27748725  1
  O  O261  1  0.57211712  0.40213443  0.78012758  1
  O  O262  1  0.57090192  0.73662493  0.27042243  1
  O  O263  1  0.57347165  0.72600438  0.77983887  1
  O  O264  1  0.91317065  0.06694414  0.26568865  1
  O  O265  1  0.90266770  0.07443973  0.76656936  1
  O  O266  1  0.91131178  0.40957204  0.27758267  1
  O  O267  1  0.89918555  0.41555914  0.76784978  1
  O  O268  1  0.90322382  0.74121058  0.26874284  1
  O  O269  1  0.90269037  0.72991314  0.77139798  1
  O  O270  1  0.25322857  0.24567401  0.27780788  1
  O  O271  1  0.25637413  0.24465185  0.76560739  1
  O  O272  1  0.25972161  0.56931199  0.26029321  1
  O  O273  1  0.26317417  0.57155886  0.77517722  1
  O  O274  1  0.25622395  0.90553898  0.27751736  1
  O  O275  1  0.26726674  0.90106320  0.77825446  1
  O  O276  1  0.59770020  0.23579607  0.24847550  1
  O  O277  1  0.60181733  0.23695024  0.78088330  1
  O  O278  1  0.59860354  0.58212008  0.26037149  1
  O  O279  1  0.60612032  0.56365912  0.77812715  1
  O  O280  1  0.58000400  0.90302488  0.26634994  1
  O  O281  1  0.58848377  0.91627626  0.77115766  1
  O  O282  1  0.93508886  0.24275087  0.26067630  1
  O  O283  1  0.91896324  0.23858203  0.76059425  1
  O  O284  1  0.92592302  0.56769624  0.27985095  1
  O  O285  1  0.92433312  0.57133427  0.77534185  1
  O  O286  1  0.93643463  0.90148445  0.27132542  1
  O  O287  1  0.93105279  0.91044850  0.75752388  1
  O  O288  1  0.24785189  0.23846293  0.47994578  1
  O  O289  1  0.26085717  0.23682042  0.99350260  1
  O  O290  1  0.26479524  0.56708330  0.47801061  1
  O  O291  1  0.26193230  0.57349119  0.98897781  1
  O  O292  1  0.25584008  0.90995806  0.45741611  1
  O  O293  1  0.27278582  0.90624376  0.97961657  1
  O  O294  1  0.59656212  0.24628657  0.48974462  1
  O  O295  1  0.60093246  0.23111121  0.97150589  1
  O  O296  1  0.60626626  0.56360677  0.49909982  1
  O  O297  1  0.60117304  0.57541739  0.97508765  1
  O  O298  1  0.58998788  0.91006062  0.48242343  1
  O  O299  1  0.58270406  0.91010723  0.96999369  1
  O  O300  1  0.92985776  0.24223770  0.49045832  1
  O  O301  1  0.93299431  0.23751229  0.99426054  1
  O  O302  1  0.92780619  0.56440875  0.47326070  1
  O  O303  1  0.92158790  0.57634500  0.96492238  1
  O  O304  1  0.94386091  0.90190217  0.48137855  1
  O  O305  1  0.92026352  0.90213121  0.99003219  1
  O  O306  1  0.22226469  0.07220340  0.47483480  1
  O  O307  1  0.24112972  0.07194658  0.98902511  1
  O  O308  1  0.23127402  0.39737617  0.47058183  1
  O  O309  1  0.23840825  0.41191553  0.99161359  1
  O  O310  1  0.24302000  0.74553715  0.46662682  1
  O  O311  1  0.25243037  0.74502353  0.98492737  1
  O  O312  1  0.57115448  0.06592599  0.48060552  1
  O  O313  1  0.56929099  0.06741165  0.96676995  1
  O  O314  1  0.57175966  0.39986247  0.48220382  1
  O  O315  1  0.57395348  0.39744091  0.97023429  1
  O  O316  1  0.56336152  0.72752204  0.47034626  1
  O  O317  1  0.56690150  0.73749324  0.97414466  1
  O  O318  1  0.91218179  0.06769204  0.48857772  1
  O  O319  1  0.90893570  0.07246465  0.98272043  1
  O  O320  1  0.90706166  0.40581646  0.47656557  1
  O  O321  1  0.91138485  0.41543565  0.98592826  1
  O  O322  1  0.90172450  0.73223084  0.46980283  1
  O  O323  1  0.89622036  0.73881539  0.98217811  1
  O  O324  1  0.09445637  0.26416513  0.22083202  1
  O  O325  1  0.08039580  0.25221425  0.72765499  1
  O  O326  1  0.09263498  0.58128919  0.22439168  1
  O  O327  1  0.09565700  0.60447798  0.72927873  1
  O  O328  1  0.10457188  0.93514309  0.23013494  1
  O  O329  1  0.09070818  0.93430063  0.71541603  1
  O  O330  1  0.41347075  0.25833896  0.22470864  1
  O  O331  1  0.43929334  0.25973743  0.74599086  1
  O  O332  1  0.41763546  0.59134558  0.22595358  1
  O  O333  1  0.44762156  0.59982093  0.73722197  1
  O  O334  1  0.41783135  0.91315052  0.22362834  1
  O  O335  1  0.42361330  0.92053719  0.73057073  1
  O  O336  1  0.76677997  0.26923240  0.22202729  1
  O  O337  1  0.76570446  0.26680391  0.72637795  1
  O  O338  1  0.76202075  0.59145114  0.22561306  1
  O  O339  1  0.75540298  0.58893964  0.72248003  1
  O  O340  1  0.75959790  0.92344212  0.23831270  1
  O  O341  1  0.75208987  0.92532587  0.73983379  1
  O  O342  1  0.07203610  0.09830155  0.22335296  1
  O  O343  1  0.06463446  0.09346489  0.71912229  1
  O  O344  1  0.07130981  0.42832506  0.22369634  1
  O  O345  1  0.06628134  0.43555122  0.74599573  1
  O  O346  1  0.07966420  0.76421304  0.23207302  1
  O  O347  1  0.06432860  0.76025831  0.72237490  1
  O  O348  1  0.39811814  0.09969566  0.21832525  1
  O  O349  1  0.41408085  0.09595730  0.73857690  1
  O  O350  1  0.39480219  0.42557117  0.22020447  1
  O  O351  1  0.41177651  0.44311752  0.72994397  1
  O  O352  1  0.39760802  0.76239405  0.22138480  1
  O  O353  1  0.40569685  0.75623753  0.71976453  1
  O  O354  1  0.72928761  0.10103342  0.22401558  1
  O  O355  1  0.73610249  0.09852328  0.73951714  1
  O  O356  1  0.74163190  0.43266333  0.22122697  1
  O  O357  1  0.73464869  0.43086785  0.72491830  1
  O  O358  1  0.74154703  0.76406883  0.23192109  1
  O  O359  1  0.73576189  0.75058291  0.73458084  1
