# generated using pymatgen
data_BaLaInIrO6
_symmetry_space_group_name_H-M   'P 1'
_cell_length_a   17.51661302
_cell_length_b   17.54737676
_cell_length_c   16.48940165
_cell_angle_alpha   90.01896999
_cell_angle_beta   90.03650246
_cell_angle_gamma   90.08599267
_symmetry_Int_Tables_number   1
_chemical_formula_structural   BaLaInIrO6
_chemical_formula_sum   'Ba36 La36 In36 Ir36 O216'
_cell_volume   5068.35039883
_cell_formula_units_Z   36
loop_
 _symmetry_equiv_pos_site_id
 _symmetry_equiv_pos_as_xyz
  1  'x, y, z'
loop_
 _atom_site_type_symbol
 _atom_site_label
 _atom_site_symmetry_multiplicity
 _atom_site_fract_x
 _atom_site_fract_y
 _atom_site_fract_z
 _atom_site_occupancy
  Ba  Ba0  1  0.49771292  0.34345073  0.12451113  1
  Ba  Ba1  1  0.83691852  0.99443816  0.87565194  1
  Ba  Ba2  1  0.66559145  0.17518148  0.12595734  1
  Ba  Ba3  1  0.50077378  0.32438673  0.87793381  1
  Ba  Ba4  1  0.50145559  0.67528242  0.62049622  1
  Ba  Ba5  1  0.66388851  0.15828731  0.87797549  1
  Ba  Ba6  1  1.00179773  0.83834793  0.62219109  1
  Ba  Ba7  1  0.83486174  0.65933087  0.37153426  1
  Ba  Ba8  1  0.50335980  0.99622280  0.87522938  1
  Ba  Ba9  1  0.49883804  0.00447061  0.62604155  1
  Ba  Ba10  1  0.66502444  0.82785271  0.87896830  1
  Ba  Ba11  1  0.83347436  0.99340203  0.37176725  1
  Ba  Ba12  1  0.66689948  0.84248816  0.62193314  1
  Ba  Ba13  1  0.83556728  0.66205224  0.87811676  1
  Ba  Ba14  1  0.66236361  0.17068637  0.62460707  1
  Ba  Ba15  1  0.16599134  0.67866966  0.12990313  1
  Ba  Ba16  1  0.83694369  0.32274099  0.87417456  1
  Ba  Ba17  1  0.50331529  0.66065619  0.37592626  1
  Ba  Ba18  1  0.49760356  0.33949125  0.62898072  1
  Ba  Ba19  1  0.33790252  0.84369530  0.62348948  1
  Ba  Ba20  1  0.33065320  0.51256945  0.12438054  1
  Ba  Ba21  1  0.17060541  0.99229822  0.87543253  1
  Ba  Ba22  1  0.83761845  0.32260239  0.37446476  1
  Ba  Ba23  1  -0.00229879  0.15512438  0.87297306  1
  Ba  Ba24  1  0.16979574  0.33927787  0.62324793  1
  Ba  Ba25  1  0.33284551  0.82211359  0.37585373  1
  Ba  Ba26  1  0.66756557  0.84368986  0.13195438  1
  Ba  Ba27  1  0.16399980  0.01260469  0.13259119  1
  Ba  Ba28  1  0.16702677  0.32427940  0.87104443  1
  Ba  Ba29  1  0.32876296  0.15990000  0.87830799  1
  Ba  Ba30  1  0.33042437  0.17619645  0.12509481  1
  Ba  Ba31  1  0.66857935  0.15060752  0.37108142  1
  Ba  Ba32  1  0.66999822  0.50798126  0.62539415  1
  Ba  Ba33  1  0.33517226  0.82722879  0.87325021  1
  Ba  Ba34  1  0.16728379  0.00726226  0.62108459  1
  Ba  Ba35  1  0.99786862  0.50238684  0.62567477  1
  La  La36  1  -0.00138934  0.47835497  0.87669683  1
  La  La37  1  0.82599609  0.01475175  0.62354248  1
  La  La38  1  0.82858179  0.01893020  0.12646553  1
  La  La39  1  0.50781393  0.66294216  0.87604473  1
  La  La40  1  0.66323032  0.82160394  0.37657833  1
  La  La41  1  0.16511585  0.65801255  0.87369122  1
  La  La42  1  0.33768907  0.48982833  0.37588316  1
  La  La43  1  0.66221048  0.48129415  0.37776369  1
  La  La44  1  0.50285668  0.31606477  0.37311948  1
  La  La45  1  0.16821799  0.98321640  0.37073167  1
  La  La46  1  -0.00333046  0.82807758  0.87338253  1
  La  La47  1  0.83367139  0.68217896  0.12718048  1
  La  La48  1  0.49628838  0.00962163  0.12400505  1
  La  La49  1  0.17127096  0.65329824  0.37820890  1
  La  La50  1  0.33534232  0.16777153  0.63467561  1
  La  La51  1  0.82905421  0.34906072  0.12738066  1
  La  La52  1  0.82330001  0.68563477  0.62451690  1
  La  La53  1  1.00758362  0.51716567  0.12476063  1
  La  La54  1  -0.00362826  0.48108410  0.37349892  1
  La  La55  1  -0.00965327  0.15086810  0.37292016  1
  La  La56  1  0.33123716  0.49080106  0.87399706  1
  La  La57  1  0.16814696  0.31749502  0.37296518  1
  La  La58  1  0.33548208  0.84191482  0.12734768  1
  La  La59  1  -0.00191847  0.81724840  0.37195589  1
  La  La60  1  0.66970920  0.50724403  0.12687250  1
  La  La61  1  0.15926089  0.34926361  0.11928864  1
  La  La62  1  0.32778862  0.15212033  0.37042896  1
  La  La63  1  0.50616023  0.98258968  0.37453673  1
  La  La64  1  1.00279078  0.84848146  0.12786333  1
  La  La65  1  1.00181057  0.18197648  0.62144301  1
  La  La66  1  0.49194268  0.68246095  0.12735627  1
  La  La67  1  0.34000553  0.51669626  0.62414657  1
  La  La68  1  0.66116088  0.48698889  0.87458517  1
  La  La69  1  1.00585592  0.18387992  0.12596672  1
  La  La70  1  0.82626755  0.34701069  0.62574502  1
  La  La71  1  0.16370778  0.67991101  0.62517687  1
  In  In72  1  0.16482561  0.49974602  0.25309218  1
  In  In73  1  0.16630974  0.83177522  0.49724747  1
  In  In74  1  -0.00209447  0.66279901  0.74868479  1
  In  In75  1  0.33285930  -0.00104516  0.75113940  1
  In  In76  1  0.83398832  0.50090985  0.49433555  1
  In  In77  1  0.66981650  0.33536020  0.00343972  1
  In  In78  1  0.66742568  0.33069479  0.25207290  1
  In  In79  1  0.16749725  0.50053047  0.74380620  1
  In  In80  1  0.16314082  0.16707171  0.00196300  1
  In  In81  1  0.00066052  -0.00089999  0.00238695  1
  In  In82  1  0.50015396  0.83405474  0.00348833  1
  In  In83  1  0.32936875  0.33778159  0.00157235  1
  In  In84  1  0.50113428  0.83058195  0.75078278  1
  In  In85  1  0.16603253  0.83185393  0.75157373  1
  In  In86  1  0.49977462  0.49871929  0.50029123  1
  In  In87  1  0.49834896  0.16161612  0.25167420  1
  In  In88  1  0.50034470  0.16575805  0.75251168  1
  In  In89  1  0.50044548  0.50219545  0.25039742  1
  In  In90  1  0.33344881  0.00269129  0.49391452  1
  In  In91  1  0.33068887  0.33551041  0.25028973  1
  In  In92  1  -0.00005609  -0.00009159  0.74337560  1
  In  In93  1  0.83449599  0.50335137  0.75173312  1
  In  In94  1  0.83566044  0.50595375  0.00201547  1
  In  In95  1  0.33091130  0.66851931  -0.00158758  1
  In  In96  1  0.66967934  0.66334408  0.24936172  1
  In  In97  1  0.83373001  0.83401469  0.00304124  1
  In  In98  1  0.49928387  0.50162672  0.75248171  1
  In  In99  1  0.83395569  0.16965793  0.49913646  1
  In  In100  1  0.66989131  0.66652459  0.75387881  1
  In  In101  1  0.16316585  0.16596038  0.74621556  1
  In  In102  1  0.66847125  0.33257096  0.75098045  1
  In  In103  1  0.33232709  0.33266989  0.49837661  1
  In  In104  1  0.49848272  0.16722925  0.00331141  1
  In  In105  1  0.67070640  -0.00226747  0.75256416  1
  In  In106  1  0.83569215  0.83896359  0.49479291  1
  In  In107  1  -0.00130242  0.66179665  0.49894505  1
  Ir  Ir108  1  0.00046094  0.00272929  0.49485808  1
  Ir  Ir109  1  0.16315881  0.83231335  0.24924598  1
  Ir  Ir110  1  0.33178061  -0.00360306  0.25021741  1
  Ir  Ir111  1  0.66850174  -0.00513206  0.25159947  1
  Ir  Ir112  1  0.49654518  0.16859390  0.49588378  1
  Ir  Ir113  1  0.66996508  0.00075819  0.00839384  1
  Ir  Ir114  1  0.16005312  0.50481362  -0.00317959  1
  Ir  Ir115  1  0.50120629  0.50821349  0.00039564  1
  Ir  Ir116  1  0.33121110  0.33548717  0.74778578  1
  Ir  Ir117  1  0.50023234  0.83375203  0.25174768  1
  Ir  Ir118  1  0.15943632  0.16771746  0.25466875  1
  Ir  Ir119  1  0.33234230  0.67026650  0.25445478  1
  Ir  Ir120  1  0.33258734  0.66337168  0.75061820  1
  Ir  Ir121  1  0.16332312  0.83119616  0.00602539  1
  Ir  Ir122  1  0.83769717  0.83440416  0.24977875  1
  Ir  Ir123  1  0.84020846  0.16596907  0.24592794  1
  Ir  Ir124  1  0.00338493  0.66764571  0.00372562  1
  Ir  Ir125  1  0.32968336  -0.00589135  0.00978429  1
  Ir  Ir126  1  -0.00497166  0.33396669  0.00350364  1
  Ir  Ir127  1  0.84000270  0.50077113  0.24793294  1
  Ir  Ir128  1  0.33013505  0.66331970  0.49729654  1
  Ir  Ir129  1  0.00551560  0.33182210  0.49682412  1
  Ir  Ir130  1  0.67076458  0.66860902  0.49776966  1
  Ir  Ir131  1  0.00112466  0.66738862  0.24844388  1
  Ir  Ir132  1  -0.00109053  -0.00048508  0.25189615  1
  Ir  Ir133  1  0.83823186  0.16729102  0.00276522  1
  Ir  Ir134  1  0.16704474  0.49912045  0.49700860  1
  Ir  Ir135  1  0.16236427  0.16664390  0.49102989  1
  Ir  Ir136  1  0.66517338  0.66371065  0.00725171  1
  Ir  Ir137  1  -0.00041155  0.33336958  0.24787615  1
  Ir  Ir138  1  0.83585987  0.83438761  0.75007178  1
  Ir  Ir139  1  0.66553575  -0.00035129  0.49576826  1
  Ir  Ir140  1  0.83829315  0.16695124  0.74818405  1
  Ir  Ir141  1  -0.00289618  0.33107473  0.74693240  1
  Ir  Ir142  1  0.66571408  0.33048253  0.49759212  1
  Ir  Ir143  1  0.50110320  0.83194766  0.49486359  1
  O  O144  1  0.29406174  0.34124470  0.12686348  1
  O  O145  1  0.31932464  0.31226223  0.62494746  1
  O  O146  1  0.31451022  0.67119052  0.13445236  1
  O  O147  1  0.29878054  0.65561741  0.62455818  1
  O  O148  1  0.30764037  0.97878777  0.13081497  1
  O  O149  1  0.32012936  1.00740489  0.61794173  1
  O  O150  1  0.64834676  0.34456320  0.12906799  1
  O  O151  1  0.64937971  0.33284932  0.61542517  1
  O  O152  1  0.63202631  0.65226499  0.12427360  1
  O  O153  1  0.65518572  0.66844088  0.61694239  1
  O  O154  1  0.63966849  1.00042183  0.13171783  1
  O  O155  1  0.65333990  1.00276745  0.61384855  1
  O  O156  1  0.96469753  0.32444722  0.12693036  1
  O  O157  1  0.96844236  0.32458993  0.62185926  1
  O  O158  1  0.96996378  0.65354507  0.12664263  1
  O  O159  1  0.95790027  0.65741042  0.62324007  1
  O  O160  1  0.96606222  0.98537866  0.13352945  1
  O  O161  1  0.96311798  0.99318030  0.61127111  1
  O  O162  1  0.17960089  0.17012350  0.13651672  1
  O  O163  1  0.19810277  0.16520755  0.60786507  1
  O  O164  1  0.17854725  0.49262559  0.12029035  1
  O  O165  1  0.20227460  0.49377676  0.61470800  1
  O  O166  1  0.19732499  0.82905869  0.12834034  1
  O  O167  1  0.18893041  0.81649787  0.62210610  1
  O  O168  1  0.51672321  0.14594054  0.12806743  1
  O  O169  1  0.50890569  0.16860299  0.61434880  1
  O  O170  1  0.53181951  0.50061580  0.12025035  1
  O  O171  1  0.51785688  0.50139030  0.62464588  1
  O  O172  1  0.51735894  0.82377076  0.13243513  1
  O  O173  1  0.51454247  0.83162477  0.61433889  1
  O  O174  1  0.86944735  0.15856256  0.12448942  1
  O  O175  1  0.86339666  0.15800297  0.62701882  1
  O  O176  1  0.87407411  0.49114971  0.13038021  1
  O  O177  1  0.85025902  0.48436996  0.62011336  1
  O  O178  1  0.86705110  0.82348689  0.13196093  1
  O  O179  1  0.85086020  0.82478143  0.62704242  1
  O  O180  1  0.12459719  0.17692738  0.37318559  1
  O  O181  1  0.14615316  0.16489721  0.87475329  1
  O  O182  1  0.13119341  0.51398211  0.37917553  1
  O  O183  1  0.13246021  0.51609875  0.87635380  1
  O  O184  1  0.13340811  0.83881974  0.36802393  1
  O  O185  1  0.13262824  0.83347198  0.88719688  1
  O  O186  1  0.46915107  0.16900221  0.37768967  1
  O  O187  1  0.48157187  0.15645294  0.87940822  1
  O  O188  1  0.46987789  0.50957221  0.37711155  1
  O  O189  1  0.46764861  0.52084507  0.88143967  1
  O  O190  1  0.48133918  0.84141991  0.37162209  1
  O  O191  1  0.48797395  0.81874555  0.87996965  1
  O  O192  1  0.82137131  0.16725639  0.36755967  1
  O  O193  1  0.81414460  0.16948917  0.87667955  1
  O  O194  1  0.80148090  0.50194549  0.36593623  1
  O  O195  1  0.79895275  0.50596387  0.87887688  1
  O  O196  1  0.80107681  0.83838998  0.36638430  1
  O  O197  1  0.81792904  0.83562685  0.87260523  1
  O  O198  1  0.03360139  0.01597096  0.37280238  1
  O  O199  1  0.01598035  -0.00290973  0.87496388  1
  O  O200  1  0.03388200  0.34224127  0.37147344  1
  O  O201  1  0.01896032  0.34039228  0.87725730  1
  O  O202  1  0.03483997  0.67814032  0.36635628  1
  O  O203  1  0.02994716  0.68563988  0.88501053  1
  O  O204  1  0.36557994  0.01208666  0.36772990  1
  O  O205  1  0.34824106  -0.00159885  0.89134202  1
  O  O206  1  0.36528776  0.35021742  0.37559154  1
  O  O207  1  0.34768412  0.35297925  0.86961285  1
  O  O208  1  0.35449119  0.66263601  0.37603584  1
  O  O209  1  0.36654645  0.66595357  0.86950105  1
  O  O210  1  0.68577553  -0.01130452  0.37405428  1
  O  O211  1  0.68769157  -0.00130081  0.88796309  1
  O  O212  1  0.68976342  0.33672259  0.37942135  1
  O  O213  1  0.69027273  0.34916876  0.87916796  1
  O  O214  1  0.68604073  0.68033858  0.37700389  1
  O  O215  1  0.68639112  0.67153494  0.88936266  1
  O  O216  1  0.06575854  0.09827286  0.03003498  1
  O  O217  1  0.06603429  0.10063250  0.51913463  1
  O  O218  1  0.06439218  0.43226721  0.02339303  1
  O  O219  1  0.07308296  0.43099986  0.51334276  1
  O  O220  1  0.06605302  0.76642184  0.02968391  1
  O  O221  1  0.07797289  0.75119060  0.51570833  1
  O  O222  1  0.40520822  0.07757740  0.03039633  1
  O  O223  1  0.39495594  0.11338717  0.51080119  1
  O  O224  1  0.40813865  0.43988830  0.01124935  1
  O  O225  1  0.39105540  0.43791219  0.52029360  1
  O  O226  1  0.40175748  0.76166676  0.02987110  1
  O  O227  1  0.40310897  0.75678917  0.51542924  1
  O  O228  1  0.74517702  0.09429226  0.02686945  1
  O  O229  1  0.74180726  0.08804016  0.51331047  1
  O  O230  1  0.74590612  0.43057546  0.03557341  1
  O  O231  1  0.73545558  0.42293313  0.50900199  1
  O  O232  1  0.74109121  0.75243448  0.02976945  1
  O  O233  1  0.74194422  0.75886528  0.51167984  1
  O  O234  1  0.08673554  0.26805862  0.03110129  1
  O  O235  1  0.09382784  0.25780842  0.51952677  1
  O  O236  1  0.09280703  0.59709887  0.02119011  1
  O  O237  1  0.10636883  0.59394661  0.52282184  1
  O  O238  1  0.09533317  0.91930171  0.03137761  1
  O  O239  1  0.08910533  0.93341220  0.50511147  1
  O  O240  1  0.41984921  0.26014863  0.01761752  1
  O  O241  1  0.43875570  0.26626976  0.50207658  1
  O  O242  1  0.43611377  0.60156919  0.02484143  1
  O  O243  1  0.41684382  0.59403066  0.51975866  1
  O  O244  1  0.42133443  0.92473235  0.03182027  1
  O  O245  1  0.43197105  0.92459318  0.50128806  1
  O  O246  1  0.77567269  0.26267471  0.02580225  1
  O  O247  1  0.76308618  0.26686116  0.52229799  1
  O  O248  1  0.75900665  0.59839729  0.03732819  1
  O  O249  1  0.76469399  0.60316378  0.51832294  1
  O  O250  1  0.76447897  0.93408340  0.02966671  1
  O  O251  1  0.76194405  0.93466775  0.51877679  1
  O  O252  1  0.23418905  0.07139696  0.27929590  1
  O  O253  1  0.24240263  0.07857897  0.75885826  1
  O  O254  1  0.22815820  0.40137068  0.27874829  1
  O  O255  1  0.24463713  0.40945517  0.76389379  1
  O  O256  1  0.23074096  0.73616522  0.27698885  1
  O  O257  1  0.23789144  0.72681882  0.77572094  1
  O  O258  1  0.57143483  0.05791340  0.27256556  1
  O  O259  1  0.58109849  0.07496321  0.75704582  1
  O  O260  1  0.57254506  0.40545060  0.28434289  1
  O  O261  1  0.57781900  0.41385715  0.77424880  1
  O  O262  1  0.57652153  0.74637118  0.26598366  1
  O  O263  1  0.56902014  0.73051100  0.76659673  1
  O  O264  1  0.90997658  0.07239269  0.26905138  1
  O  O265  1  0.90310645  0.07468596  0.76008623  1
  O  O266  1  0.90968311  0.40752180  0.27310314  1
  O  O267  1  0.91289071  0.40499004  0.76545642  1
  O  O268  1  0.91208513  0.74367958  0.27204856  1
  O  O269  1  0.90616253  0.74527537  0.76898719  1
  O  O270  1  0.25292800  0.23410527  0.28173374  1
  O  O271  1  0.25973512  0.24663219  0.76000868  1
  O  O272  1  0.26223458  0.57604821  0.27776153  1
  O  O273  1  0.26676263  0.57147041  0.77564133  1
  O  O274  1  0.25295287  0.90762734  0.27557641  1
  O  O275  1  0.25768535  0.90556566  0.76661525  1
  O  O276  1  0.58992560  0.23914803  0.27191376  1
  O  O277  1  0.59164085  0.24306799  0.76165962  1
  O  O278  1  0.60926377  0.56061256  0.27045242  1
  O  O279  1  0.59588498  0.57358251  0.78295598  1
  O  O280  1  0.59708721  0.90171188  0.27762883  1
  O  O281  1  0.59906334  0.90265458  0.75951713  1
  O  O282  1  0.93725654  0.23342856  0.26835286  1
  O  O283  1  0.93128276  0.23629458  0.75941880  1
  O  O284  1  0.93754960  0.56758141  0.27186396  1
  O  O285  1  0.93757683  0.56405427  0.78392940  1
  O  O286  1  0.93488094  0.90078331  0.27530197  1
  O  O287  1  0.92776168  0.89896966  0.76896380  1
  O  O288  1  0.25388101  0.23629789  0.46209664  1
  O  O289  1  0.25010474  0.24759470  0.98721404  1
  O  O290  1  0.26159077  0.56673790  0.47067662  1
  O  O291  1  0.25398971  0.57386945  0.97063311  1
  O  O292  1  0.25109245  0.91466313  0.47119081  1
  O  O293  1  0.26023973  0.89654265  0.99120861  1
  O  O294  1  0.59428054  0.23591558  0.47452726  1
  O  O295  1  0.59328435  0.24389009  0.99171151  1
  O  O296  1  0.60483555  0.57226708  0.47558569  1
  O  O297  1  0.59969485  0.57092164  0.97731476  1
  O  O298  1  0.59447771  0.90356399  0.47026945  1
  O  O299  1  0.59840060  0.91099386  0.99650270  1
  O  O300  1  0.93972567  0.23668761  0.47922339  1
  O  O301  1  0.93498588  0.23337071  0.98939256  1
  O  O302  1  0.93495535  0.56465992  0.46495161  1
  O  O303  1  0.94204467  0.57011583  0.98134742  1
  O  O304  1  0.93718654  0.90963643  0.46643858  1
  O  O305  1  0.93779202  0.89361142  0.98640152  1
  O  O306  1  0.23053166  0.07805205  0.45891982  1
  O  O307  1  0.24334158  0.06857988  0.99819503  1
  O  O308  1  0.22983650  0.40567969  0.46787577  1
  O  O309  1  0.23315225  0.41972363  0.97704182  1
  O  O310  1  0.23755318  0.72929898  0.47472038  1
  O  O311  1  0.22765332  0.73730663  0.97777137  1
  O  O312  1  0.56405555  0.06596381  0.47516618  1
  O  O313  1  0.57993773  0.06715402  0.99572953  1
  O  O314  1  0.57267397  0.39867248  0.47123180  1
  O  O315  1  0.57337909  0.42263799  0.97704504  1
  O  O316  1  0.58096207  0.74513477  0.47579346  1
  O  O317  1  0.56894142  0.72688427  0.99143990  1
  O  O318  1  0.91343232  0.07481749  0.47929687  1
  O  O319  1  0.90003883  0.07201341  0.99366444  1
  O  O320  1  0.91709111  0.40361668  0.47851660  1
  O  O321  1  0.90991676  0.40722900  0.98258470  1
  O  O322  1  0.91395041  0.74867268  0.47257664  1
  O  O323  1  0.91004234  0.73178340  0.99477847  1
  O  O324  1  0.09591266  0.26728417  0.22484219  1
  O  O325  1  0.08429231  0.25958417  0.72356562  1
  O  O326  1  0.08764706  0.59306710  0.22999750  1
  O  O327  1  0.10320405  0.59862395  0.72514502  1
  O  O328  1  0.08939806  0.92515266  0.23071886  1
  O  O329  1  0.09025167  0.92366144  0.72932067  1
  O  O330  1  0.42224417  0.25736598  0.23906278  1
  O  O331  1  0.41694928  0.26259633  0.74094861  1
  O  O332  1  0.43052746  0.60893923  0.23117456  1
  O  O333  1  0.41882853  0.59271547  0.72507947  1
  O  O334  1  0.42812244  0.92806405  0.22609237  1
  O  O335  1  0.42655382  0.92341846  0.74195831  1
  O  O336  1  0.77390055  0.26051867  0.22588869  1
  O  O337  1  0.77222034  0.25896710  0.72526105  1
  O  O338  1  0.77251520  0.59181203  0.21912388  1
  O  O339  1  0.76947734  0.60347693  0.72549884  1
  O  O340  1  0.76946183  0.92871778  0.22474237  1
  O  O341  1  0.77281630  0.93029374  0.72598954  1
  O  O342  1  0.06090021  0.10030082  0.23073225  1
  O  O343  1  0.06557038  0.09888930  0.71374097  1
  O  O344  1  0.06532427  0.42595967  0.22245568  1
  O  O345  1  0.06934315  0.42163751  0.74181823  1
  O  O346  1  0.06566861  0.76603355  0.22509992  1
  O  O347  1  0.07612558  0.75234119  0.73310480  1
  O  O348  1  0.40181929  0.08283751  0.22826694  1
  O  O349  1  0.40377540  0.09734395  0.73121021  1
  O  O350  1  0.39987907  0.43696782  0.23641943  1
  O  O351  1  0.39628997  0.43090157  0.73065239  1
  O  O352  1  0.40275848  0.76621211  0.22884288  1
  O  O353  1  0.40015021  0.75108800  0.73009066  1
  O  O354  1  0.74691382  0.08859285  0.22559351  1
  O  O355  1  0.75174903  0.09362135  0.72919142  1
  O  O356  1  0.74680719  0.43316793  0.22545026  1
  O  O357  1  0.74832339  0.42013016  0.72818378  1
  O  O358  1  0.75272820  0.75551252  0.22775042  1
  O  O359  1  0.74589394  0.76491578  0.73532621  1
