# generated using pymatgen
data_BaLaInIrO6
_symmetry_space_group_name_H-M   'P 1'
_cell_length_a   17.51461513
_cell_length_b   17.55287894
_cell_length_c   16.48985527
_cell_angle_alpha   90.01348247
_cell_angle_beta   89.97142558
_cell_angle_gamma   89.96738018
_symmetry_Int_Tables_number   1
_chemical_formula_structural   BaLaInIrO6
_chemical_formula_sum   'Ba36 La36 In36 Ir36 O216'
_cell_volume   5069.50625741
_cell_formula_units_Z   36
loop_
 _symmetry_equiv_pos_site_id
 _symmetry_equiv_pos_as_xyz
  1  'x, y, z'
loop_
 _atom_site_type_symbol
 _atom_site_label
 _atom_site_symmetry_multiplicity
 _atom_site_fract_x
 _atom_site_fract_y
 _atom_site_fract_z
 _atom_site_occupancy
  Ba  Ba0  1  1.00225984  0.84361562  0.12293345  1
  Ba  Ba1  1  1.00472006  0.50824327  0.12418707  1
  Ba  Ba2  1  0.49738704  0.01000996  0.12888136  1
  Ba  Ba3  1  0.00239325  0.49455297  0.87097694  1
  Ba  Ba4  1  0.33066741  0.84653515  0.12584779  1
  Ba  Ba5  1  0.66536695  0.15496307  0.87587121  1
  Ba  Ba6  1  0.66489895  0.49204346  0.38046942  1
  Ba  Ba7  1  1.00657725  0.83913991  0.62700615  1
  Ba  Ba8  1  0.33474715  0.48805407  0.37231461  1
  Ba  Ba9  1  0.50251771  0.32593916  0.37448382  1
  Ba  Ba10  1  0.16330740  0.67325100  0.12354292  1
  Ba  Ba11  1  1.00078332  0.17944816  0.12353350  1
  Ba  Ba12  1  0.16235884  0.00843157  0.62575322  1
  Ba  Ba13  1  0.66909667  0.50827480  0.62879440  1
  Ba  Ba14  1  0.99846428  0.50807075  0.62282125  1
  Ba  Ba15  1  0.82979854  0.65206350  0.87457545  1
  Ba  Ba16  1  -0.00104403  0.82382829  0.37499901  1
  Ba  Ba17  1  0.33296493  0.17487315  0.62794806  1
  Ba  Ba18  1  0.83693337  0.33043372  0.37725725  1
  Ba  Ba19  1  0.33209181  0.84356589  0.62773456  1
  Ba  Ba20  1  0.50254485  0.98958934  0.87911954  1
  Ba  Ba21  1  0.33199012  0.15642665  0.87611638  1
  Ba  Ba22  1  0.16702292  0.32600525  0.37360547  1
  Ba  Ba23  1  0.15994857  0.01037747  0.12572171  1
  Ba  Ba24  1  0.33146340  0.49177857  0.87148834  1
  Ba  Ba25  1  0.66522049  0.82329920  0.37495346  1
  Ba  Ba26  1  0.16633346  0.66857065  0.62829387  1
  Ba  Ba27  1  0.33017552  0.82493027  0.37204082  1
  Ba  Ba28  1  0.83208502  0.34912690  0.12349547  1
  Ba  Ba29  1  0.66831718  0.17645718  0.12606215  1
  Ba  Ba30  1  0.17147483  0.34009734  0.62288428  1
  Ba  Ba31  1  0.83460971  0.00826399  0.62200844  1
  Ba  Ba32  1  0.83133395  0.67263881  0.62671405  1
  Ba  Ba33  1  0.49752710  0.99177702  0.37844679  1
  Ba  Ba34  1  0.33660172  0.82570655  0.88048902  1
  Ba  Ba35  1  0.16337623  0.34209342  0.12183232  1
  La  La36  1  0.66956353  0.18266095  0.62156925  1
  La  La37  1  0.50371762  0.65382539  0.37804128  1
  La  La38  1  0.49520540  0.68072584  0.12702023  1
  La  La39  1  0.16410917  0.65458221  0.87547326  1
  La  La40  1  0.82963500  0.01788027  0.12769602  1
  La  La41  1  0.66604503  0.82344678  0.86872166  1
  La  La42  1  0.17171651  0.65437422  0.37394343  1
  La  La43  1  0.16829649  0.98244447  0.37684973  1
  La  La44  1  0.33349652  0.17794173  0.12523334  1
  La  La45  1  0.83470316  0.35035562  0.62959010  1
  La  La46  1  0.34213721  0.51440941  0.62146407  1
  La  La47  1  0.49287228  0.34921148  0.62532641  1
  La  La48  1  0.17187264  0.31429382  0.87477985  1
  La  La49  1  0.83621333  0.67609788  0.11909765  1
  La  La50  1  0.49507754  0.67997119  0.62599490  1
  La  La51  1  0.49503468  0.34464197  0.12076246  1
  La  La52  1  0.84100547  0.98103607  0.88306775  1
  La  La53  1  -0.00172595  0.15551935  0.87787259  1
  La  La54  1  0.83319411  0.32792218  0.87448273  1
  La  La55  1  0.66099245  0.48407136  0.87631710  1
  La  La56  1  0.01163306  0.49444262  0.37168254  1
  La  La57  1  0.32111661  0.15318645  0.36918525  1
  La  La58  1  0.66469158  0.15533879  0.37454158  1
  La  La59  1  0.83736342  0.64961130  0.37342589  1
  La  La60  1  0.66823074  0.51221619  0.12856716  1
  La  La61  1  0.49002102  0.01495293  0.63199585  1
  La  La62  1  0.33538076  0.51517384  0.12367216  1
  La  La63  1  0.67087192  0.84905733  0.62491810  1
  La  La64  1  0.84042729  0.98664759  0.37003538  1
  La  La65  1  1.01006773  0.17844209  0.62543243  1
  La  La66  1  0.50179316  0.31414308  0.87152300  1
  La  La67  1  -0.00114871  0.15413629  0.37216360  1
  La  La68  1  0.50676074  0.65506892  0.87832483  1
  La  La69  1  0.16898666  0.98636182  0.87498653  1
  La  La70  1  0.67136719  0.85117958  0.12411090  1
  La  La71  1  -0.00458466  0.81114503  0.87758227  1
  In  In72  1  0.83246040  0.83126416  0.50065772  1
  In  In73  1  0.66635998  0.66779532  0.50306554  1
  In  In74  1  0.83319889  0.82934672  0.24668064  1
  In  In75  1  0.49995508  0.49949375  0.24827343  1
  In  In76  1  0.83374925  0.17211608  0.25243136  1
  In  In77  1  0.16621689  0.83169789  0.75362667  1
  In  In78  1  -0.00130366  -0.00025148  0.75492533  1
  In  In79  1  0.33497595  0.66692032  0.75499928  1
  In  In80  1  0.83445821  0.16723250  0.74714861  1
  In  In81  1  0.50176414  0.16557360  0.00169004  1
  In  In82  1  0.66710393  0.00232331  0.74803438  1
  In  In83  1  0.83225363  0.17050164  -0.00385107  1
  In  In84  1  0.16779066  0.82908135  0.50034850  1
  In  In85  1  0.17172458  0.49916272  0.50084453  1
  In  In86  1  0.33299697  0.33769709  -0.00247119  1
  In  In87  1  0.00137722  0.33722178  -0.00511047  1
  In  In88  1  0.66539110  0.33309990  0.74920052  1
  In  In89  1  0.50036323  0.83369503  0.74898934  1
  In  In90  1  0.83399640  0.83141462  0.75007660  1
  In  In91  1  0.50104546  0.83216255  0.00233088  1
  In  In92  1  0.49716322  0.16856052  0.25386919  1
  In  In93  1  -0.00113233  0.00238549  0.49952446  1
  In  In94  1  0.66523973  0.66665891  0.00297868  1
  In  In95  1  0.66531978  0.00263500  0.50207513  1
  In  In96  1  0.16554686  0.82952407  -0.00138381  1
  In  In97  1  0.50039832  0.83173190  0.25260654  1
  In  In98  1  0.33515277  0.32974926  0.49681296  1
  In  In99  1  0.83388990  0.49984920  0.49897421  1
  In  In100  1  -0.00051443  0.33323882  0.50068693  1
  In  In101  1  0.00079945  0.33540459  0.24913983  1
  In  In102  1  0.16950304  0.49451803  0.74917959  1
  In  In103  1  0.16444254  0.82939572  0.24834322  1
  In  In104  1  0.66866222  -0.00036390  0.25278307  1
  In  In105  1  0.66618836  0.33477515  0.25106401  1
  In  In106  1  0.49912095  0.16884284  0.49868492  1
  In  In107  1  0.33279044  0.00040433  0.50268049  1
  Ir  Ir108  1  0.16344583  0.16640023  0.49729442  1
  Ir  Ir109  1  0.50190416  0.49962034  -0.00270615  1
  Ir  Ir110  1  0.33926249  0.66517249  0.49559883  1
  Ir  Ir111  1  0.33536603  0.66345912  0.24827564  1
  Ir  Ir112  1  0.66592530  0.66407632  0.24748263  1
  Ir  Ir113  1  -0.00293009  0.66273768  0.74981826  1
  Ir  Ir114  1  0.83024606  0.50033875  0.75602702  1
  Ir  Ir115  1  0.49977036  0.49918239  0.75283622  1
  Ir  Ir116  1  0.16929773  0.50294444  -0.00099173  1
  Ir  Ir117  1  0.32776220  0.00455045  0.24688842  1
  Ir  Ir118  1  0.67387161  -0.00433820  -0.00080828  1
  Ir  Ir119  1  0.33190029  0.00436498  0.75666598  1
  Ir  Ir120  1  0.50098984  0.16635190  0.75023066  1
  Ir  Ir121  1  0.00063610  0.00165210  -0.00042026  1
  Ir  Ir122  1  0.32927613  0.00307319  0.00080018  1
  Ir  Ir123  1  0.50261840  0.50065699  0.50542627  1
  Ir  Ir124  1  0.16413235  0.16928716  0.75068230  1
  Ir  Ir125  1  0.83384933  0.50732640  0.24466132  1
  Ir  Ir126  1  0.33655930  0.66152976  0.00362047  1
  Ir  Ir127  1  0.83362483  0.83266955  0.00110664  1
  Ir  Ir128  1  0.66288284  0.33996912  -0.00197472  1
  Ir  Ir129  1  0.33655638  0.33276294  0.75076545  1
  Ir  Ir130  1  0.00100619  0.00375291  0.24919046  1
  Ir  Ir131  1  0.66705893  0.33274475  0.50388739  1
  Ir  Ir132  1  0.50011871  0.82846360  0.50103450  1
  Ir  Ir133  1  -0.00093325  0.66114766  0.25118352  1
  Ir  Ir134  1  0.82887172  0.50168553  0.00117289  1
  Ir  Ir135  1  0.83390805  0.17060927  0.50056191  1
  Ir  Ir136  1  0.16710653  0.16550408  0.24952988  1
  Ir  Ir137  1  0.16608474  0.16437016  -0.00180761  1
  Ir  Ir138  1  -0.00429919  0.66207228  -0.00115779  1
  Ir  Ir139  1  0.17124327  0.50328492  0.24618704  1
  Ir  Ir140  1  0.33089138  0.33342666  0.24335290  1
  Ir  Ir141  1  0.66114685  0.66296426  0.75265881  1
  Ir  Ir142  1  0.00172014  0.66289652  0.49492242  1
  Ir  Ir143  1  0.00264366  0.33075522  0.75163562  1
  O  O144  1  0.31134041  0.32104948  0.12458512  1
  O  O145  1  0.32126757  0.33416476  0.63177398  1
  O  O146  1  0.31029058  0.65263558  0.12637579  1
  O  O147  1  0.31976698  0.65620131  0.61625903  1
  O  O148  1  0.30727541  1.00539222  0.12249027  1
  O  O149  1  0.31399607  1.00475231  0.63735827  1
  O  O150  1  0.63245903  0.33753029  0.11573454  1
  O  O151  1  0.63306622  0.32456745  0.62311152  1
  O  O152  1  0.63256914  0.65150363  0.12940109  1
  O  O153  1  0.63339954  0.65772105  0.63368305  1
  O  O154  1  0.64996061  0.98980652  0.11762948  1
  O  O155  1  0.62464708  0.98948852  0.62486335  1
  O  O156  1  0.98671131  0.33812666  0.12226370  1
  O  O157  1  0.97130470  0.31755162  0.63235205  1
  O  O158  1  0.96896906  0.66017643  0.12607186  1
  O  O159  1  0.97837870  0.66317541  0.62254010  1
  O  O160  1  0.96753455  0.99918718  0.12420372  1
  O  O161  1  0.98527307  1.00553609  0.62734481  1
  O  O162  1  0.19814338  0.16212409  0.12337640  1
  O  O163  1  0.18484569  0.16367633  0.62325908  1
  O  O164  1  0.19783087  0.49786289  0.12274902  1
  O  O165  1  0.20427596  0.50068032  0.62516186  1
  O  O166  1  0.17922172  0.82935019  0.12335899  1
  O  O167  1  0.18037407  0.82462653  0.62712936  1
  O  O168  1  0.51593220  0.17171182  0.12661916  1
  O  O169  1  0.52969435  0.15708750  0.63008195  1
  O  O170  1  0.53150830  0.48734921  0.11545045  1
  O  O171  1  0.52217596  0.48455382  0.63050393  1
  O  O172  1  0.53233662  0.82097568  0.12598424  1
  O  O173  1  0.53186691  0.81825402  0.62077157  1
  O  O174  1  0.85202463  0.15803978  0.12145838  1
  O  O175  1  0.87232066  0.16538306  0.61839522  1
  O  O176  1  0.85530737  0.51001836  0.12261083  1
  O  O177  1  0.84629686  0.49412483  0.63419969  1
  O  O178  1  0.85664133  0.81485596  0.11976625  1
  O  O179  1  0.85997080  0.82659133  0.62617203  1
  O  O180  1  0.13590248  0.17056974  0.37432237  1
  O  O181  1  0.13605036  0.17618897  0.87359018  1
  O  O182  1  0.14922323  0.51380261  0.36825291  1
  O  O183  1  0.15367838  0.51601316  0.87863201  1
  O  O184  1  0.15281700  0.83781655  0.37262526  1
  O  O185  1  0.13191368  0.84130064  0.87835232  1
  O  O186  1  0.45529360  0.17333966  0.37572822  1
  O  O187  1  0.48238650  0.17521661  0.87225240  1
  O  O188  1  0.48524340  0.51248506  0.38129235  1
  O  O189  1  0.47774702  0.51699033  0.87492160  1
  O  O190  1  0.47848665  0.83009088  0.38109958  1
  O  O191  1  0.48888342  0.82679972  0.87701999  1
  O  O192  1  0.79885505  0.17579667  0.38466959  1
  O  O193  1  0.80882899  0.19164985  0.87196300  1
  O  O194  1  0.81466705  0.51001513  0.36508743  1
  O  O195  1  0.79825295  0.49705030  0.88056326  1
  O  O196  1  0.81469664  0.84158072  0.37107837  1
  O  O197  1  0.80098366  0.84115735  0.88212402  1
  O  O198  1  0.03050213  0.01460649  0.36820691  1
  O  O199  1  0.03327891  0.01649556  0.88276553  1
  O  O200  1  0.01202978  0.35636364  0.37402683  1
  O  O201  1  0.03672208  0.33939062  0.86867215  1
  O  O202  1  0.03205929  0.66078407  0.37305294  1
  O  O203  1  0.02552751  0.66700885  0.87407041  1
  O  O204  1  0.34698009  0.01299905  0.36750171  1
  O  O205  1  0.35415377  0.00210800  0.87948196  1
  O  O206  1  0.35049469  0.33185862  0.36307584  1
  O  O207  1  0.36477746  0.33394230  0.86997595  1
  O  O208  1  0.36850815  0.66741159  0.37089256  1
  O  O209  1  0.37002102  0.66389354  0.88506007  1
  O  O210  1  0.70546272  0.00768547  0.37801996  1
  O  O211  1  0.70143684  -0.00293622  0.87932071  1
  O  O212  1  0.68717794  0.34020812  0.38463212  1
  O  O213  1  0.69425209  0.34492595  0.87841812  1
  O  O214  1  0.69809235  0.66873665  0.36633322  1
  O  O215  1  0.67888154  0.68033810  0.87291158  1
  O  O216  1  0.06657488  0.09730045  0.01573181  1
  O  O217  1  0.06527847  0.10715012  0.51377022  1
  O  O218  1  0.07885462  0.43446548  0.00876538  1
  O  O219  1  0.07271557  0.43070340  0.50865942  1
  O  O220  1  0.06307674  0.75422202  0.00677436  1
  O  O221  1  0.06764843  0.75372968  0.51001508  1
  O  O222  1  0.39731147  0.09713261  0.02118002  1
  O  O223  1  0.41452323  0.08411751  0.52589582  1
  O  O224  1  0.40762111  0.43527359  0.02587491  1
  O  O225  1  0.40997346  0.43303207  0.52441898  1
  O  O226  1  0.40326603  0.75156301  0.02673457  1
  O  O227  1  0.41062097  0.75477250  0.52425333  1
  O  O228  1  0.74319033  0.08511483  0.01801243  1
  O  O229  1  0.73977932  0.10795009  0.52787171  1
  O  O230  1  0.72786309  0.43880266  0.02088109  1
  O  O231  1  0.73777623  0.42019535  0.52412753  1
  O  O232  1  0.73635946  0.76795991  0.02306728  1
  O  O233  1  0.73048940  0.76464973  0.52748023  1
  O  O234  1  0.09801081  0.25597309  0.00782332  1
  O  O235  1  0.09429233  0.25611887  0.51850654  1
  O  O236  1  0.09839306  0.59873826  0.00942019  1
  O  O237  1  0.09657291  0.59847825  0.50675663  1
  O  O238  1  0.08799613  0.93172693  0.01289330  1
  O  O239  1  0.09518043  0.92967155  0.50146789  1
  O  O240  1  0.43258296  0.26942276  0.01330666  1
  O  O241  1  0.43505039  0.26851451  0.52669590  1
  O  O242  1  0.43470290  0.59397647  0.03094907  1
  O  O243  1  0.43446174  0.59575407  0.52577470  1
  O  O244  1  0.42063754  0.92991404  0.01759206  1
  O  O245  1  0.43460692  0.92197276  0.52696914  1
  O  O246  1  0.75337135  0.27152267  0.01558609  1
  O  O247  1  0.76398897  0.26601327  0.53351840  1
  O  O248  1  0.76121395  0.59510478  0.02709353  1
  O  O249  1  0.76331723  0.59476419  0.50530141  1
  O  O250  1  0.77249123  0.93122459  0.02517400  1
  O  O251  1  0.74984349  0.92174899  0.52808140  1
  O  O252  1  0.23253384  0.07197192  0.27545466  1
  O  O253  1  0.23169114  0.07179523  0.77717693  1
  O  O254  1  0.23775295  0.40652640  0.26203216  1
  O  O255  1  0.23979398  0.39431720  0.77593249  1
  O  O256  1  0.24155057  0.72926535  0.27143618  1
  O  O257  1  0.23714244  0.73637429  0.78171889  1
  O  O258  1  0.57570586  0.07571151  0.27259312  1
  O  O259  1  0.56446427  0.07266121  0.76659369  1
  O  O260  1  0.56705980  0.40273171  0.25605197  1
  O  O261  1  0.56728466  0.40585565  0.77851488  1
  O  O262  1  0.56725195  0.72300129  0.27056680  1
  O  O263  1  0.56630577  0.72375811  0.76829491  1
  O  O264  1  0.90972011  0.07092869  0.27389387  1
  O  O265  1  0.90178661  0.07093225  0.78739463  1
  O  O266  1  0.90389972  0.41931826  0.26208192  1
  O  O267  1  0.89938451  0.39668041  0.76925558  1
  O  O268  1  0.90037181  0.72307101  0.26519692  1
  O  O269  1  0.91120606  0.73710108  0.77520732  1
  O  O270  1  0.26815412  0.23045167  0.26300609  1
  O  O271  1  0.26174312  0.24191713  0.77213299  1
  O  O272  1  0.26595961  0.57066975  0.26361580  1
  O  O273  1  0.25941331  0.57572222  0.76387851  1
  O  O274  1  0.25566950  0.91687327  0.26624992  1
  O  O275  1  0.26182388  0.91567919  0.77621782  1
  O  O276  1  0.59822193  0.23561628  0.27940067  1
  O  O277  1  0.58955500  0.23809007  0.76873854  1
  O  O278  1  0.60026458  0.57200971  0.26535641  1
  O  O279  1  0.59609809  0.56621589  0.78046259  1
  O  O280  1  0.59821263  0.90120933  0.25739984  1
  O  O281  1  0.60194752  0.89664142  0.76972378  1
  O  O282  1  0.93378903  0.23642855  0.27649965  1
  O  O283  1  0.93806404  0.23929353  0.77585506  1
  O  O284  1  0.93165625  0.57000871  0.27583891  1
  O  O285  1  0.92190054  0.57142878  0.76473018  1
  O  O286  1  0.92803238  0.91579645  0.26661738  1
  O  O287  1  0.92735646  0.90403279  0.79075016  1
  O  O288  1  0.26180996  0.22865495  0.47849488  1
  O  O289  1  0.25483508  0.23825277  0.98153397  1
  O  O290  1  0.26744366  0.57891714  0.47594608  1
  O  O291  1  0.26832633  0.56751450  0.98953379  1
  O  O292  1  0.25904446  0.91091434  0.48269586  1
  O  O293  1  0.25654773  0.91396507  0.98001872  1
  O  O294  1  0.60614445  0.23702187  0.48214865  1
  O  O295  1  0.59372943  0.25085571  0.97447342  1
  O  O296  1  0.58815110  0.57458885  0.48585663  1
  O  O297  1  0.59733527  0.56277634  0.97527279  1
  O  O298  1  0.58748825  0.89798924  0.48452059  1
  O  O299  1  0.61113520  0.89702316  0.98275344  1
  O  O300  1  0.92988548  0.23076394  0.47529712  1
  O  O301  1  0.92907408  0.24282796  0.96889149  1
  O  O302  1  0.93587394  0.56930525  0.47049428  1
  O  O303  1  0.92421990  0.56934656  0.98237128  1
  O  O304  1  0.91629412  0.91793123  0.47382963  1
  O  O305  1  0.93106500  0.90297697  0.97351752  1
  O  O306  1  0.23026067  0.07440575  0.47292213  1
  O  O307  1  0.23206857  0.06936084  0.97626970  1
  O  O308  1  0.24672270  0.40667851  0.48143321  1
  O  O309  1  0.23298153  0.40644136  0.97531156  1
  O  O310  1  0.24517446  0.73031814  0.47382659  1
  O  O311  1  0.24120076  0.72685080  0.97574558  1
  O  O312  1  0.58151578  0.08349777  0.46933136  1
  O  O313  1  0.58191185  0.06732884  0.98610803  1
  O  O314  1  0.56925634  0.40085003  0.49059990  1
  O  O315  1  0.56556490  0.40462138  0.96671362  1
  O  O316  1  0.56195759  0.73199064  0.47879487  1
  O  O317  1  0.56031381  0.72302813  0.99017983  1
  O  O318  1  0.89747463  0.07852797  0.46717286  1
  O  O319  1  0.90776190  0.06778991  0.97593443  1
  O  O320  1  0.89929512  0.40137861  0.50551190  1
  O  O321  1  0.89572832  0.40810958  0.97409968  1
  O  O322  1  0.90453885  0.72597089  0.47237966  1
  O  O323  1  0.90186033  0.73495561  0.98001909  1
  O  O324  1  0.10008733  0.25676380  0.23492522  1
  O  O325  1  0.09676181  0.26454527  0.72965103  1
  O  O326  1  0.10119624  0.59815686  0.23967827  1
  O  O327  1  0.08632223  0.58993747  0.73941915  1
  O  O328  1  0.08823119  0.93125427  0.24075067  1
  O  O329  1  0.09807373  0.93248239  0.74587281  1
  O  O330  1  0.42399715  0.26937299  0.21974061  1
  O  O331  1  0.43783595  0.26878046  0.73240756  1
  O  O332  1  0.42839789  0.59455408  0.22310046  1
  O  O333  1  0.43306899  0.58999399  0.72396691  1
  O  O334  1  0.41777079  0.93015902  0.23579334  1
  O  O335  1  0.42636124  0.93551901  0.73345672  1
  O  O336  1  0.76174593  0.26725315  0.23249386  1
  O  O337  1  0.76310513  0.26626041  0.71975511  1
  O  O338  1  0.76538058  0.60311390  0.22154078  1
  O  O339  1  0.75805719  0.59454064  0.73845016  1
  O  O340  1  0.76549722  0.92652444  0.21707455  1
  O  O341  1  0.75769838  0.92327342  0.72919990  1
  O  O342  1  0.06861315  0.09984213  0.23398762  1
  O  O343  1  0.06591511  0.10997952  0.73750691  1
  O  O344  1  0.07891604  0.43639591  0.24190623  1
  O  O345  1  0.07064125  0.42040266  0.72810941  1
  O  O346  1  0.06507587  0.75276339  0.23529915  1
  O  O347  1  0.06634159  0.75247940  0.74536979  1
  O  O348  1  0.39065713  0.10060067  0.22891799  1
  O  O349  1  0.40904114  0.09438794  0.73253249  1
  O  O350  1  0.39862687  0.42677763  0.21862692  1
  O  O351  1  0.40424722  0.43035776  0.72446951  1
  O  O352  1  0.40653562  0.75215343  0.22638824  1
  O  O353  1  0.41107474  0.75511426  0.72600192  1
  O  O354  1  0.74767646  0.08958494  0.23149391  1
  O  O355  1  0.73233055  0.10246458  0.72086604  1
  O  O356  1  0.73771095  0.44233136  0.22570905  1
  O  O357  1  0.74137695  0.42972508  0.74196878  1
  O  O358  1  0.72822743  0.75767997  0.21926433  1
  O  O359  1  0.72333955  0.76104853  0.73472521  1
