# generated using pymatgen
data_BaLaInIrO6
_symmetry_space_group_name_H-M   'P 1'
_cell_length_a   17.53138307
_cell_length_b   17.55493039
_cell_length_c   16.50506160
_cell_angle_alpha   89.95502669
_cell_angle_beta   89.97501185
_cell_angle_gamma   90.03470428
_symmetry_Int_Tables_number   1
_chemical_formula_structural   BaLaInIrO6
_chemical_formula_sum   'Ba36 La36 In36 Ir36 O216'
_cell_volume   5079.63124493
_cell_formula_units_Z   36
loop_
 _symmetry_equiv_pos_site_id
 _symmetry_equiv_pos_as_xyz
  1  'x, y, z'
loop_
 _atom_site_type_symbol
 _atom_site_label
 _atom_site_symmetry_multiplicity
 _atom_site_fract_x
 _atom_site_fract_y
 _atom_site_fract_z
 _atom_site_occupancy
  Ba  Ba0  1  1.00254567  0.17585856  0.12897758  1
  Ba  Ba1  1  0.50018950  0.32261199  0.87518761  1
  Ba  Ba2  1  0.49931315  0.33732073  0.63057731  1
  Ba  Ba3  1  0.83329495  0.67185801  0.12075060  1
  Ba  Ba4  1  0.16758174  0.65600691  0.87682000  1
  Ba  Ba5  1  0.66896489  0.17840265  0.62259282  1
  Ba  Ba6  1  -0.00104872  0.82501174  0.37356260  1
  Ba  Ba7  1  0.83394469  0.99277649  0.37255012  1
  Ba  Ba8  1  0.33270484  0.15950877  0.87456240  1
  Ba  Ba9  1  0.50305179  0.99055396  0.37024229  1
  Ba  Ba10  1  1.00000880  0.84077997  0.12422695  1
  Ba  Ba11  1  0.83520465  0.00554565  0.12622387  1
  Ba  Ba12  1  0.66071919  0.15787952  0.87541782  1
  Ba  Ba13  1  0.00126283  0.82305368  0.87265874  1
  Ba  Ba14  1  0.83131892  0.32494324  0.37984005  1
  Ba  Ba15  1  0.33665225  0.84346328  0.62453046  1
  Ba  Ba16  1  0.50037987  0.00534482  0.62308916  1
  Ba  Ba17  1  0.33267378  0.50900707  0.12856291  1
  Ba  Ba18  1  0.16757726  0.32514760  0.87116851  1
  Ba  Ba19  1  0.67145459  0.84045518  0.12585799  1
  Ba  Ba20  1  0.16196711  0.01355023  0.12272905  1
  Ba  Ba21  1  0.66741292  0.82741578  0.37346073  1
  Ba  Ba22  1  0.33840085  0.49289604  0.37848992  1
  Ba  Ba23  1  0.00063477  0.48846299  0.87473937  1
  Ba  Ba24  1  0.83021450  0.66231403  0.36967996  1
  Ba  Ba25  1  0.83497777  0.32407865  0.87894913  1
  Ba  Ba26  1  0.16629386  0.34289974  0.62491458  1
  Ba  Ba27  1  0.17152241  0.32782082  0.37853608  1
  Ba  Ba28  1  0.49541375  0.67864223  0.62705514  1
  Ba  Ba29  1  0.83313817  0.33870505  0.12792349  1
  Ba  Ba30  1  0.33705191  0.17959223  0.12723410  1
  Ba  Ba31  1  0.99658523  0.17849492  0.62283460  1
  Ba  Ba32  1  1.00068027  0.84311417  0.62637069  1
  Ba  Ba33  1  0.66975976  0.84372698  0.62051969  1
  Ba  Ba34  1  0.49857328  0.67582715  0.12235873  1
  Ba  Ba35  1  0.66751416  0.17391135  0.13011917  1
  La  La36  1  0.82646761  0.34893733  0.62779600  1
  La  La37  1  0.32962455  0.81786847  0.86958820  1
  La  La38  1  0.16065495  0.01734094  0.62685271  1
  La  La39  1  0.65883373  0.49370964  0.37109278  1
  La  La40  1  0.32460237  0.48286543  0.87722954  1
  La  La41  1  0.66662985  0.50764895  0.62168938  1
  La  La42  1  -0.00282936  0.48703437  0.37797096  1
  La  La43  1  0.50205244  0.98456072  0.87501075  1
  La  La44  1  0.84436237  0.64939214  0.86663903  1
  La  La45  1  0.50888202  0.31848072  0.37891682  1
  La  La46  1  0.16944348  0.33865407  0.12143958  1
  La  La47  1  0.16337545  0.99166643  0.37453354  1
  La  La48  1  0.32885276  0.15159878  0.38183718  1
  La  La49  1  0.34018505  0.84886456  0.11981107  1
  La  La50  1  0.66354884  0.48279541  0.87923387  1
  La  La51  1  0.82156378  0.01491941  0.61974212  1
  La  La52  1  0.49469352  0.01659511  0.12181162  1
  La  La53  1  0.17274996  0.65540549  0.37496401  1
  La  La54  1  0.49375109  0.34924610  0.12357393  1
  La  La55  1  0.50462042  0.65604282  0.37117061  1
  La  La56  1  0.82731778  0.68282351  0.62118771  1
  La  La57  1  -0.00508426  0.15597463  0.87760568  1
  La  La58  1  0.66667011  0.14857242  0.37232443  1
  La  La59  1  0.16234871  0.67786263  0.62791268  1
  La  La60  1  0.99940144  0.51136805  0.62552906  1
  La  La61  1  0.66155712  0.81902161  0.88059113  1
  La  La62  1  1.00738449  0.50657119  0.12725577  1
  La  La63  1  0.83359271  0.99073182  0.87332221  1
  La  La64  1  -0.00093190  0.15357780  0.37455422  1
  La  La65  1  0.33714589  0.18232235  0.62770875  1
  La  La66  1  0.66868814  0.50859152  0.12495868  1
  La  La67  1  0.33858917  0.51191150  0.63114370  1
  La  La68  1  0.17076720  0.98463480  0.87390738  1
  La  La69  1  0.49990849  0.64819837  0.87867184  1
  La  La70  1  0.16081524  0.68044152  0.12433969  1
  La  La71  1  0.32950905  0.81849696  0.37504011  1
  In  In72  1  0.49755516  0.83474275  0.49686265  1
  In  In73  1  0.83425122  0.16895647  0.25141274  1
  In  In74  1  0.49939013  0.16492857  0.49971897  1
  In  In75  1  0.49923092  0.49715557  0.75264982  1
  In  In76  1  0.16758066  0.16832559  -0.00250856  1
  In  In77  1  0.00010644  0.66425393  -0.00383060  1
  In  In78  1  0.00195261  0.00167609  0.24973866  1
  In  In79  1  0.83088514  0.83454168  0.74824175  1
  In  In80  1  0.66527641  0.66512574  0.24824838  1
  In  In81  1  0.49835009  0.16920226  0.25210583  1
  In  In82  1  0.83247776  0.49609333  0.00123732  1
  In  In83  1  0.66609954  -0.00164183  0.75093740  1
  In  In84  1  0.00321958  0.66339977  0.25167573  1
  In  In85  1  0.66424575  -0.00358718  0.24491216  1
  In  In86  1  0.00114005  0.00018810  -0.00417882  1
  In  In87  1  0.83349585  0.50360614  0.49761453  1
  In  In88  1  0.00002915  0.33150176  0.00023609  1
  In  In89  1  0.82971190  0.83310713  -0.00492714  1
  In  In90  1  0.66697494  0.66313586  0.75201406  1
  In  In91  1  0.66669891  0.66328250  -0.00318721  1
  In  In92  1  0.16671833  0.50116852  0.74911295  1
  In  In93  1  0.16570725  0.17070313  0.50268580  1
  In  In94  1  0.33367328  0.66521776  0.50016953  1
  In  In95  1  0.66458567  0.66426917  0.50096758  1
  In  In96  1  0.83240003  0.16908235  0.75120701  1
  In  In97  1  0.33087516  0.00063218  0.74804982  1
  In  In98  1  0.17007292  0.49939005  0.25276924  1
  In  In99  1  0.17150676  0.83470409  0.24835022  1
  In  In100  1  0.66561951  0.33458584  0.25098060  1
  In  In101  1  -0.00001383  0.00037642  0.74908502  1
  In  In102  1  0.33390375  0.66515138  0.00304472  1
  In  In103  1  0.33314364  -0.00149936  0.25005474  1
  In  In104  1  0.49954611  0.16341549  0.75065227  1
  In  In105  1  0.16664336  0.50039405  0.50289012  1
  In  In106  1  0.16896767  0.17282696  0.25377842  1
  In  In107  1  0.16547223  0.83589061  0.50181844  1
  Ir  Ir108  1  0.66976516  -0.00006072  0.49763639  1
  Ir  Ir109  1  0.83865970  0.83351459  0.49674074  1
  Ir  Ir110  1  0.49746080  0.83103369  0.75750948  1
  Ir  Ir111  1  0.49485927  0.83153126  0.24257916  1
  Ir  Ir112  1  0.33022915  0.33296393  0.74897976  1
  Ir  Ir113  1  0.83499561  0.49815917  0.74546326  1
  Ir  Ir114  1  0.32858495  0.00104944  0.49919336  1
  Ir  Ir115  1  0.83484292  0.49818989  0.25079660  1
  Ir  Ir116  1  -0.00193481  0.66352309  0.74425921  1
  Ir  Ir117  1  0.49832905  0.49800205  0.25200304  1
  Ir  Ir118  1  0.49880912  0.16531050  0.00069468  1
  Ir  Ir119  1  0.33482644  0.66654387  0.75333605  1
  Ir  Ir120  1  0.49795125  0.83578756  -0.00131836  1
  Ir  Ir121  1  0.50135103  0.49432619  0.50188668  1
  Ir  Ir122  1  0.00132919  0.34068681  0.25536275  1
  Ir  Ir123  1  0.33942326  0.33522621  0.49984665  1
  Ir  Ir124  1  0.17025623  0.49676591  0.00275999  1
  Ir  Ir125  1  0.49826400  0.49620013  0.00029505  1
  Ir  Ir126  1  -0.00296110  0.00296389  0.50499567  1
  Ir  Ir127  1  0.33643208  -0.00160467  -0.00384972  1
  Ir  Ir128  1  0.82667215  0.16426295  -0.00191781  1
  Ir  Ir129  1  0.65995720  0.33076714  0.00110196  1
  Ir  Ir130  1  0.17067310  0.82989508  0.75001770  1
  Ir  Ir131  1  0.66941653  0.33764949  0.74923528  1
  Ir  Ir132  1  0.33571573  0.33434119  0.00287533  1
  Ir  Ir133  1  0.16364611  0.16836761  0.74836963  1
  Ir  Ir134  1  0.00081273  0.66627933  0.50350295  1
  Ir  Ir135  1  -0.00260839  0.33233424  0.74577714  1
  Ir  Ir136  1  0.17481984  0.83316683  -0.00504804  1
  Ir  Ir137  1  0.33618629  0.66804652  0.25059013  1
  Ir  Ir138  1  0.83560379  0.83138706  0.25078808  1
  Ir  Ir139  1  0.33994069  0.33586958  0.25432802  1
  Ir  Ir140  1  0.66815096  0.33623506  0.50258535  1
  Ir  Ir141  1  0.66308821  0.00085596  -0.00227692  1
  Ir  Ir142  1  0.83452015  0.16919849  0.49964030  1
  Ir  Ir143  1  -0.00429166  0.33532158  0.50150244  1
  O  O144  1  0.30753923  0.33199478  0.12854463  1
  O  O145  1  0.31354690  0.31873505  0.62319518  1
  O  O146  1  0.30030135  0.66581694  0.13079528  1
  O  O147  1  0.30445080  0.65497569  0.63183398  1
  O  O148  1  0.31156041  0.98898541  0.11541282  1
  O  O149  1  0.29614066  0.99437974  0.61926031  1
  O  O150  1  0.63031539  0.33165750  0.12154284  1
  O  O151  1  0.64792844  0.33793205  0.62597853  1
  O  O152  1  0.64544010  0.65123217  0.12406399  1
  O  O153  1  0.64086419  0.64609462  0.62727360  1
  O  O154  1  0.63137737  0.99842313  0.11617444  1
  O  O155  1  0.65236315  1.00133217  0.61721794  1
  O  O156  1  0.98467890  0.33991693  0.13606890  1
  O  O157  1  0.96380243  0.33162817  0.62285984  1
  O  O158  1  0.98406788  0.64720093  0.12317208  1
  O  O159  1  0.96421088  0.65668243  0.62303357  1
  O  O160  1  0.98789940  0.99763567  0.12196963  1
  O  O161  1  0.96213405  1.00290336  0.62227658  1
  O  O162  1  0.18627838  0.17331131  0.12641050  1
  O  O163  1  0.19881308  0.15872020  0.62777492  1
  O  O164  1  0.18434880  0.48065203  0.12308766  1
  O  O165  1  0.20323025  0.50416064  0.62609311  1
  O  O166  1  0.20347907  0.82271292  0.11556034  1
  O  O167  1  0.18981010  0.81528955  0.62916368  1
  O  O168  1  0.51607562  0.15997802  0.12052111  1
  O  O169  1  0.51615792  0.16686353  0.62406087  1
  O  O170  1  0.52996988  0.48749430  0.12608090  1
  O  O171  1  0.52840170  0.49215819  0.62287537  1
  O  O172  1  0.52345393  0.82858788  0.12001384  1
  O  O173  1  0.51753339  0.83108810  0.63589223  1
  O  O174  1  0.84807448  0.16449196  0.11743531  1
  O  O175  1  0.84973139  0.15781726  0.61996713  1
  O  O176  1  0.86888280  0.49657508  0.13304322  1
  O  O177  1  0.86558606  0.48799844  0.62688702  1
  O  O178  1  0.84835370  0.83173085  0.12948091  1
  O  O179  1  0.85339016  0.82360126  0.61605141  1
  O  O180  1  0.13690199  0.17515143  0.38023010  1
  O  O181  1  0.13345683  0.17270472  0.86646441  1
  O  O182  1  0.13446792  0.51150349  0.37840270  1
  O  O183  1  0.15400876  0.49894211  0.88024597  1
  O  O184  1  0.14859019  0.85100422  0.37674210  1
  O  O185  1  0.14896163  0.84436479  0.87249422  1
  O  O186  1  0.46354772  0.17634748  0.37755787  1
  O  O187  1  0.48213046  0.16669197  0.88099104  1
  O  O188  1  0.48529559  0.51744673  0.37622465  1
  O  O189  1  0.46304273  0.50258900  0.88069330  1
  O  O190  1  0.46531872  0.83577867  0.36221589  1
  O  O191  1  0.46585662  0.84446193  0.87942000  1
  O  O192  1  0.80240110  0.17193780  0.38332040  1
  O  O193  1  0.80783582  0.17120256  0.88045482  1
  O  O194  1  0.79934501  0.50114043  0.37040875  1
  O  O195  1  0.80178273  0.50667182  0.86546582  1
  O  O196  1  0.81910166  0.83248501  0.37498400  1
  O  O197  1  0.79269419  0.85032227  0.87064360  1
  O  O198  1  0.02859514  0.00786100  0.38622855  1
  O  O199  1  0.03780453  0.01227238  0.87125069  1
  O  O200  1  0.02368315  0.35073311  0.37957787  1
  O  O201  1  0.01754787  0.33248924  0.86583957  1
  O  O202  1  0.03525337  0.66715968  0.38357687  1
  O  O203  1  0.01994210  0.66297944  0.86421553  1
  O  O204  1  0.35483415  0.01231438  0.38165199  1
  O  O205  1  0.36547142  0.00303820  0.87813724  1
  O  O206  1  0.37245028  0.34145687  0.37679911  1
  O  O207  1  0.35345979  0.34844211  0.87497307  1
  O  O208  1  0.37046335  0.67646035  0.36848621  1
  O  O209  1  0.36552383  0.67647765  0.87393038  1
  O  O210  1  0.68257282  0.00179400  0.37822546  1
  O  O211  1  0.69452224  0.00074259  0.88043209  1
  O  O212  1  0.68301484  0.35542020  0.38365525  1
  O  O213  1  0.68793451  0.34576454  0.87458115  1
  O  O214  1  0.67463317  0.64895286  0.37404995  1
  O  O215  1  0.70621717  0.67295042  0.87316493  1
  O  O216  1  0.06700420  0.10252522  0.00608671  1
  O  O217  1  0.07207403  0.08811548  0.52376468  1
  O  O218  1  0.07521244  0.43288834  0.02312482  1
  O  O219  1  0.06178828  0.43140603  0.52445720  1
  O  O220  1  0.08750693  0.75626173  0.01725917  1
  O  O221  1  0.07329048  0.75227307  0.52460014  1
  O  O222  1  0.40802508  0.08985034  0.02458263  1
  O  O223  1  0.39026879  0.09867089  0.52098235  1
  O  O224  1  0.40995084  0.42245945  0.02781153  1
  O  O225  1  0.40270326  0.43177928  0.52798778  1
  O  O226  1  0.40334219  0.76991766  0.01912109  1
  O  O227  1  0.40275184  0.76167867  0.51112487  1
  O  O228  1  0.73156432  0.09401156  0.01928724  1
  O  O229  1  0.74459903  0.09168783  0.51900479  1
  O  O230  1  0.72700702  0.42307794  0.01941508  1
  O  O231  1  0.73744508  0.42805229  0.52944727  1
  O  O232  1  0.73032467  0.76482657  0.00832268  1
  O  O233  1  0.74886441  0.75855777  0.51196309  1
  O  O234  1  0.10085476  0.27109029  0.01981154  1
  O  O235  1  0.08624277  0.26615040  0.51794234  1
  O  O236  1  0.10270304  0.58907670  0.02569442  1
  O  O237  1  0.08883869  0.59749048  0.53516682  1
  O  O238  1  0.10426483  0.92157000  0.00793242  1
  O  O239  1  0.09236864  0.93602538  0.52848241  1
  O  O240  1  0.43347297  0.26492100  0.02441111  1
  O  O241  1  0.42867352  0.26726105  0.51372361  1
  O  O242  1  0.43155051  0.59007918  0.01359466  1
  O  O243  1  0.42746593  0.58248844  0.52161550  1
  O  O244  1  0.43328983  0.93228067  0.02419169  1
  O  O245  1  0.42099829  0.93307945  0.51385663  1
  O  O246  1  0.75301871  0.26034046  0.02015610  1
  O  O247  1  0.76608795  0.26796908  0.52610197  1
  O  O248  1  0.74838634  0.57731483  0.02437770  1
  O  O249  1  0.76259602  0.59406984  0.53123441  1
  O  O250  1  0.75232294  0.93436324  0.01687563  1
  O  O251  1  0.76765731  0.92942184  0.51987549  1
  O  O252  1  0.23890568  0.07146721  0.28063249  1
  O  O253  1  0.22688235  0.07120216  0.77060815  1
  O  O254  1  0.24641037  0.40332176  0.26609433  1
  O  O255  1  0.24646744  0.40924300  0.76526528  1
  O  O256  1  0.24520221  0.73389608  0.28021499  1
  O  O257  1  0.24258757  0.73752382  0.77337923  1
  O  O258  1  0.57813026  0.07908604  0.26690012  1
  O  O259  1  0.56486292  0.06215442  0.77345766  1
  O  O260  1  0.56428078  0.40536017  0.27587935  1
  O  O261  1  0.58273346  0.41022880  0.77287935  1
  O  O262  1  0.56075801  0.73658399  0.26939069  1
  O  O263  1  0.56512469  0.73810549  0.78381621  1
  O  O264  1  0.91511997  0.08367980  0.27557980  1
  O  O265  1  0.90972921  0.07739438  0.78439148  1
  O  O266  1  0.90682364  0.40906904  0.27811915  1
  O  O267  1  0.90191007  0.39983842  0.76198650  1
  O  O268  1  0.91055115  0.74365432  0.26091511  1
  O  O269  1  0.90427383  0.73026866  0.76560617  1
  O  O270  1  0.27682807  0.24061087  0.28000220  1
  O  O271  1  0.25853417  0.23763436  0.76329566  1
  O  O272  1  0.26437947  0.58058486  0.27531516  1
  O  O273  1  0.27051927  0.57150891  0.77507288  1
  O  O274  1  0.27741539  0.89348843  0.26461264  1
  O  O275  1  0.26013078  0.90187309  0.77638297  1
  O  O276  1  0.59473815  0.24026422  0.28740781  1
  O  O277  1  0.59659011  0.24780022  0.76276818  1
  O  O278  1  0.59322742  0.56183931  0.26436201  1
  O  O279  1  0.59141838  0.57133868  0.78736652  1
  O  O280  1  0.58532932  0.89976893  0.26245464  1
  O  O281  1  0.59206554  0.89652385  0.77927778  1
  O  O282  1  0.93978520  0.24431998  0.27595358  1
  O  O283  1  0.93396733  0.23826681  0.76917932  1
  O  O284  1  0.92965005  0.56378455  0.27707346  1
  O  O285  1  0.92764912  0.56956778  0.76733795  1
  O  O286  1  0.92248570  0.90600141  0.26210804  1
  O  O287  1  0.92505717  0.90814106  0.77138113  1
  O  O288  1  0.27364761  0.23768666  0.48144842  1
  O  O289  1  0.26553716  0.24572686  0.98358873  1
  O  O290  1  0.25166526  0.58240450  0.47197346  1
  O  O291  1  0.26406254  0.56502785  0.98016580  1
  O  O292  1  0.26575324  0.90854452  0.47191407  1
  O  O293  1  0.27002699  0.90346882  0.96860900  1
  O  O294  1  0.60085382  0.24308627  0.47236270  1
  O  O295  1  0.58993236  0.23755192  0.98302357  1
  O  O296  1  0.59944717  0.55360550  0.48558138  1
  O  O297  1  0.58715659  0.56765122  0.96914407  1
  O  O298  1  0.59454498  0.91137135  0.48466923  1
  O  O299  1  0.59311780  0.90594531  0.96884151  1
  O  O300  1  0.92984160  0.23738133  0.47466078  1
  O  O301  1  0.92488556  0.22906435  0.98043269  1
  O  O302  1  0.93645871  0.57207157  0.48056393  1
  O  O303  1  0.91721571  0.57781423  0.97109394  1
  O  O304  1  0.92949907  0.91020989  0.48135488  1
  O  O305  1  0.91761842  0.91483498  0.97043032  1
  O  O306  1  0.23455087  0.06673907  0.47765775  1
  O  O307  1  0.24067584  0.06383767  0.97276764  1
  O  O308  1  0.24931574  0.40608489  0.48755507  1
  O  O309  1  0.24272428  0.40561927  0.98073025  1
  O  O310  1  0.23803461  0.74018276  0.47024639  1
  O  O311  1  0.24607932  0.74609365  0.97377015  1
  O  O312  1  0.58454852  0.07732119  0.47527444  1
  O  O313  1  0.56162573  0.06491080  0.97960824  1
  O  O314  1  0.56839080  0.40085608  0.47761862  1
  O  O315  1  0.57235994  0.40785965  0.97750718  1
  O  O316  1  0.56725977  0.73480944  0.47632812  1
  O  O317  1  0.56317012  0.73965127  0.96958545  1
  O  O318  1  0.90932092  0.08010410  0.47476822  1
  O  O319  1  0.89491492  0.07450560  0.97156073  1
  O  O320  1  0.90881695  0.40808602  0.48407285  1
  O  O321  1  0.90831572  0.40571966  0.98717919  1
  O  O322  1  0.90666653  0.73568815  0.48145574  1
  O  O323  1  0.90321860  0.73723458  0.97143399  1
  O  O324  1  0.09994094  0.28160530  0.23328157  1
  O  O325  1  0.09255569  0.26273827  0.72717199  1
  O  O326  1  0.10369546  0.59610119  0.22340020  1
  O  O327  1  0.09001933  0.59390732  0.71922545  1
  O  O328  1  0.10322429  0.93394821  0.24263722  1
  O  O329  1  0.10610144  0.92672404  0.72780701  1
  O  O330  1  0.43549499  0.27465588  0.23100147  1
  O  O331  1  0.41586678  0.25729894  0.73765223  1
  O  O332  1  0.43067941  0.59694740  0.23448786  1
  O  O333  1  0.42312064  0.59385536  0.73331323  1
  O  O334  1  0.43232570  0.92444176  0.21454707  1
  O  O335  1  0.43089130  0.92430142  0.74064197  1
  O  O336  1  0.75926405  0.26213210  0.23994770  1
  O  O337  1  0.76327164  0.27180194  0.72810416  1
  O  O338  1  0.76190581  0.58281529  0.22714725  1
  O  O339  1  0.77111279  0.59029635  0.72121962  1
  O  O340  1  0.75893506  0.91709507  0.23967826  1
  O  O341  1  0.76528472  0.93429517  0.72054942  1
  O  O342  1  0.07174137  0.10209015  0.24830103  1
  O  O343  1  0.07974462  0.09470045  0.72162287  1
  O  O344  1  0.06078701  0.43896454  0.24002541  1
  O  O345  1  0.06440354  0.42842316  0.72395815  1
  O  O346  1  0.08467416  0.75392168  0.22458177  1
  O  O347  1  0.07750998  0.75077924  0.72274075  1
  O  O348  1  0.41098433  0.08730214  0.23118638  1
  O  O349  1  0.39675215  0.09752512  0.72448266  1
  O  O350  1  0.40846046  0.42755232  0.22949332  1
  O  O351  1  0.39809158  0.42788522  0.73001257  1
  O  O352  1  0.39803866  0.76577950  0.22180670  1
  O  O353  1  0.40115752  0.76443594  0.73917418  1
  O  O354  1  0.74077163  0.09052778  0.24580723  1
  O  O355  1  0.74187081  0.09241826  0.73260225  1
  O  O356  1  0.73680971  0.43458136  0.22590046  1
  O  O357  1  0.73837309  0.43369464  0.72256471  1
  O  O358  1  0.74823735  0.75546407  0.24182085  1
  O  O359  1  0.74380183  0.75289778  0.72135843  1
