# generated using pymatgen
data_BaLaInIrO6
_symmetry_space_group_name_H-M   'P 1'
_cell_length_a   17.53090862
_cell_length_b   17.56802568
_cell_length_c   16.51069599
_cell_angle_alpha   90.02672883
_cell_angle_beta   90.00253686
_cell_angle_gamma   89.98033903
_symmetry_Int_Tables_number   1
_chemical_formula_structural   BaLaInIrO6
_chemical_formula_sum   'Ba36 La36 In36 Ir36 O216'
_cell_volume   5085.02030283
_cell_formula_units_Z   36
loop_
 _symmetry_equiv_pos_site_id
 _symmetry_equiv_pos_as_xyz
  1  'x, y, z'
loop_
 _atom_site_type_symbol
 _atom_site_label
 _atom_site_symmetry_multiplicity
 _atom_site_fract_x
 _atom_site_fract_y
 _atom_site_fract_z
 _atom_site_occupancy
  Ba  Ba0  1  0.33598538  0.17603641  0.62290762  1
  Ba  Ba1  1  0.33256590  0.51193657  0.62264127  1
  Ba  Ba2  1  0.49957209  0.33868206  0.12993930  1
  Ba  Ba3  1  0.33239342  0.82788366  0.37491796  1
  Ba  Ba4  1  0.33349541  0.50592769  0.12602479  1
  Ba  Ba5  1  0.83641588  0.34186276  0.62715091  1
  Ba  Ba6  1  0.49707088  0.67621710  0.62850474  1
  Ba  Ba7  1  -0.00226808  0.15928760  0.37841596  1
  Ba  Ba8  1  0.50168303  0.65970975  0.37462704  1
  Ba  Ba9  1  1.00169280  0.16950124  0.62640763  1
  Ba  Ba10  1  0.83294443  0.67260537  0.62211004  1
  Ba  Ba11  1  0.66434620  0.84245221  0.12895912  1
  Ba  Ba12  1  0.50095410  0.00701079  0.62097952  1
  Ba  Ba13  1  0.16505855  0.67314950  0.61943478  1
  Ba  Ba14  1  0.16461354  0.00377668  0.62577216  1
  Ba  Ba15  1  0.66776706  0.82346937  0.87489819  1
  Ba  Ba16  1  0.49990704  0.32664358  0.37359734  1
  Ba  Ba17  1  0.83344094  0.34135810  0.12751064  1
  Ba  Ba18  1  0.66139913  0.82471626  0.37670803  1
  Ba  Ba19  1  1.00056075  0.83894733  0.62364263  1
  Ba  Ba20  1  0.32654940  0.82440647  0.87704921  1
  Ba  Ba21  1  0.83422547  0.32155040  0.37776644  1
  Ba  Ba22  1  0.33791546  0.17453836  0.12487870  1
  Ba  Ba23  1  -0.00106981  0.15655709  0.87498332  1
  Ba  Ba24  1  0.66664276  0.17936777  0.12693893  1
  Ba  Ba25  1  1.00156076  0.50353553  0.62534367  1
  Ba  Ba26  1  0.16804035  0.32473829  0.37984007  1
  Ba  Ba27  1  0.16395171  0.33941440  0.62385339  1
  Ba  Ba28  1  0.00013738  0.82389315  0.87273949  1
  Ba  Ba29  1  0.66504478  0.49343965  0.87135219  1
  Ba  Ba30  1  0.33190938  0.15788326  0.37653016  1
  Ba  Ba31  1  0.17127792  0.65807404  0.37453623  1
  Ba  Ba32  1  0.82968481  0.00365670  0.62459960  1
  Ba  Ba33  1  0.33212249  0.84851148  0.12760470  1
  Ba  Ba34  1  0.16889147  0.01368544  0.12966846  1
  Ba  Ba35  1  0.83161096  0.32411633  0.87126992  1
  La  La36  1  0.67098894  0.18651425  0.62255733  1
  La  La37  1  0.16332782  0.68939707  0.12118863  1
  La  La38  1  1.00891145  0.85338130  0.12072708  1
  La  La39  1  0.48845811  0.01412087  0.12808274  1
  La  La40  1  -0.00513055  0.48614579  0.87482309  1
  La  La41  1  0.50651751  0.31986922  0.87300813  1
  La  La42  1  0.32950390  0.14707548  0.87583770  1
  La  La43  1  1.00926293  0.51170870  0.13037625  1
  La  La44  1  0.83113090  0.01628337  0.12531150  1
  La  La45  1  0.00034728  0.48288655  0.38070603  1
  La  La46  1  0.17219967  0.31556290  0.87004772  1
  La  La47  1  0.17072272  0.65049415  0.87209575  1
  La  La48  1  0.49143472  0.34907110  0.61903210  1
  La  La49  1  0.66280729  0.48278140  0.37837767  1
  La  La50  1  0.16970450  0.33475324  0.13454673  1
  La  La51  1  -0.00129738  0.82225969  0.37546070  1
  La  La52  1  0.50163067  0.65312418  0.87458016  1
  La  La53  1  0.66505702  0.15412384  0.87127201  1
  La  La54  1  0.17137228  0.99455401  0.38144886  1
  La  La55  1  0.83130448  0.67882975  0.12231968  1
  La  La56  1  0.33136362  0.48484485  0.87276683  1
  La  La57  1  1.00310001  0.18658902  0.12984320  1
  La  La58  1  0.33677644  0.84835594  0.62427638  1
  La  La59  1  0.16896433  0.98684971  0.87732529  1
  La  La60  1  0.67428363  0.84375469  0.62562123  1
  La  La61  1  0.83458616  0.98150564  0.37167264  1
  La  La62  1  0.50279027  0.98587621  0.87680250  1
  La  La63  1  0.67061554  0.51504216  0.62107743  1
  La  La64  1  0.33024314  0.48624828  0.37957330  1
  La  La65  1  0.50100470  0.98675722  0.37353126  1
  La  La66  1  0.83839682  0.98792354  0.87718334  1
  La  La67  1  0.66567749  0.50208859  0.13651091  1
  La  La68  1  0.66081846  0.15639617  0.37534313  1
  La  La69  1  0.83749821  0.65046407  0.37164385  1
  La  La70  1  0.84021651  0.64950299  0.87767262  1
  La  La71  1  0.49635668  0.68199925  0.12200501  1
  In  In72  1  0.83476303  0.16799401  0.00210287  1
  In  In73  1  0.33255372  0.66527975  0.24733886  1
  In  In74  1  0.66956962  0.66340386  0.25111613  1
  In  In75  1  0.66671851  0.00037095  0.00345182  1
  In  In76  1  0.16427839  0.83643388  0.25209844  1
  In  In77  1  0.66652363  0.00157801  0.49744782  1
  In  In78  1  0.16793533  0.50122447  0.25190289  1
  In  In79  1  0.00279097  0.33694294  0.00072562  1
  In  In80  1  0.49828306  0.16618729  0.74669656  1
  In  In81  1  0.49916748  0.50029630  0.74715820  1
  In  In82  1  0.50071807  0.50129421  0.25131476  1
  In  In83  1  0.16622611  0.49844743  -0.00045716  1
  In  In84  1  0.50031990  0.16670409  -0.00413415  1
  In  In85  1  0.17025190  0.16183521  0.74952915  1
  In  In86  1  0.00284500  0.33077899  0.75220690  1
  In  In87  1  0.33357956  0.66885969  0.75110362  1
  In  In88  1  0.00093882  0.66485977  0.49679883  1
  In  In89  1  -0.00137025  -0.00118208  0.49960217  1
  In  In90  1  -0.00111136  0.32781490  0.50112992  1
  In  In91  1  0.49866071  0.83376976  0.24918807  1
  In  In92  1  0.83420856  0.82816536  0.74974002  1
  In  In93  1  0.66595770  0.00047266  0.75036991  1
  In  In94  1  0.66648549  0.66420683  0.00009366  1
  In  In95  1  0.00013460  0.00428830  0.25106415  1
  In  In96  1  0.66684192  0.33562891  -0.00096984  1
  In  In97  1  0.83454351  0.83253109  0.00457331  1
  In  In98  1  0.83497847  0.49889637  0.00528152  1
  In  In99  1  0.83021482  0.16438237  0.74861715  1
  In  In100  1  0.50036461  0.83163511  0.50359840  1
  In  In101  1  0.83080790  0.49758474  0.49702690  1
  In  In102  1  0.33448652  0.33190973  -0.00303072  1
  In  In103  1  0.16610544  0.82919280  0.74826985  1
  In  In104  1  0.49794703  0.49857343  -0.00099226  1
  In  In105  1  0.00227472  0.66538415  -0.00082302  1
  In  In106  1  0.16684745  0.16668813  0.00304300  1
  In  In107  1  0.66780705  0.00115272  0.24848015  1
  Ir  Ir108  1  0.66228582  0.33516386  0.74549729  1
  Ir  Ir109  1  0.49438025  0.83280473  -0.00431853  1
  Ir  Ir110  1  0.16464424  0.50061395  0.75152499  1
  Ir  Ir111  1  -0.00331031  0.66638557  0.24790594  1
  Ir  Ir112  1  0.66587754  0.66670870  0.74792007  1
  Ir  Ir113  1  0.33597211  -0.00420305  0.75156958  1
  Ir  Ir114  1  0.50082974  0.50154201  0.49868639  1
  Ir  Ir115  1  0.49961352  0.83384470  0.75307164  1
  Ir  Ir116  1  0.66841963  0.66592151  0.50055249  1
  Ir  Ir117  1  0.16509149  0.83675048  -0.00054415  1
  Ir  Ir118  1  0.33307965  0.66795341  0.50057378  1
  Ir  Ir119  1  0.33354882  0.00183745  0.50118389  1
  Ir  Ir120  1  0.33183397  0.66862940  -0.00172565  1
  Ir  Ir121  1  0.33451047  -0.00242468  -0.00035969  1
  Ir  Ir122  1  0.33472905  0.33422654  0.50279668  1
  Ir  Ir123  1  0.16841708  0.49957859  0.50109074  1
  Ir  Ir124  1  0.00034422  -0.00026067  0.00090959  1
  Ir  Ir125  1  -0.00254631  0.33606768  0.25313554  1
  Ir  Ir126  1  0.00028737  -0.00251223  0.75349336  1
  Ir  Ir127  1  0.33760266  0.33466294  0.74660730  1
  Ir  Ir128  1  0.66123232  0.33289671  0.50133020  1
  Ir  Ir129  1  0.82513461  0.16551792  0.49779379  1
  Ir  Ir130  1  0.16872775  0.83460679  0.49918789  1
  Ir  Ir131  1  0.16966463  0.16444642  0.49852170  1
  Ir  Ir132  1  0.33380713  0.00579437  0.25416925  1
  Ir  Ir133  1  0.49970376  0.16645624  0.25744989  1
  Ir  Ir134  1  0.84007976  0.82852445  0.25048090  1
  Ir  Ir135  1  0.83930973  0.50061631  0.25115934  1
  Ir  Ir136  1  0.83375475  0.16605341  0.25446457  1
  Ir  Ir137  1  0.67083907  0.33230402  0.25564815  1
  Ir  Ir138  1  0.33131882  0.33021722  0.25495688  1
  Ir  Ir139  1  0.83004921  0.50303798  0.74855445  1
  Ir  Ir140  1  0.16644968  0.17005090  0.25385323  1
  Ir  Ir141  1  0.83060655  0.82892318  0.49306772  1
  Ir  Ir142  1  0.00195107  0.66167106  0.75049390  1
  Ir  Ir143  1  0.50140475  0.16701915  0.49675856  1
  O  O144  1  0.30571191  0.32918649  0.13296863  1
  O  O145  1  0.31200601  0.33109743  0.62436020  1
  O  O146  1  0.29665118  0.66130999  0.11447147  1
  O  O147  1  0.31459239  0.66887991  0.61984215  1
  O  O148  1  0.31628975  1.00777264  0.12625139  1
  O  O149  1  0.31130492  0.98800423  0.62655462  1
  O  O150  1  0.65115641  0.33648637  0.13616648  1
  O  O151  1  0.62893656  0.32438662  0.62284000  1
  O  O152  1  0.63445188  0.64247798  0.12521232  1
  O  O153  1  0.64292425  0.65329606  0.62308491  1
  O  O154  1  0.62546322  1.00112051  0.12694958  1
  O  O155  1  0.65069371  0.98258980  0.62274632  1
  O  O156  1  0.98817994  0.33218795  0.13343434  1
  O  O157  1  0.98948450  0.33327966  0.62596170  1
  O  O158  1  0.96707577  0.64958376  0.13013770  1
  O  O159  1  0.98241532  0.66141523  0.62853718  1
  O  O160  1  0.96909470  0.99328711  0.12188215  1
  O  O161  1  0.98099179  0.99851525  0.63073181  1
  O  O162  1  0.18602038  0.17719101  0.13367809  1
  O  O163  1  0.18681375  0.16272195  0.61904247  1
  O  O164  1  0.18152782  0.47465529  0.12698046  1
  O  O165  1  0.18713074  0.49553477  0.62546935  1
  O  O166  1  0.18078511  0.82886915  0.11983922  1
  O  O167  1  0.19861511  0.83180052  0.61928402  1
  O  O168  1  0.51613970  0.15368566  0.13459976  1
  O  O169  1  0.53113138  0.16228532  0.61658831  1
  O  O170  1  0.53068311  0.49140107  0.12523469  1
  O  O171  1  0.53254485  0.49206390  0.61890691  1
  O  O172  1  0.51470708  0.82550105  0.11480852  1
  O  O173  1  0.53402954  0.83244813  0.63381576  1
  O  O174  1  0.86906886  0.15506326  0.13656366  1
  O  O175  1  0.84761700  0.16098191  0.61646286  1
  O  O176  1  0.87424817  0.49633948  0.13460053  1
  O  O177  1  0.84701692  0.50214245  0.62801395  1
  O  O178  1  0.87555344  0.81768018  0.13337669  1
  O  O179  1  0.84999784  0.82896528  0.61454063  1
  O  O180  1  0.14707500  0.15857566  0.37473122  1
  O  O181  1  0.15062153  0.17089501  0.87675783  1
  O  O182  1  0.14088229  0.50088082  0.38050087  1
  O  O183  1  0.13449153  0.51378381  0.86963759  1
  O  O184  1  0.13705475  0.84479667  0.37880779  1
  O  O185  1  0.15145582  0.84806884  0.87847750  1
  O  O186  1  0.47799663  0.17487038  0.37772287  1
  O  O187  1  0.46134410  0.18412813  0.86959860  1
  O  O188  1  0.46821202  0.50332730  0.37975188  1
  O  O189  1  0.46723607  0.51229922  0.87185427  1
  O  O190  1  0.48021054  0.84118840  0.37700264  1
  O  O191  1  0.47171867  0.84487325  0.87417271  1
  O  O192  1  0.79742612  0.17012207  0.37550881  1
  O  O193  1  0.80171741  0.16250797  0.87554435  1
  O  O194  1  0.80099813  0.50965863  0.36810504  1
  O  O195  1  0.81273146  0.51226446  0.86789725  1
  O  O196  1  0.80878409  0.84048263  0.36993723  1
  O  O197  1  0.81941838  0.84937616  0.87682519  1
  O  O198  1  0.03229235  -0.00021020  0.37548081  1
  O  O199  1  0.03140000  0.00046037  0.87852451  1
  O  O200  1  0.01534984  0.33738950  0.37281487  1
  O  O201  1  0.03537441  0.34555675  0.87591189  1
  O  O202  1  0.02175828  0.68314522  0.36556462  1
  O  O203  1  0.03284257  0.66506173  0.86907807  1
  O  O204  1  0.36384466  0.00158624  0.37735885  1
  O  O205  1  0.36458327  0.00218880  0.87562185  1
  O  O206  1  0.35284201  0.34513828  0.37979862  1
  O  O207  1  0.36848956  0.34613429  0.86279973  1
  O  O208  1  0.35104839  0.66919918  0.38145155  1
  O  O209  1  0.36509195  0.67248814  0.88153083  1
  O  O210  1  0.70198854  0.01295806  0.37320319  1
  O  O211  1  0.70370058  0.01033833  0.87659961  1
  O  O212  1  0.68869967  0.34256593  0.38019100  1
  O  O213  1  0.68476111  0.34044237  0.86292026  1
  O  O214  1  0.70088604  0.67175276  0.38091871  1
  O  O215  1  0.70015511  0.66949556  0.86562859  1
  O  O216  1  0.06302238  0.09605751  0.02609583  1
  O  O217  1  0.08206604  0.09118117  0.51280396  1
  O  O218  1  0.05639771  0.44726534  0.01532773  1
  O  O219  1  0.08053736  0.42660795  0.50788822  1
  O  O220  1  0.07163061  0.76864935  0.02428512  1
  O  O221  1  0.07811485  0.76199517  0.50943557  1
  O  O222  1  0.40709961  0.08518299  0.01227614  1
  O  O223  1  0.40868871  0.09270680  0.51904148  1
  O  O224  1  0.39322475  0.43689173  0.00446016  1
  O  O225  1  0.41070956  0.42535108  0.52367882  1
  O  O226  1  0.40095720  0.76150133  0.02285330  1
  O  O227  1  0.39933681  0.76194531  0.52345934  1
  O  O228  1  0.74774957  0.08897135  0.03423966  1
  O  O229  1  0.72825771  0.10631097  0.51729862  1
  O  O230  1  0.72919461  0.44000240  0.02560002  1
  O  O231  1  0.72730728  0.42840009  0.51960635  1
  O  O232  1  0.73899142  0.75821338  0.02621970  1
  O  O233  1  0.73362602  0.76225184  0.52355887  1
  O  O234  1  0.10749892  0.27366537  0.02284003  1
  O  O235  1  0.09454797  0.24954168  0.51005926  1
  O  O236  1  0.10464061  0.60393320  0.02735328  1
  O  O237  1  0.09345976  0.58465654  0.51159847  1
  O  O238  1  0.09829037  0.93408217  0.01868980  1
  O  O239  1  0.09465991  0.91985033  0.51603843  1
  O  O240  1  0.43175921  0.26326491  0.01588385  1
  O  O241  1  0.43116661  0.26428108  0.52385789  1
  O  O242  1  0.42638206  0.60734852  0.02378918  1
  O  O243  1  0.42716551  0.59486752  0.51871333  1
  O  O244  1  0.43252472  0.93236718  0.02042870  1
  O  O245  1  0.41473254  0.92301379  0.52189729  1
  O  O246  1  0.76172621  0.26376154  0.01550084  1
  O  O247  1  0.75307967  0.26046877  0.52484467  1
  O  O248  1  0.77311397  0.60248289  0.01798874  1
  O  O249  1  0.75450801  0.59235961  0.51488188  1
  O  O250  1  0.76660749  0.93045535  0.03130079  1
  O  O251  1  0.75980225  0.91773321  0.50866609  1
  O  O252  1  0.23348629  0.07295550  0.27583886  1
  O  O253  1  0.24509472  0.06561334  0.78116136  1
  O  O254  1  0.24383114  0.40245285  0.27035475  1
  O  O255  1  0.23900889  0.40428844  0.77713132  1
  O  O256  1  0.23305143  0.73919501  0.25402789  1
  O  O257  1  0.23326076  0.73183179  0.77584671  1
  O  O258  1  0.57097635  0.07880076  0.28374741  1
  O  O259  1  0.56946975  0.07264551  0.78236617  1
  O  O260  1  0.58443811  0.40689241  0.27216966  1
  O  O261  1  0.56703987  0.39836237  0.76556094  1
  O  O262  1  0.57852554  0.74134512  0.25646675  1
  O  O263  1  0.56890027  0.73710161  0.77742382  1
  O  O264  1  0.89619443  0.06834069  0.27602363  1
  O  O265  1  0.90449135  0.06339984  0.77281176  1
  O  O266  1  0.90987629  0.41097414  0.28143135  1
  O  O267  1  0.90710393  0.41916784  0.76969349  1
  O  O268  1  0.90119292  0.73051178  0.27613138  1
  O  O269  1  0.90620455  0.72763930  0.77267789  1
  O  O270  1  0.25830945  0.24093869  0.27199714  1
  O  O271  1  0.27321991  0.24093035  0.77550852  1
  O  O272  1  0.26789096  0.56467551  0.27631070  1
  O  O273  1  0.25689410  0.56768785  0.77623299  1
  O  O274  1  0.25525506  0.92175850  0.27197445  1
  O  O275  1  0.26338772  0.90798094  0.76146210  1
  O  O276  1  0.59905568  0.23618504  0.27739196  1
  O  O277  1  0.59830513  0.24027385  0.77243881  1
  O  O278  1  0.60597003  0.56229157  0.27830232  1
  O  O279  1  0.59293333  0.58046904  0.76516952  1
  O  O280  1  0.58713597  0.91547511  0.27304961  1
  O  O281  1  0.58427363  0.90753781  0.77660450  1
  O  O282  1  0.93248911  0.23575572  0.26156350  1
  O  O283  1  0.92160631  0.24086713  0.76447574  1
  O  O284  1  0.93415208  0.56814037  0.28010934  1
  O  O285  1  0.92714958  0.57213961  0.77769221  1
  O  O286  1  0.92922430  0.89809615  0.27735592  1
  O  O287  1  0.92730066  0.91128867  0.76621188  1
  O  O288  1  0.26144742  0.24234451  0.48328428  1
  O  O289  1  0.26773443  0.23398051  0.97027397  1
  O  O290  1  0.26465616  0.57000917  0.47876016  1
  O  O291  1  0.26587190  0.57552116  0.96782188  1
  O  O292  1  0.25456393  0.91525785  0.47549295  1
  O  O293  1  0.25677982  0.91222899  0.97931180  1
  O  O294  1  0.59817634  0.23357669  0.47792288  1
  O  O295  1  0.59865812  0.23511211  0.96845028  1
  O  O296  1  0.60044968  0.56737797  0.47706680  1
  O  O297  1  0.58435629  0.58108129  0.96784911  1
  O  O298  1  0.58150358  0.91831989  0.47685098  1
  O  O299  1  0.58339546  0.90476167  0.97625162  1
  O  O300  1  0.91622897  0.23395191  0.48645912  1
  O  O301  1  0.93890348  0.23161052  1.00141818  1
  O  O302  1  0.92361591  0.57585461  0.46515441  1
  O  O303  1  0.93280049  0.56925128  0.97074657  1
  O  O304  1  0.92316148  0.89954215  0.46895025  1
  O  O305  1  0.93770893  0.90534261  0.98843010  1
  O  O306  1  0.23954270  0.07085912  0.47805360  1
  O  O307  1  0.24152964  0.06695405  0.97559580  1
  O  O308  1  0.24786182  0.41430968  0.47789347  1
  O  O309  1  0.23496800  0.40284881  0.96467774  1
  O  O310  1  0.24247872  0.74175111  0.47925008  1
  O  O311  1  0.22825205  0.73434194  0.97890435  1
  O  O312  1  0.56788708  0.07709489  0.46693885  1
  O  O313  1  0.57330208  0.07323605  0.96518939  1
  O  O314  1  0.57261605  0.41016086  0.47664154  1
  O  O315  1  0.56377297  0.39705453  0.97362369  1
  O  O316  1  0.57959900  0.73639858  0.48768711  1
  O  O317  1  0.55883690  0.73814951  0.97782962  1
  O  O318  1  0.89063872  0.06970757  0.47485836  1
  O  O319  1  0.90341118  0.05882477  0.98082419  1
  O  O320  1  0.91390475  0.41349636  0.48066414  1
  O  O321  1  0.90344996  0.40452473  0.97778572  1
  O  O322  1  0.90182290  0.74016649  0.46906777  1
  O  O323  1  0.90049570  0.72982738  0.97991731  1
  O  O324  1  0.09471268  0.26585980  0.22974862  1
  O  O325  1  0.10328468  0.26103894  0.74513144  1
  O  O326  1  0.09275272  0.60217384  0.22053905  1
  O  O327  1  0.09871293  0.59476259  0.73091102  1
  O  O328  1  0.08540708  0.92278725  0.22300263  1
  O  O329  1  0.09126396  0.92626836  0.74113509  1
  O  O330  1  0.42313967  0.25680006  0.23615570  1
  O  O331  1  0.43205125  0.27080190  0.72097394  1
  O  O332  1  0.43500256  0.59952205  0.22203385  1
  O  O333  1  0.42551787  0.59534310  0.73655315  1
  O  O334  1  0.42814598  0.93954937  0.23368341  1
  O  O335  1  0.42790163  0.92412530  0.72624621  1
  O  O336  1  0.76443808  0.25867600  0.23679305  1
  O  O337  1  0.74974135  0.26489445  0.72575386  1
  O  O338  1  0.77319836  0.59212922  0.22278355  1
  O  O339  1  0.75191944  0.59087878  0.72261132  1
  O  O340  1  0.77569859  0.92675446  0.22942114  1
  O  O341  1  0.75284684  0.91609211  0.73032681  1
  O  O342  1  0.07149058  0.10550639  0.22921388  1
  O  O343  1  0.07246415  0.08442744  0.73940776  1
  O  O344  1  0.06127841  0.43386239  0.24285851  1
  O  O345  1  0.07629049  0.43324423  0.73969096  1
  O  O346  1  0.05850414  0.76113580  0.22190525  1
  O  O347  1  0.07014899  0.75271228  0.73185584  1
  O  O348  1  0.41127651  0.09209259  0.23278500  1
  O  O349  1  0.40099512  0.08862812  0.73864657  1
  O  O350  1  0.40337100  0.41909952  0.24174654  1
  O  O351  1  0.40482868  0.42347547  0.72340130  1
  O  O352  1  0.40761276  0.75785935  0.22746487  1
  O  O353  1  0.40497910  0.77117270  0.72790260  1
  O  O354  1  0.74607416  0.09592560  0.22978468  1
  O  O355  1  0.72606959  0.10495585  0.72583303  1
  O  O356  1  0.74090841  0.43284770  0.23271085  1
  O  O357  1  0.73104152  0.43230933  0.72104218  1
  O  O358  1  0.75353109  0.75546575  0.22392762  1
  O  O359  1  0.73186915  0.75767186  0.72389468  1
