# generated using pymatgen
data_BaLaInIrO6
_symmetry_space_group_name_H-M   'P 1'
_cell_length_a   17.51492644
_cell_length_b   17.54255560
_cell_length_c   16.49652214
_cell_angle_alpha   90.04085242
_cell_angle_beta   89.99134725
_cell_angle_gamma   89.94656820
_symmetry_Int_Tables_number   1
_chemical_formula_structural   BaLaInIrO6
_chemical_formula_sum   'Ba36 La36 In36 Ir36 O216'
_cell_volume   5068.66127293
_cell_formula_units_Z   36
loop_
 _symmetry_equiv_pos_site_id
 _symmetry_equiv_pos_as_xyz
  1  'x, y, z'
loop_
 _atom_site_type_symbol
 _atom_site_label
 _atom_site_symmetry_multiplicity
 _atom_site_fract_x
 _atom_site_fract_y
 _atom_site_fract_z
 _atom_site_occupancy
  Ba  Ba0  1  0.99834901  0.50722269  0.12485889  1
  Ba  Ba1  1  -0.00136113  0.15973933  0.87694655  1
  Ba  Ba2  1  0.83524266  0.99536965  0.87437339  1
  Ba  Ba3  1  0.16278730  0.00720429  0.62867575  1
  Ba  Ba4  1  0.83475125  0.67697193  0.63058206  1
  Ba  Ba5  1  0.33003253  0.49050266  0.37424934  1
  Ba  Ba6  1  0.16985670  0.00640890  0.12754084  1
  Ba  Ba7  1  0.00096935  0.49040763  0.37580857  1
  Ba  Ba8  1  1.00296252  0.17320838  0.12120062  1
  Ba  Ba9  1  0.32842846  0.49191871  0.86857306  1
  Ba  Ba10  1  1.00123446  0.83914101  0.62675458  1
  Ba  Ba11  1  0.16652138  0.33764648  0.12277060  1
  Ba  Ba12  1  0.66576561  0.48872698  0.87100554  1
  Ba  Ba13  1  0.49914361  0.32370378  0.37159451  1
  Ba  Ba14  1  0.83135367  0.65873706  0.87222439  1
  Ba  Ba15  1  0.49925898  0.34427329  0.12338268  1
  Ba  Ba16  1  0.17253027  0.67342924  0.62501891  1
  Ba  Ba17  1  0.67139073  0.84121602  0.12631236  1
  Ba  Ba18  1  0.16524706  0.99518624  0.87756634  1
  Ba  Ba19  1  0.17085427  0.65602790  0.37516129  1
  Ba  Ba20  1  0.66965942  0.50588657  0.12166659  1
  Ba  Ba21  1  0.83759432  0.66189088  0.37175579  1
  Ba  Ba22  1  0.50426223  0.99299838  0.38111800  1
  Ba  Ba23  1  0.33563729  0.82612979  0.37412139  1
  Ba  Ba24  1  0.66168921  0.15738529  0.37808017  1
  Ba  Ba25  1  0.33118992  0.16105619  0.37666230  1
  Ba  Ba26  1  0.49871615  0.32554451  0.87245824  1
  Ba  Ba27  1  0.99818213  0.17531346  0.63056241  1
  Ba  Ba28  1  0.66521293  0.17814655  0.62796741  1
  Ba  Ba29  1  0.66014300  0.15719567  0.87562464  1
  Ba  Ba30  1  0.33352825  0.16165564  0.87444216  1
  Ba  Ba31  1  0.16572833  0.32623836  0.37340863  1
  Ba  Ba32  1  0.50592835  0.99204925  0.87580593  1
  Ba  Ba33  1  -0.00364661  0.49101531  0.87257434  1
  Ba  Ba34  1  0.49730098  0.33996236  0.62476311  1
  Ba  Ba35  1  0.33518173  0.83044315  0.87419431  1
  La  La36  1  0.83803206  0.31947019  0.37530228  1
  La  La37  1  0.17261901  0.98899985  0.37973106  1
  La  La38  1  0.83514382  0.32069891  0.87663477  1
  La  La39  1  1.00105636  0.51624284  0.62498879  1
  La  La40  1  0.16916794  0.31529871  0.87473174  1
  La  La41  1  0.34257423  0.51553284  0.12954824  1
  La  La42  1  0.82794580  0.34673912  0.62620615  1
  La  La43  1  0.66020101  0.47833747  0.37159484  1
  La  La44  1  -0.00434852  0.81937973  0.86828515  1
  La  La45  1  0.33636325  0.18291321  0.62560609  1
  La  La46  1  0.34316638  0.84957695  0.12677085  1
  La  La47  1  0.66001152  0.82152180  0.38379019  1
  La  La48  1  1.00526236  0.83764367  0.12112371  1
  La  La49  1  -0.00075374  0.15643163  0.37283642  1
  La  La50  1  0.83401581  0.98565401  0.37710458  1
  La  La51  1  0.33626394  0.85758001  0.62225194  1
  La  La52  1  0.33018232  0.51046396  0.62684534  1
  La  La53  1  0.49931167  0.68065257  0.12279557  1
  La  La54  1  0.49527002  0.01796991  0.12888990  1
  La  La55  1  0.16176172  0.34493832  0.62666246  1
  La  La56  1  0.16846123  0.67466941  0.12211961  1
  La  La57  1  0.82931324  0.02134719  0.12648496  1
  La  La58  1  0.16639112  0.65659900  0.87498505  1
  La  La59  1  0.66574565  0.18372108  0.12820131  1
  La  La60  1  0.65876412  0.81654066  0.87366780  1
  La  La61  1  0.49608659  0.02155026  0.62855501  1
  La  La62  1  0.49197459  0.68302228  0.62307024  1
  La  La63  1  0.51017656  0.64617087  0.37151323  1
  La  La64  1  0.82537605  0.67820479  0.11881026  1
  La  La65  1  0.83225146  0.01582541  0.62635405  1
  La  La66  1  0.67412419  0.85401946  0.62808993  1
  La  La67  1  -0.00102749  0.82204377  0.38417202  1
  La  La68  1  0.66976031  0.50706723  0.62591809  1
  La  La69  1  0.50864602  0.64658131  0.87143030  1
  La  La70  1  0.82772181  0.34600067  0.12483688  1
  La  La71  1  0.33559809  0.18332053  0.12465120  1
  In  In72  1  0.83527983  0.83672546  -0.00313929  1
  In  In73  1  0.16881850  0.83304020  0.75372452  1
  In  In74  1  -0.00285634  0.33012375  0.50285972  1
  In  In75  1  0.83112615  0.16917338  0.75094850  1
  In  In76  1  0.50262060  0.83305549  0.25378634  1
  In  In77  1  0.83149349  0.50023588  0.49883626  1
  In  In78  1  0.00113787  0.00107233  0.50051943  1
  In  In79  1  0.33620210  0.67033014  -0.00490898  1
  In  In80  1  0.32962102  0.33685950  0.50089698  1
  In  In81  1  0.16837661  0.49987901  -0.00133678  1
  In  In82  1  0.66549745  -0.00215957  0.00401289  1
  In  In83  1  0.33599166  0.66960138  0.75032595  1
  In  In84  1  0.16865207  0.83166725  0.24552645  1
  In  In85  1  0.66889444  0.66532022  0.24834922  1
  In  In86  1  -0.00042415  -0.00226573  0.25141251  1
  In  In87  1  0.33904898  0.66777898  0.49576155  1
  In  In88  1  0.66740521  -0.00058475  0.25181043  1
  In  In89  1  0.16954797  0.83179899  0.50064526  1
  In  In90  1  0.50008804  0.83627576  0.74812423  1
  In  In91  1  0.83760186  0.83654855  0.25090334  1
  In  In92  1  0.16597573  0.16541527  0.25110147  1
  In  In93  1  -0.00241639  0.66554126  -0.00023419  1
  In  In94  1  0.83243140  0.50070596  0.25111233  1
  In  In95  1  0.83081730  0.83340860  0.50306385  1
  In  In96  1  0.50221269  0.49924704  0.50200790  1
  In  In97  1  0.16976114  0.49791211  0.24575492  1
  In  In98  1  0.33548241  0.00123389  -0.00074890  1
  In  In99  1  0.49961297  0.16930661  0.49896442  1
  In  In100  1  0.49921179  0.16710122  0.00091998  1
  In  In101  1  -0.00096912  0.33439975  0.00059811  1
  In  In102  1  -0.00060093  -0.00283130  0.00123348  1
  In  In103  1  0.33282549  0.33934658  -0.00206069  1
  In  In104  1  0.66554503  0.33415701  -0.00453623  1
  In  In105  1  0.66376222  0.66554668  0.74457814  1
  In  In106  1  0.66631373  0.66464007  0.50280115  1
  In  In107  1  0.00116174  0.66666129  0.24670428  1
  Ir  Ir108  1  0.49808497  0.16914437  0.74843489  1
  Ir  Ir109  1  0.16449273  0.49804208  0.50398502  1
  Ir  Ir110  1  0.83025059  0.16960265  0.25278211  1
  Ir  Ir111  1  0.33413422  0.00623470  0.74624026  1
  Ir  Ir112  1  0.16871585  0.16525266  -0.00182704  1
  Ir  Ir113  1  0.66747589  0.33088299  0.25179115  1
  Ir  Ir114  1  0.00309659  0.66441515  0.50187169  1
  Ir  Ir115  1  0.33497130  0.00148187  0.25474763  1
  Ir  Ir116  1  0.66809871  0.00138948  0.50587504  1
  Ir  Ir117  1  0.16597447  0.16668489  0.50505891  1
  Ir  Ir118  1  0.16919747  0.83171046  0.00149432  1
  Ir  Ir119  1  0.16169878  0.49758707  0.74635487  1
  Ir  Ir120  1  -0.00239393  -0.00047298  0.75091387  1
  Ir  Ir121  1  0.50172114  0.49630833  0.74814742  1
  Ir  Ir122  1  0.16748809  0.16657487  0.74788633  1
  Ir  Ir123  1  0.66279614  0.66500867  -0.00178592  1
  Ir  Ir124  1  0.83549182  0.49598353  0.74943961  1
  Ir  Ir125  1  -0.00516717  0.32895003  0.25122488  1
  Ir  Ir126  1  0.67029390  0.33310825  0.50210734  1
  Ir  Ir127  1  0.83028457  0.83871984  0.75092360  1
  Ir  Ir128  1  0.32646579  0.33388090  0.74812181  1
  Ir  Ir129  1  0.00089582  0.66481839  0.74754040  1
  Ir  Ir130  1  0.50121269  0.49924977  0.24636536  1
  Ir  Ir131  1  0.83047131  0.49779587  -0.00532530  1
  Ir  Ir132  1  0.49976261  0.50473197  0.00108457  1
  Ir  Ir133  1  0.33875068  0.66631643  0.24608280  1
  Ir  Ir134  1  0.66631532  -0.00050916  0.74882437  1
  Ir  Ir135  1  0.33331642  0.00424667  0.50123733  1
  Ir  Ir136  1  0.33507482  0.33212603  0.24828615  1
  Ir  Ir137  1  -0.00108586  0.33461332  0.74966369  1
  Ir  Ir138  1  0.50392187  0.83641991  0.50441269  1
  Ir  Ir139  1  0.66718833  0.33546788  0.74546858  1
  Ir  Ir140  1  0.83108289  0.17043523  0.00699878  1
  Ir  Ir141  1  0.49915902  0.16634834  0.24979901  1
  Ir  Ir142  1  0.50338100  0.83079207  0.00103503  1
  Ir  Ir143  1  0.82969545  0.16507448  0.49594281  1
  O  O144  1  0.31857947  0.32594027  0.12860736  1
  O  O145  1  0.29907251  0.32603879  0.62965922  1
  O  O146  1  0.30941288  0.65781717  0.12574525  1
  O  O147  1  0.32620696  0.64889826  0.62425375  1
  O  O148  1  0.32033876  0.98930979  0.13427480  1
  O  O149  1  0.31116355  0.99629802  0.62294904  1
  O  O150  1  0.65131021  0.32663891  0.13056028  1
  O  O151  1  0.64507635  0.33892697  0.62391863  1
  O  O152  1  0.63464154  0.66352292  0.11748557  1
  O  O153  1  0.62461808  0.64897710  0.62409985  1
  O  O154  1  0.63007255  0.99263729  0.12923316  1
  O  O155  1  0.63529784  0.99117334  0.62723139  1
  O  O156  1  0.96557584  0.32912344  0.13064267  1
  O  O157  1  0.96521472  0.33111559  0.63111055  1
  O  O158  1  0.95904598  0.66878379  0.12259385  1
  O  O159  1  0.97974218  0.65687494  0.62492227  1
  O  O160  1  0.96172036  0.98496463  0.12615151  1
  O  O161  1  0.96994527  0.99807501  0.62922765  1
  O  O162  1  0.19605318  0.16589133  0.11923359  1
  O  O163  1  0.19920827  0.16366981  0.62685324  1
  O  O164  1  0.20859870  0.49521301  0.12235498  1
  O  O165  1  0.19299337  0.48520024  0.62685382  1
  O  O166  1  0.20841426  0.81991176  0.11814258  1
  O  O167  1  0.20024713  0.83031248  0.62802883  1
  O  O168  1  0.52729796  0.16095033  0.13234697  1
  O  O169  1  0.51348223  0.16573176  0.62811734  1
  O  O170  1  0.52158008  0.50308794  0.12357344  1
  O  O171  1  0.53297777  0.49329238  0.62973727  1
  O  O172  1  0.52210840  0.82079274  0.12006687  1
  O  O173  1  0.53677446  0.82440226  0.62087950  1
  O  O174  1  0.85589515  0.16078083  0.13120817  1
  O  O175  1  0.84789556  0.15568831  0.61740918  1
  O  O176  1  0.84760267  0.48316606  0.11587706  1
  O  O177  1  0.86363555  0.48287869  0.63078498  1
  O  O178  1  0.86737128  0.81937341  0.12291898  1
  O  O179  1  0.85172217  0.84012371  0.63230312  1
  O  O180  1  0.13772224  0.17106001  0.38438799  1
  O  O181  1  0.14582591  0.17558519  0.87261907  1
  O  O182  1  0.15146670  0.49991605  0.38107394  1
  O  O183  1  0.14340329  0.51691825  0.86415952  1
  O  O184  1  0.13872739  0.84359124  0.37165595  1
  O  O185  1  0.13551882  0.83657133  0.88262041  1
  O  O186  1  0.48286330  0.16551134  0.37050826  1
  O  O187  1  0.48644557  0.16581487  0.86913146  1
  O  O188  1  0.48044521  0.50282410  0.36622559  1
  O  O189  1  0.47673901  0.50799591  0.87556613  1
  O  O190  1  0.48394110  0.84027827  0.38525534  1
  O  O191  1  0.48640637  0.83678676  0.88107860  1
  O  O192  1  0.80624769  0.18330454  0.37402991  1
  O  O193  1  0.81056229  0.17846059  0.88376801  1
  O  O194  1  0.79556013  0.50574297  0.37558941  1
  O  O195  1  0.81270763  0.50347628  0.87083390  1
  O  O196  1  0.79319080  0.84459334  0.37922775  1
  O  O197  1  0.79476817  0.83965025  0.86883386  1
  O  O198  1  0.03649159  0.01947732  0.37708654  1
  O  O199  1  0.01473120  0.00565917  0.86972219  1
  O  O200  1  0.01403065  0.32696049  0.37207315  1
  O  O201  1  0.03081682  0.33495284  0.86759295  1
  O  O202  1  0.02287490  0.67179196  0.38255884  1
  O  O203  1  0.02848349  0.66862444  0.86819360  1
  O  O204  1  0.35658986  0.00629402  0.37793427  1
  O  O205  1  0.35561702  0.00459338  0.86731583  1
  O  O206  1  0.34833497  0.33318410  0.36988746  1
  O  O207  1  0.34927766  0.33385641  0.86627037  1
  O  O208  1  0.37272639  0.66762686  0.36564904  1
  O  O209  1  0.37564277  0.67293176  0.87161174  1
  O  O210  1  0.69505291  0.00345036  0.38440679  1
  O  O211  1  0.68287611  0.00260666  0.87017714  1
  O  O212  1  0.69927281  0.33774118  0.37896750  1
  O  O213  1  0.69624408  0.33063600  0.86575921  1
  O  O214  1  0.68573852  0.68499424  0.37635736  1
  O  O215  1  0.67961638  0.67405064  0.87551306  1
  O  O216  1  0.08184776  0.08842728  0.01276890  1
  O  O217  1  0.07465907  0.10165940  0.52023986  1
  O  O218  1  0.07206496  0.42647655  0.01578713  1
  O  O219  1  0.06961238  0.42981147  0.52628795  1
  O  O220  1  0.08010380  0.76200314  0.02491386  1
  O  O221  1  0.07264668  0.75353157  0.51435796  1
  O  O222  1  0.40500853  0.09407760  0.03451751  1
  O  O223  1  0.40255784  0.09369782  0.52864422  1
  O  O224  1  0.40413009  0.44049549  0.02117368  1
  O  O225  1  0.39974610  0.43595469  0.52468974  1
  O  O226  1  0.40589750  0.76850159  0.02687700  1
  O  O227  1  0.41005767  0.77339603  0.52965484  1
  O  O228  1  0.73874901  0.10231357  0.03175809  1
  O  O229  1  0.73790938  0.09323551  0.52510633  1
  O  O230  1  0.74504399  0.42383458  0.01130873  1
  O  O231  1  0.73555965  0.42383872  0.52680108  1
  O  O232  1  0.73855686  0.75147328  0.01483247  1
  O  O233  1  0.73046850  0.76767305  0.52976922  1
  O  O234  1  0.09389904  0.25233977  0.00809869  1
  O  O235  1  0.09951854  0.26138069  0.52830853  1
  O  O236  1  0.09811890  0.60056363  0.02192702  1
  O  O237  1  0.09261219  0.58789666  0.52409375  1
  O  O238  1  0.09595011  0.91615976  0.02775115  1
  O  O239  1  0.09345425  0.92514392  0.51337381  1
  O  O240  1  0.41869966  0.25673459  0.01594990  1
  O  O241  1  0.41695036  0.25582449  0.51858638  1
  O  O242  1  0.43426435  0.59815583  0.02405101  1
  O  O243  1  0.44393390  0.60671559  0.51106834  1
  O  O244  1  0.43685420  0.92530268  0.02735222  1
  O  O245  1  0.43317695  0.93423491  0.53105811  1
  O  O246  1  0.76463307  0.26213454  0.02667787  1
  O  O247  1  0.76837086  0.26644603  0.52102635  1
  O  O248  1  0.76146688  0.59626027  0.01867866  1
  O  O249  1  0.75444147  0.58608305  0.53626676  1
  O  O250  1  0.76938628  0.93685484  0.02752755  1
  O  O251  1  0.76151419  0.93747418  0.52896338  1
  O  O252  1  0.23951891  0.06687915  0.27732683  1
  O  O253  1  0.24004667  0.07562085  0.76926865  1
  O  O254  1  0.24594026  0.40228771  0.26424286  1
  O  O255  1  0.22684716  0.39937433  0.76906832  1
  O  O256  1  0.24872907  0.73526594  0.26435300  1
  O  O257  1  0.23559301  0.73327399  0.77963395  1
  O  O258  1  0.56669651  0.07404138  0.26432756  1
  O  O259  1  0.56648344  0.06783410  0.75627119  1
  O  O260  1  0.57570272  0.40625980  0.27280840  1
  O  O261  1  0.57222757  0.40417929  0.76686784  1
  O  O262  1  0.56233742  0.72743519  0.26518398  1
  O  O263  1  0.56348332  0.73284232  0.76963482  1
  O  O264  1  0.89659731  0.07722438  0.28000537  1
  O  O265  1  0.90711085  0.07319382  0.75837206  1
  O  O266  1  0.89901060  0.39369355  0.26874575  1
  O  O267  1  0.90053055  0.39841936  0.77477617  1
  O  O268  1  0.92489844  0.75566981  0.28388837  1
  O  O269  1  0.90988642  0.74613956  0.77387011  1
  O  O270  1  0.26559135  0.23895056  0.25739384  1
  O  O271  1  0.25548056  0.24108571  0.77078633  1
  O  O272  1  0.27269375  0.57546907  0.26182935  1
  O  O273  1  0.25305768  0.56908822  0.75680154  1
  O  O274  1  0.26204542  0.91282225  0.26916782  1
  O  O275  1  0.26702799  0.91301172  0.76002859  1
  O  O276  1  0.59630911  0.23571281  0.26364683  1
  O  O277  1  0.59280295  0.24227068  0.76743471  1
  O  O278  1  0.59593237  0.56473756  0.27453082  1
  O  O279  1  0.58914833  0.56707999  0.76841236  1
  O  O280  1  0.60504459  0.89542128  0.27714039  1
  O  O281  1  0.60580168  0.89984147  0.76612048  1
  O  O282  1  0.92602273  0.23503472  0.27896180  1
  O  O283  1  0.92418727  0.24856568  0.77360696  1
  O  O284  1  0.92807789  0.57133837  0.26804504  1
  O  O285  1  0.92960837  0.56694675  0.75736232  1
  O  O286  1  0.92621983  0.91241293  0.29823094  1
  O  O287  1  0.92930745  0.90482296  0.77435713  1
  O  O288  1  0.25553450  0.23412073  0.49242326  1
  O  O289  1  0.25262520  0.24162310  0.98440963  1
  O  O290  1  0.26006838  0.56484600  0.49555813  1
  O  O291  1  0.25615570  0.58298168  0.97070306  1
  O  O292  1  0.26320464  0.91541333  0.48098965  1
  O  O293  1  0.26005937  0.90410478  0.98823218  1
  O  O294  1  0.59662528  0.24579697  0.48723854  1
  O  O295  1  0.59718262  0.23797163  0.99660694  1
  O  O296  1  0.59859733  0.56654193  0.46472641  1
  O  O297  1  0.59028864  0.57608221  0.97382616  1
  O  O298  1  0.60505588  0.90106521  0.48668818  1
  O  O299  1  0.60204246  0.88993855  0.97918213  1
  O  O300  1  0.92485437  0.22929599  0.47456567  1
  O  O301  1  0.91767188  0.24434775  0.98192054  1
  O  O302  1  0.93221076  0.57302478  0.49236211  1
  O  O303  1  0.91806319  0.56896918  0.98379473  1
  O  O304  1  0.92451039  0.90736888  0.47389763  1
  O  O305  1  0.93671842  0.89969078  0.96994503  1
  O  O306  1  0.23329372  0.06960654  0.47830279  1
  O  O307  1  0.24198782  0.07941967  0.98597041  1
  O  O308  1  0.22811455  0.40436393  0.49349065  1
  O  O309  1  0.23324831  0.40055832  0.96804228  1
  O  O310  1  0.24748991  0.74143539  0.48001246  1
  O  O311  1  0.23313945  0.74013608  0.97345658  1
  O  O312  1  0.57374743  0.06928119  0.49778965  1
  O  O313  1  0.56760520  0.06736049  0.99465828  1
  O  O314  1  0.58093006  0.40379152  0.47886114  1
  O  O315  1  0.57002089  0.41321374  0.98481420  1
  O  O316  1  0.56296431  0.73972525  0.47746623  1
  O  O317  1  0.56611409  0.73199779  0.97440286  1
  O  O318  1  0.89587465  0.07124804  0.47432828  1
  O  O319  1  0.90074578  0.07977553  0.99423625  1
  O  O320  1  0.89580895  0.39622716  0.48013935  1
  O  O321  1  0.89544403  0.40289194  0.97509016  1
  O  O322  1  0.91545884  0.74064389  0.48583993  1
  O  O323  1  0.91337084  0.74560412  0.96620782  1
  O  O324  1  0.08529330  0.26007308  0.23462516  1
  O  O325  1  0.09751552  0.26675691  0.72703656  1
  O  O326  1  0.10173136  0.59544214  0.22350603  1
  O  O327  1  0.08831384  0.58707593  0.71878403  1
  O  O328  1  0.08395756  0.91493579  0.21880574  1
  O  O329  1  0.08535694  0.92528797  0.73896769  1
  O  O330  1  0.42573640  0.25643686  0.22638885  1
  O  O331  1  0.41743182  0.25735295  0.72434641  1
  O  O332  1  0.43489352  0.59754501  0.22095382  1
  O  O333  1  0.43553140  0.58870199  0.72547445  1
  O  O334  1  0.42944686  0.93117919  0.22998317  1
  O  O335  1  0.42784948  0.93732642  0.72263463  1
  O  O336  1  0.76379055  0.26387800  0.22479950  1
  O  O337  1  0.76276559  0.26958746  0.72671704  1
  O  O338  1  0.76395913  0.59543594  0.21690651  1
  O  O339  1  0.75826120  0.58323543  0.72825814  1
  O  O340  1  0.77410685  0.94188358  0.23057013  1
  O  O341  1  0.76310882  0.93393744  0.72282519  1
  O  O342  1  0.07107616  0.09413464  0.23343376  1
  O  O343  1  0.07331214  0.09402054  0.73330214  1
  O  O344  1  0.06734973  0.41814246  0.23497130  1
  O  O345  1  0.06867028  0.42650631  0.71906253  1
  O  O346  1  0.08237169  0.75283213  0.20691061  1
  O  O347  1  0.07086805  0.75474662  0.73788592  1
  O  O348  1  0.40446283  0.09846104  0.22432725  1
  O  O349  1  0.40348405  0.09942493  0.72113549  1
  O  O350  1  0.40295973  0.43099626  0.22550055  1
  O  O351  1  0.39811685  0.42919633  0.72399348  1
  O  O352  1  0.40394610  0.76002642  0.22065627  1
  O  O353  1  0.40217194  0.77039671  0.71565756  1
  O  O354  1  0.73680496  0.10448798  0.22614431  1
  O  O355  1  0.73874243  0.08845888  0.73195660  1
  O  O356  1  0.73770795  0.41898071  0.23537413  1
  O  O357  1  0.73995046  0.42757883  0.72099197  1
  O  O358  1  0.75090629  0.75373168  0.22503108  1
  O  O359  1  0.73370111  0.77052250  0.73026500  1
