# generated using pymatgen
data_BaLaInIrO6
_symmetry_space_group_name_H-M   'P 1'
_cell_length_a   17.53424642
_cell_length_b   17.55211584
_cell_length_c   16.49791349
_cell_angle_alpha   89.97431190
_cell_angle_beta   90.02265946
_cell_angle_gamma   90.02336384
_symmetry_Int_Tables_number   1
_chemical_formula_structural   BaLaInIrO6
_chemical_formula_sum   'Ba36 La36 In36 Ir36 O216'
_cell_volume   5077.44807084
_cell_formula_units_Z   36
loop_
 _symmetry_equiv_pos_site_id
 _symmetry_equiv_pos_as_xyz
  1  'x, y, z'
loop_
 _atom_site_type_symbol
 _atom_site_label
 _atom_site_symmetry_multiplicity
 _atom_site_fract_x
 _atom_site_fract_y
 _atom_site_fract_z
 _atom_site_occupancy
  Ba  Ba0  1  0.33764646  0.49663636  0.87788199  1
  Ba  Ba1  1  -0.00284267  0.48937211  0.87411020  1
  Ba  Ba2  1  0.83412092  0.32796014  0.87823848  1
  Ba  Ba3  1  0.33034501  0.82699532  0.87354151  1
  Ba  Ba4  1  0.66662855  0.84044652  0.62120338  1
  Ba  Ba5  1  1.00063335  0.17527542  0.62479927  1
  Ba  Ba6  1  0.33772728  0.84260196  0.62643105  1
  Ba  Ba7  1  0.83826845  0.99116729  0.37315751  1
  Ba  Ba8  1  0.16261262  0.67330168  0.62401985  1
  Ba  Ba9  1  0.16875501  0.32760409  0.87953168  1
  Ba  Ba10  1  0.49506044  0.34049041  0.62542217  1
  Ba  Ba11  1  -0.00363165  0.81580269  0.87849358  1
  Ba  Ba12  1  0.49847475  0.00992406  0.62463683  1
  Ba  Ba13  1  0.66395026  0.15816085  0.37058072  1
  Ba  Ba14  1  0.67116031  0.82694111  0.37567002  1
  Ba  Ba15  1  0.50169980  0.00435532  0.12606822  1
  Ba  Ba16  1  0.16754057  0.34042942  0.62358619  1
  Ba  Ba17  1  1.00045354  0.84366122  0.12285184  1
  Ba  Ba18  1  0.83992703  0.64848429  0.87688695  1
  Ba  Ba19  1  0.83113928  0.34605699  0.12933270  1
  Ba  Ba20  1  0.33170708  0.16072430  0.37365709  1
  Ba  Ba21  1  0.50199571  0.67353890  0.12845475  1
  Ba  Ba22  1  0.49913017  0.67643897  0.62289196  1
  Ba  Ba23  1  0.16591702  0.65431341  0.87697151  1
  Ba  Ba24  1  0.82926670  0.01097318  0.62445863  1
  Ba  Ba25  1  0.83768850  0.65949511  0.37141416  1
  Ba  Ba26  1  0.83432977  0.32760079  0.37491083  1
  Ba  Ba27  1  0.16870984  0.99385922  0.87165959  1
  Ba  Ba28  1  0.16229714  0.34635357  0.12799969  1
  Ba  Ba29  1  -0.00546048  0.16392064  0.37228868  1
  Ba  Ba30  1  0.49542282  0.34003093  0.12757905  1
  Ba  Ba31  1  0.33076235  0.82588919  0.37169430  1
  Ba  Ba32  1  0.16676346  0.32278377  0.37205385  1
  Ba  Ba33  1  0.67275129  0.83825908  0.12552450  1
  Ba  Ba34  1  0.49926274  0.98723303  0.87766979  1
  Ba  Ba35  1  -0.00138896  0.81900658  0.37133617  1
  La  La36  1  0.16970512  0.98843504  0.37412470  1
  La  La37  1  0.50267329  0.31464476  0.37583728  1
  La  La38  1  0.84241456  0.98483839  0.87753592  1
  La  La39  1  0.66097672  0.48768105  0.87863078  1
  La  La40  1  -0.00169838  0.48678468  0.37260481  1
  La  La41  1  0.33224836  0.51257718  0.12376631  1
  La  La42  1  -0.00084059  0.15737232  0.87677787  1
  La  La43  1  0.83076741  0.68175553  0.12468212  1
  La  La44  1  0.16943984  0.65090397  0.37218887  1
  La  La45  1  1.00019245  0.18870070  0.12484770  1
  La  La46  1  0.33730280  0.84985313  0.12326075  1
  La  La47  1  1.00793198  0.84871837  0.61749631  1
  La  La48  1  0.67377107  0.51809102  0.62557973  1
  La  La49  1  0.67181771  0.18257057  0.11934160  1
  La  La50  1  1.00263387  0.51060461  0.12195928  1
  La  La51  1  0.49794191  0.66951571  0.86294865  1
  La  La52  1  0.16165432  0.01754300  0.12471065  1
  La  La53  1  0.33489024  0.51606764  0.62899014  1
  La  La54  1  0.33021470  0.15797791  0.87804981  1
  La  La55  1  0.66630488  0.81779525  0.87095495  1
  La  La56  1  0.99208529  0.50025702  0.62924875  1
  La  La57  1  0.66182487  0.14767520  0.87514804  1
  La  La58  1  0.33019409  0.48781956  0.37338428  1
  La  La59  1  0.67048312  0.18275388  0.62406845  1
  La  La60  1  0.50616587  0.98188984  0.37729838  1
  La  La61  1  0.33057601  0.17104334  0.62621775  1
  La  La62  1  0.83333276  0.33630405  0.62622825  1
  La  La63  1  0.16256236  0.01021870  0.62383141  1
  La  La64  1  0.50684765  0.65638274  0.37793424  1
  La  La65  1  0.50445710  0.31359301  0.87696473  1
  La  La66  1  0.66162377  0.48584200  0.37761704  1
  La  La67  1  0.67523313  0.51797457  0.12733133  1
  La  La68  1  0.82807384  0.01459963  0.12487363  1
  La  La69  1  0.16377636  0.67732376  0.11908588  1
  La  La70  1  0.32993239  0.18312355  0.12517613  1
  La  La71  1  0.83844753  0.68207737  0.62376080  1
  In  In72  1  0.33260323  0.00337231  0.25129662  1
  In  In73  1  0.66629505  -0.00106321  0.24756616  1
  In  In74  1  0.50246390  0.50012792  0.74926129  1
  In  In75  1  0.50144430  0.83111075  0.00210830  1
  In  In76  1  0.33411975  0.00290599  0.74979866  1
  In  In77  1  0.83795671  0.83338789  0.49841821  1
  In  In78  1  0.66614874  0.00233858  0.50146236  1
  In  In79  1  0.16546059  0.83594963  0.00088496  1
  In  In80  1  0.83084544  0.16905126  0.49964224  1
  In  In81  1  -0.00108383  -0.00000069  0.75124018  1
  In  In82  1  0.83546818  0.83219429  0.75144586  1
  In  In83  1  -0.00091295  0.66310834  0.74746344  1
  In  In84  1  0.49867332  0.49984541  0.25042720  1
  In  In85  1  0.16695792  0.16635721  0.49705129  1
  In  In86  1  0.49765685  0.16232971  0.24826180  1
  In  In87  1  0.33221883  0.66788456  0.74935868  1
  In  In88  1  0.50372143  0.83695138  0.74720128  1
  In  In89  1  0.00071227  0.00137320  0.49522774  1
  In  In90  1  0.33345035  0.33408311  0.50086353  1
  In  In91  1  0.16428129  0.83279720  0.74930314  1
  In  In92  1  0.33609596  0.33449287  0.75412920  1
  In  In93  1  0.83080149  0.16927684  0.75382245  1
  In  In94  1  0.16583180  0.83224973  0.24940662  1
  In  In95  1  0.50009132  0.16200735  0.00184212  1
  In  In96  1  0.83259863  0.16864347  0.24684137  1
  In  In97  1  0.16525367  0.49956370  0.50018919  1
  In  In98  1  0.83286485  0.16889703  -0.00261158  1
  In  In99  1  0.66429002  0.33582191  0.75171138  1
  In  In100  1  0.49858586  0.49890663  0.50181576  1
  In  In101  1  0.83135908  0.50251199  0.49690834  1
  In  In102  1  0.50348840  0.50155980  0.00407511  1
  In  In103  1  0.16715488  0.17054282  0.75419689  1
  In  In104  1  0.33194261  0.66696131  0.25118048  1
  In  In105  1  0.33306598  0.66833261  0.00428949  1
  In  In106  1  0.67076473  0.66379561  -0.00266604  1
  In  In107  1  0.66301031  0.33679410  0.24959718  1
  Ir  Ir108  1  0.49992264  0.83012127  0.25015124  1
  Ir  Ir109  1  0.49707146  0.83074222  0.49420185  1
  Ir  Ir110  1  0.84046138  0.83280722  0.24422064  1
  Ir  Ir111  1  0.67111134  0.66669513  0.25628381  1
  Ir  Ir112  1  0.16456288  0.50050316  0.24825351  1
  Ir  Ir113  1  -0.00052819  0.33964723  0.24840903  1
  Ir  Ir114  1  0.67300677  -0.00254083  -0.00242275  1
  Ir  Ir115  1  -0.00286131  0.33815844  0.50196873  1
  Ir  Ir116  1  0.49984928  0.16597426  0.50260187  1
  Ir  Ir117  1  0.83056356  0.49694357  0.74800550  1
  Ir  Ir118  1  0.66128430  0.33523342  0.50095243  1
  Ir  Ir119  1  0.16593313  0.49632796  0.75072489  1
  Ir  Ir120  1  -0.00369790  0.66036409  0.00582422  1
  Ir  Ir121  1  0.00074450  0.00253558  0.24217751  1
  Ir  Ir122  1  0.16662204  0.49678575  0.00255381  1
  Ir  Ir123  1  -0.00184722  0.33478346  0.75170125  1
  Ir  Ir124  1  0.67475742  0.66399976  0.74638516  1
  Ir  Ir125  1  0.33465059  0.66762568  0.49420015  1
  Ir  Ir126  1  -0.00230030  0.00432453  0.00440113  1
  Ir  Ir127  1  0.00350321  0.66224570  0.49417152  1
  Ir  Ir128  1  0.16927091  0.83240397  0.49731495  1
  Ir  Ir129  1  0.66493277  0.33557164  -0.00046516  1
  Ir  Ir130  1  0.00139418  0.66180086  0.24634150  1
  Ir  Ir131  1  0.83472953  0.50373728  0.24890288  1
  Ir  Ir132  1  0.00103887  0.33440389  -0.00073592  1
  Ir  Ir133  1  0.33304210  0.33409581  0.00368078  1
  Ir  Ir134  1  0.16118197  0.16688979  0.24640212  1
  Ir  Ir135  1  0.32880774  0.33595918  0.24705026  1
  Ir  Ir136  1  0.66846551  0.00190703  0.75372444  1
  Ir  Ir137  1  0.83455884  0.49748071  0.00537722  1
  Ir  Ir138  1  0.33402817  0.00006204  0.49702689  1
  Ir  Ir139  1  0.66917889  0.66638971  0.49930074  1
  Ir  Ir140  1  0.50412265  0.16574729  0.75128341  1
  Ir  Ir141  1  0.83426615  0.83554270  0.00183539  1
  Ir  Ir142  1  0.16315889  0.16829960  0.00452166  1
  Ir  Ir143  1  0.32805365  0.00543297  0.00477616  1
  O  O144  1  0.30682384  0.32001137  0.12475815  1
  O  O145  1  0.32091398  0.30722997  0.62800774  1
  O  O146  1  0.29518476  0.64989918  0.12924854  1
  O  O147  1  0.31118494  0.65754733  0.61295426  1
  O  O148  1  0.29984578  0.99145112  0.12297910  1
  O  O149  1  0.30298300  1.00646214  0.61527828  1
  O  O150  1  0.64342321  0.32639519  0.11769340  1
  O  O151  1  0.64314572  0.32645012  0.62108094  1
  O  O152  1  0.65464096  0.66051726  0.13454793  1
  O  O153  1  0.64780482  0.65520227  0.62255397  1
  O  O154  1  0.65026182  0.98962738  0.11542497  1
  O  O155  1  0.64707579  0.99503622  0.63492297  1
  O  O156  1  0.97879176  0.32862692  0.12299724  1
  O  O157  1  0.96905502  0.33775714  0.62728863  1
  O  O158  1  0.96773222  0.64991182  0.12768190  1
  O  O159  1  0.97583808  0.64276707  0.61343961  1
  O  O160  1  0.96481007  0.99968338  0.12281578  1
  O  O161  1  0.97721555  0.98687230  0.62441405  1
  O  O162  1  0.19355984  0.15990995  0.12576330  1
  O  O163  1  0.19592747  0.15707932  0.62588933  1
  O  O164  1  0.19473568  0.50044941  0.12579694  1
  O  O165  1  0.19387133  0.49910452  0.62947618  1
  O  O166  1  0.19873973  0.82239920  0.12572522  1
  O  O167  1  0.18874919  0.82696232  0.61348784  1
  O  O168  1  0.53626531  0.16546785  0.12283066  1
  O  O169  1  0.53340841  0.16683675  0.62781167  1
  O  O170  1  0.54062178  0.49417557  0.12937826  1
  O  O171  1  0.54034658  0.49688979  0.62360547  1
  O  O172  1  0.52315205  0.83327916  0.13132437  1
  O  O173  1  0.51638572  0.83252654  0.61428200  1
  O  O174  1  0.86416176  0.15794891  0.12107484  1
  O  O175  1  0.84810202  0.17922560  0.62752537  1
  O  O176  1  0.86630643  0.49894959  0.12766624  1
  O  O177  1  0.85388034  0.48410644  0.62641935  1
  O  O178  1  0.85495319  0.82115777  0.12254571  1
  O  O179  1  0.86716212  0.82232161  0.62563825  1
  O  O180  1  0.14276113  0.16541967  0.36598878  1
  O  O181  1  0.13330896  0.16998684  0.88557651  1
  O  O182  1  0.13347479  0.50651708  0.36726273  1
  O  O183  1  0.14387657  0.49318776  0.87794627  1
  O  O184  1  0.14587784  0.84725453  0.37862087  1
  O  O185  1  0.14153053  0.83946261  0.87754554  1
  O  O186  1  0.48139039  0.17364479  0.38196164  1
  O  O187  1  0.47415583  0.16800448  0.87372357  1
  O  O188  1  0.46769624  0.51573533  0.37653233  1
  O  O189  1  0.49328517  0.52931637  0.87677695  1
  O  O190  1  0.47821107  0.83587704  0.37195129  1
  O  O191  1  0.48796573  0.82603601  0.87617102  1
  O  O192  1  0.81597365  0.17103539  0.37237184  1
  O  O193  1  0.79413884  0.17506248  0.87707059  1
  O  O194  1  0.80072889  0.50349462  0.36878697  1
  O  O195  1  0.80086842  0.49786474  0.87695738  1
  O  O196  1  0.82590377  0.82999077  0.36463506  1
  O  O197  1  0.80323798  0.84242912  0.88269004  1
  O  O198  1  0.03310227  0.00574796  0.36168476  1
  O  O199  1  0.02122448  0.01561810  0.88672991  1
  O  O200  1  0.02038088  0.35032803  0.37527330  1
  O  O201  1  0.02160317  0.33504104  0.87539137  1
  O  O202  1  0.03283974  0.66703299  0.36860076  1
  O  O203  1  0.01197762  0.65928016  0.88334344  1
  O  O204  1  0.36845721  0.00350993  0.37888948  1
  O  O205  1  0.35160909  0.01901996  0.88627300  1
  O  O206  1  0.36263871  0.34735203  0.36719769  1
  O  O207  1  0.36700636  0.34018591  0.88533678  1
  O  O208  1  0.36852954  0.66955245  0.37739259  1
  O  O209  1  0.36470441  0.66533882  0.87862560  1
  O  O210  1  0.68603039  0.00144221  0.37349565  1
  O  O211  1  0.70183190  0.01181444  0.87649401  1
  O  O212  1  0.68510353  0.34284553  0.38199400  1
  O  O213  1  0.68752611  0.34962862  0.88219571  1
  O  O214  1  0.69110738  0.67238509  0.37854181  1
  O  O215  1  0.69317602  0.67331999  0.86711589  1
  O  O216  1  0.06489834  0.10090750  0.03072194  1
  O  O217  1  0.08491685  0.08369868  0.52502426  1
  O  O218  1  0.06789994  0.43084874  0.02244465  1
  O  O219  1  0.06279616  0.43275854  0.52086540  1
  O  O220  1  0.06936234  0.74717674  0.02391588  1
  O  O221  1  0.07082457  0.76417547  0.51851816  1
  O  O222  1  0.39470837  0.09903316  0.02564421  1
  O  O223  1  0.40069716  0.10032859  0.52398965  1
  O  O224  1  0.39915219  0.42604320  0.02818031  1
  O  O225  1  0.39732549  0.43556624  0.52759432  1
  O  O226  1  0.40020755  0.76827693  0.03164824  1
  O  O227  1  0.40438037  0.75905053  0.51458767  1
  O  O228  1  0.73525250  0.09292566  0.02461736  1
  O  O229  1  0.72786238  0.10479714  0.52590503  1
  O  O230  1  0.73276007  0.43327298  0.02547129  1
  O  O231  1  0.72308001  0.43425795  0.51551417  1
  O  O232  1  0.74664152  0.75963934  0.01536187  1
  O  O233  1  0.74525747  0.75063546  0.52150352  1
  O  O234  1  0.09092870  0.25876679  0.02601280  1
  O  O235  1  0.08521731  0.26411323  0.51288359  1
  O  O236  1  0.09272678  0.58931499  0.03014796  1
  O  O237  1  0.09910704  0.60099144  0.50127648  1
  O  O238  1  0.09199622  0.93896626  0.02817837  1
  O  O239  1  0.10498727  0.92570532  0.52078026  1
  O  O240  1  0.42019788  0.26009277  0.01736309  1
  O  O241  1  0.43587257  0.26006424  0.50702998  1
  O  O242  1  0.41935623  0.58475337  0.03227389  1
  O  O243  1  0.42190129  0.59726283  0.51813064  1
  O  O244  1  0.41672999  0.93170477  0.02021999  1
  O  O245  1  0.42789181  0.92711729  0.51276092  1
  O  O246  1  0.75305268  0.26216526  0.02370925  1
  O  O247  1  0.75627569  0.27252546  0.52382979  1
  O  O248  1  0.77050926  0.59100950  0.02956021  1
  O  O249  1  0.76155023  0.59778289  0.52736421  1
  O  O250  1  0.77446126  0.93667809  0.01730155  1
  O  O251  1  0.75781387  0.92271723  0.51363776  1
  O  O252  1  0.22446827  0.07164937  0.26447058  1
  O  O253  1  0.25181347  0.08589394  0.77562796  1
  O  O254  1  0.23967835  0.41203830  0.27251441  1
  O  O255  1  0.23529634  0.40904365  0.76336251  1
  O  O256  1  0.23112703  0.73107721  0.27514514  1
  O  O257  1  0.23809094  0.73848721  0.76421270  1
  O  O258  1  0.56306116  0.06300630  0.27302028  1
  O  O259  1  0.57337714  0.07162555  0.77347472  1
  O  O260  1  0.57110741  0.40951314  0.28731287  1
  O  O261  1  0.56629221  0.40016413  0.78345131  1
  O  O262  1  0.57039037  0.73324656  0.27638101  1
  O  O263  1  0.58327749  0.73375300  0.76872739  1
  O  O264  1  0.91088683  0.06987462  0.25950625  1
  O  O265  1  0.90496113  0.07700166  0.78330027  1
  O  O266  1  0.91042963  0.41521574  0.27479057  1
  O  O267  1  0.89722432  0.39950647  0.76001384  1
  O  O268  1  0.90775144  0.73137234  0.25617007  1
  O  O269  1  0.89768496  0.72708639  0.75725211  1
  O  O270  1  0.25617549  0.23732540  0.26219957  1
  O  O271  1  0.26615189  0.23948010  0.78134546  1
  O  O272  1  0.25573783  0.56587205  0.28046789  1
  O  O273  1  0.25563300  0.56616872  0.76336822  1
  O  O274  1  0.25414086  0.91433667  0.26919436  1
  O  O275  1  0.25704547  0.91208573  0.76092325  1
  O  O276  1  0.57939796  0.24926970  0.27074302  1
  O  O277  1  0.59792983  0.23090265  0.77807921  1
  O  O278  1  0.60089187  0.57669564  0.28080409  1
  O  O279  1  0.61358845  0.56858767  0.76523879  1
  O  O280  1  0.58785934  0.90148999  0.26831536  1
  O  O281  1  0.60843950  0.90320533  0.77525760  1
  O  O282  1  0.92786355  0.25016376  0.25679996  1
  O  O283  1  0.93513413  0.24029744  0.77633033  1
  O  O284  1  0.93464166  0.56668701  0.27051797  1
  O  O285  1  0.92602189  0.55992012  0.75316409  1
  O  O286  1  0.93355029  0.90727163  0.26407757  1
  O  O287  1  0.92201304  0.91042784  0.78265720  1
  O  O288  1  0.26036349  0.23920537  0.48508846  1
  O  O289  1  0.26419367  0.23225671  0.98254281  1
  O  O290  1  0.26561784  0.57679382  0.46871443  1
  O  O291  1  0.25462902  0.56559182  0.98851259  1
  O  O292  1  0.26064567  0.90908217  0.47337067  1
  O  O293  1  0.26302293  0.91393544  0.98680720  1
  O  O294  1  0.59637596  0.23488939  0.48540154  1
  O  O295  1  0.59875113  0.24106132  0.97199238  1
  O  O296  1  0.59923560  0.57435275  0.47313752  1
  O  O297  1  0.61484988  0.55816324  0.99208904  1
  O  O298  1  0.58282205  0.90628554  0.47768384  1
  O  O299  1  0.61019688  0.90158733  0.97434296  1
  O  O300  1  0.92549459  0.25233365  0.48776563  1
  O  O301  1  0.93801244  0.23612701  0.98083161  1
  O  O302  1  0.93853465  0.56716073  0.47403660  1
  O  O303  1  0.93023361  0.56314711  0.99138793  1
  O  O304  1  0.93759843  0.89959413  0.48537723  1
  O  O305  1  0.92722863  0.91142825  0.97816718  1
  O  O306  1  0.24160194  0.06311475  0.47167788  1
  O  O307  1  0.23314367  0.07622299  0.98703426  1
  O  O308  1  0.24283647  0.41354200  0.47390660  1
  O  O309  1  0.24069444  0.40509728  0.98730906  1
  O  O310  1  0.23560445  0.73395888  0.46971818  1
  O  O311  1  0.23320042  0.73474701  0.99014164  1
  O  O312  1  0.55996495  0.06971884  0.48103944  1
  O  O313  1  0.58341484  0.06972258  0.97835042  1
  O  O314  1  0.56681592  0.39830210  0.47107568  1
  O  O315  1  0.56916116  0.39866308  0.97354013  1
  O  O316  1  0.56865997  0.73491440  0.47521692  1
  O  O317  1  0.57141699  0.72938715  0.97554638  1
  O  O318  1  0.90936536  0.07851412  0.48446017  1
  O  O319  1  0.90408662  0.06879983  0.97767677  1
  O  O320  1  0.90694819  0.40873496  0.48685351  1
  O  O321  1  0.90674567  0.40429989  0.98603211  1
  O  O322  1  0.91075812  0.72701317  0.49131367  1
  O  O323  1  0.90135856  0.73233936  0.99164920  1
  O  O324  1  0.08580411  0.25807295  0.22594536  1
  O  O325  1  0.08940780  0.26778345  0.73542473  1
  O  O326  1  0.09634522  0.59439070  0.22131214  1
  O  O327  1  0.09138346  0.58164652  0.73381142  1
  O  O328  1  0.09425915  0.93673817  0.22247886  1
  O  O329  1  0.09315419  0.92661989  0.71530264  1
  O  O330  1  0.41370098  0.26001256  0.23356277  1
  O  O331  1  0.44138185  0.26028746  0.74749301  1
  O  O332  1  0.41912542  0.58695735  0.22566888  1
  O  O333  1  0.42250507  0.58905777  0.72523708  1
  O  O334  1  0.42629134  0.91913073  0.23265859  1
  O  O335  1  0.42903478  0.93122760  0.73975478  1
  O  O336  1  0.74764942  0.25489866  0.22619692  1
  O  O337  1  0.76122754  0.26993307  0.72691615  1
  O  O338  1  0.76588240  0.59664780  0.22386294  1
  O  O339  1  0.77007671  0.59646368  0.71903169  1
  O  O340  1  0.77301707  0.92599262  0.22531582  1
  O  O341  1  0.76135977  0.93616053  0.74296536  1
  O  O342  1  0.06814100  0.09723299  0.21400169  1
  O  O343  1  0.07773999  0.09129714  0.73641227  1
  O  O344  1  0.06637787  0.43596732  0.22748435  1
  O  O345  1  0.06576352  0.42945728  0.72580409  1
  O  O346  1  0.07223379  0.75019671  0.22388314  1
  O  O347  1  0.06245815  0.76289970  0.72205244  1
  O  O348  1  0.39622731  0.10038002  0.22005532  1
  O  O349  1  0.40815674  0.10610135  0.72762777  1
  O  O350  1  0.39368112  0.42835626  0.22624683  1
  O  O351  1  0.40039707  0.43288093  0.72528528  1
  O  O352  1  0.40495732  0.76601954  0.22485610  1
  O  O353  1  0.41693077  0.75437768  0.73895404  1
  O  O354  1  0.73816085  0.09307478  0.21319985  1
  O  O355  1  0.72495779  0.10145122  0.73298454  1
  O  O356  1  0.73681646  0.43936162  0.23131769  1
  O  O357  1  0.73222853  0.43882353  0.73095013  1
  O  O358  1  0.75067954  0.75564298  0.22728614  1
  O  O359  1  0.73736877  0.75863877  0.73162776  1
