# generated using pymatgen
data_BaLaInIrO6
_symmetry_space_group_name_H-M   'P 1'
_cell_length_a   17.51877424
_cell_length_b   17.56150777
_cell_length_c   16.48460964
_cell_angle_alpha   89.99289314
_cell_angle_beta   90.00048069
_cell_angle_gamma   90.09510260
_symmetry_Int_Tables_number   1
_chemical_formula_structural   BaLaInIrO6
_chemical_formula_sum   'Ba36 La36 In36 Ir36 O216'
_cell_volume   5071.58351974
_cell_formula_units_Z   36
loop_
 _symmetry_equiv_pos_site_id
 _symmetry_equiv_pos_as_xyz
  1  'x, y, z'
loop_
 _atom_site_type_symbol
 _atom_site_label
 _atom_site_symmetry_multiplicity
 _atom_site_fract_x
 _atom_site_fract_y
 _atom_site_fract_z
 _atom_site_occupancy
  Ba  Ba0  1  0.33197468  0.50932345  0.12447744  1
  Ba  Ba1  1  0.50725621  0.66470755  0.12460874  1
  Ba  Ba2  1  0.16558524  0.00906981  0.62345811  1
  Ba  Ba3  1  0.99740763  0.84969298  0.12387660  1
  Ba  Ba4  1  0.50385661  0.67214468  0.62355774  1
  Ba  Ba5  1  0.33660227  0.15818790  0.87812715  1
  Ba  Ba6  1  0.66746449  0.49485056  0.87244799  1
  Ba  Ba7  1  0.83159042  0.00895402  0.12486497  1
  Ba  Ba8  1  0.17070871  0.99246293  0.87682462  1
  Ba  Ba9  1  0.16268134  0.33816857  0.62734469  1
  Ba  Ba10  1  0.66474197  0.49100250  0.37440749  1
  Ba  Ba11  1  0.83069773  0.99300619  0.87668035  1
  Ba  Ba12  1  0.50153429  0.65251688  0.37657876  1
  Ba  Ba13  1  0.50324149  0.32788178  0.87562050  1
  Ba  Ba14  1  0.66853539  0.17439749  0.62360521  1
  Ba  Ba15  1  0.83259460  0.32226621  0.87848217  1
  Ba  Ba16  1  0.33122768  0.17663153  0.63192716  1
  Ba  Ba17  1  0.67003365  0.50681264  0.12647859  1
  Ba  Ba18  1  0.83174993  0.98799661  0.37462029  1
  Ba  Ba19  1  1.00407500  0.84274992  0.62377461  1
  Ba  Ba20  1  0.33503990  0.84091680  0.62045526  1
  Ba  Ba21  1  1.00368106  0.17936153  0.12657748  1
  Ba  Ba22  1  0.16741860  0.65704949  0.38053103  1
  Ba  Ba23  1  0.83295082  0.00547534  0.62493926  1
  Ba  Ba24  1  1.00328939  0.51253308  0.12572762  1
  Ba  Ba25  1  0.82850511  0.67514295  0.62335985  1
  Ba  Ba26  1  0.49596565  0.01293379  0.62288997  1
  Ba  Ba27  1  0.33434212  0.49521197  0.37212940  1
  Ba  Ba28  1  0.50145298  0.34675985  0.12487019  1
  Ba  Ba29  1  0.50209047  0.99319121  0.87001285  1
  Ba  Ba30  1  0.50254207  0.65351136  0.87665068  1
  Ba  Ba31  1  0.66439455  0.83713743  0.12527974  1
  Ba  Ba32  1  0.50093230  0.33202732  0.37091945  1
  Ba  Ba33  1  0.83307574  0.34075020  0.62293947  1
  Ba  Ba34  1  0.66742619  0.16015944  0.37519598  1
  Ba  Ba35  1  0.83586167  0.65740828  0.88010818  1
  La  La36  1  0.33105017  0.81664075  0.37495518  1
  La  La37  1  0.16969393  0.31525040  0.87973652  1
  La  La38  1  0.16131738  0.68856520  0.13078238  1
  La  La39  1  0.16780186  0.98499758  0.36911936  1
  La  La40  1  0.82579680  0.68362279  0.12683676  1
  La  La41  1  0.67389819  0.84540159  0.62549202  1
  La  La42  1  -0.00878226  0.14904133  0.37330850  1
  La  La43  1  0.15974112  0.01694324  0.12311116  1
  La  La44  1  -0.00368489  0.15174431  0.87978954  1
  La  La45  1  0.83779714  0.65055452  0.37174337  1
  La  La46  1  -0.00676492  0.82415156  0.87707508  1
  La  La47  1  0.33242513  0.48318982  0.87900207  1
  La  La48  1  0.33378253  0.82094939  0.87111403  1
  La  La49  1  0.33523169  0.50895470  0.62496845  1
  La  La50  1  0.66414325  0.16421475  0.86630593  1
  La  La51  1  0.16269910  0.68291427  0.62546916  1
  La  La52  1  0.16970887  0.32233289  0.37303640  1
  La  La53  1  1.00750973  0.17077711  0.62702503  1
  La  La54  1  0.16936675  0.65622145  0.87304217  1
  La  La55  1  0.16349349  0.34712265  0.12258621  1
  La  La56  1  0.50826534  0.98360086  0.37682965  1
  La  La57  1  0.66891326  0.51018085  0.61907921  1
  La  La58  1  0.49864273  0.01838842  0.12553336  1
  La  La59  1  0.67096370  0.17993118  0.12086090  1
  La  La60  1  0.33625051  0.18722099  0.12266547  1
  La  La61  1  0.34220465  0.84519610  0.12361957  1
  La  La62  1  0.66121666  0.81380177  0.87551889  1
  La  La63  1  0.83565629  0.31413450  0.37092740  1
  La  La64  1  -0.00691555  0.48188369  0.37210123  1
  La  La65  1  1.00585726  0.51446037  0.62967530  1
  La  La66  1  -0.00717523  0.81959109  0.37266986  1
  La  La67  1  0.33388018  0.15603849  0.37537574  1
  La  La68  1  -0.01106285  0.48078711  0.87807883  1
  La  La69  1  0.49663265  0.34563983  0.62472066  1
  La  La70  1  0.82964918  0.34749844  0.12572086  1
  La  La71  1  0.66349871  0.81761366  0.37595640  1
  In  In72  1  0.49869757  0.16813990  0.25260979  1
  In  In73  1  0.00115718  0.00001652  0.75176755  1
  In  In74  1  0.33403561  0.66300225  0.50323982  1
  In  In75  1  0.16693952  0.83465653  0.75284444  1
  In  In76  1  0.16295725  0.50089478  0.25333821  1
  In  In77  1  0.66580590  0.66467217  0.74780972  1
  In  In78  1  0.66471830  0.00152514  0.50005610  1
  In  In79  1  0.16458537  0.16522625  0.49381023  1
  In  In80  1  0.49935826  0.83123109  0.24966247  1
  In  In81  1  0.83319163  0.83226970  0.75173728  1
  In  In82  1  -0.00123688  0.33040023  0.75220322  1
  In  In83  1  0.33140451  0.33471004  0.49973093  1
  In  In84  1  0.50118321  0.16696734  0.00030685  1
  In  In85  1  0.16335763  0.50322178  -0.00149176  1
  In  In86  1  0.16631039  0.49841239  0.75176694  1
  In  In87  1  0.66947307  0.33334459  0.25225464  1
  In  In88  1  0.33478819  -0.00146848  0.74997525  1
  In  In89  1  0.32922595  0.66738795  -0.00155330  1
  In  In90  1  0.00301523  0.66859936  0.00453295  1
  In  In91  1  0.16539763  0.16933987  0.25046527  1
  In  In92  1  0.00014585  0.33189795  0.49944294  1
  In  In93  1  0.66317227  -0.00182205  -0.00072549  1
  In  In94  1  0.33263313  0.00169144  0.24840770  1
  In  In95  1  0.16561086  0.83453096  0.49506585  1
  In  In96  1  0.33536509  0.00058579  0.49443928  1
  In  In97  1  0.66497954  -0.00164158  0.25007279  1
  In  In98  1  0.49982599  0.83375510  -0.00068646  1
  In  In99  1  0.00252176  0.66549126  0.75255316  1
  In  In100  1  0.32986582  0.66728571  0.24792885  1
  In  In101  1  0.33163317  0.00038932  0.00436974  1
  In  In102  1  -0.00223472  0.66254341  0.49824264  1
  In  In103  1  0.66881812  0.33385246  -0.00208523  1
  In  In104  1  0.83569830  0.49879602  0.74672561  1
  In  In105  1  0.66611608  -0.00014479  0.75079419  1
  In  In106  1  0.66661463  0.33619518  0.74487609  1
  In  In107  1  0.83545214  0.16633044  0.50398508  1
  Ir  Ir108  1  0.33135081  0.33465500  0.24978273  1
  Ir  Ir109  1  0.83638904  0.16729730  0.00265331  1
  Ir  Ir110  1  0.66990241  0.66494307  0.49603170  1
  Ir  Ir111  1  0.83735704  0.16602889  0.75535210  1
  Ir  Ir112  1  0.33164380  0.33440300  0.75380877  1
  Ir  Ir113  1  0.67334887  0.66443385  0.25183678  1
  Ir  Ir114  1  0.33434920  0.66211448  0.75202395  1
  Ir  Ir115  1  0.00145289  -0.00071994  0.24904746  1
  Ir  Ir116  1  0.66562335  0.33549188  0.50005615  1
  Ir  Ir117  1  0.00287489  0.00209252  0.00420008  1
  Ir  Ir118  1  0.50335331  0.49792710  0.50343844  1
  Ir  Ir119  1  0.83295817  0.49690015  0.49257313  1
  Ir  Ir120  1  -0.00053821  -0.00031722  0.49519091  1
  Ir  Ir121  1  0.83858507  0.16782032  0.24419645  1
  Ir  Ir122  1  0.16364581  0.83595028  0.24812852  1
  Ir  Ir123  1  0.50011916  0.17226584  0.74621704  1
  Ir  Ir124  1  0.50348998  0.83027175  0.50024249  1
  Ir  Ir125  1  0.83169036  0.83012619  0.49493095  1
  Ir  Ir126  1  0.83265805  0.83348119  0.00172202  1
  Ir  Ir127  1  0.83361793  0.83055568  0.25237236  1
  Ir  Ir128  1  0.00050983  0.33181030  0.00424832  1
  Ir  Ir129  1  0.32958090  0.33464214  -0.00149787  1
  Ir  Ir130  1  0.49678277  0.17477742  0.50070377  1
  Ir  Ir131  1  0.49449454  0.49882030  0.74777758  1
  Ir  Ir132  1  0.49733596  0.50027450  -0.00111843  1
  Ir  Ir133  1  0.16604251  0.16894957  0.00229197  1
  Ir  Ir134  1  0.16585496  0.83427142  0.00184651  1
  Ir  Ir135  1  0.83930444  0.49884346  0.00505969  1
  Ir  Ir136  1  0.16395269  0.49753317  0.50379883  1
  Ir  Ir137  1  0.16595202  0.17035109  0.75501535  1
  Ir  Ir138  1  -0.00048875  0.33523398  0.24935695  1
  Ir  Ir139  1  0.67196606  0.66265044  0.00337114  1
  Ir  Ir140  1  0.50044735  0.50058449  0.24887770  1
  Ir  Ir141  1  0.50035372  0.82819763  0.74750540  1
  Ir  Ir142  1  -0.00248970  0.66988705  0.24934066  1
  Ir  Ir143  1  0.83869293  0.50040068  0.25109257  1
  O  O144  1  0.29964795  0.32799297  0.12314461  1
  O  O145  1  0.31279168  0.33602091  0.63272791  1
  O  O146  1  0.29736332  0.66717763  0.12255682  1
  O  O147  1  0.30192310  0.65129025  0.63240621  1
  O  O148  1  0.29098559  0.97966383  0.12664359  1
  O  O149  1  0.31821001  1.00002165  0.62171027  1
  O  O150  1  0.65774804  0.32072232  0.12449261  1
  O  O151  1  0.63520937  0.33333777  0.61836711  1
  O  O152  1  0.65738418  0.66271010  0.12809573  1
  O  O153  1  0.65337813  0.65260006  0.61633240  1
  O  O154  1  0.63561200  0.99250068  0.12646908  1
  O  O155  1  0.64525038  0.98372707  0.62445448  1
  O  O156  1  0.96681950  0.33193924  0.12763101  1
  O  O157  1  0.98180442  0.30712674  0.62592137  1
  O  O158  1  0.96426565  0.66715445  0.13168833  1
  O  O159  1  0.97580287  0.64985191  0.62288535  1
  O  O160  1  0.98022324  1.00140955  0.12661214  1
  O  O161  1  0.98378449  1.00433492  0.61692662  1
  O  O162  1  0.19572739  0.16379481  0.12370947  1
  O  O163  1  0.17664449  0.16855966  0.63222311  1
  O  O164  1  0.18166944  0.48177657  0.12534329  1
  O  O165  1  0.19911716  0.48945392  0.62216226  1
  O  O166  1  0.20100117  0.82655129  0.12491611  1
  O  O167  1  0.18439351  0.82652304  0.62255794  1
  O  O168  1  0.53352870  0.16262735  0.12682413  1
  O  O169  1  0.51970965  0.17763215  0.62279334  1
  O  O170  1  0.52091556  0.50222307  0.12353662  1
  O  O171  1  0.52961378  0.49142659  0.62555670  1
  O  O172  1  0.51464751  0.81687956  0.12482076  1
  O  O173  1  0.53686916  0.82687791  0.62337590  1
  O  O174  1  0.85958874  0.16579711  0.12320865  1
  O  O175  1  0.86988666  0.16683781  0.63458074  1
  O  O176  1  0.85914016  0.48553066  0.12983543  1
  O  O177  1  0.86750127  0.49499190  0.61082843  1
  O  O178  1  0.85431355  0.82084595  0.12860975  1
  O  O179  1  0.85326907  0.82988437  0.61434298  1
  O  O180  1  0.12493088  0.18613608  0.36900405  1
  O  O181  1  0.13559471  0.17498906  0.88031268  1
  O  O182  1  0.13004146  0.50188583  0.38382933  1
  O  O183  1  0.12310941  0.51703520  0.87567921  1
  O  O184  1  0.12743763  0.84420551  0.36487449  1
  O  O185  1  0.12969007  0.83742712  0.88519667  1
  O  O186  1  0.46795447  0.17868164  0.38169535  1
  O  O187  1  0.48854536  0.16929346  0.86742537  1
  O  O188  1  0.48229035  0.49657680  0.37599120  1
  O  O189  1  0.46703526  0.49946696  0.87145428  1
  O  O190  1  0.46922207  0.83697406  0.38088161  1
  O  O191  1  0.46972299  0.83039934  0.86709043  1
  O  O192  1  0.82053161  0.17228239  0.36383958  1
  O  O193  1  0.80412355  0.16637629  0.87955333  1
  O  O194  1  0.81204446  0.51260014  0.37070119  1
  O  O195  1  0.82066461  0.50015660  0.88566913  1
  O  O196  1  0.80202044  0.83174412  0.37331149  1
  O  O197  1  0.80000227  0.83166361  0.88428877  1
  O  O198  1  0.02921100  0.00703705  0.37122761  1
  O  O199  1  0.02128353  0.01156269  0.88510616  1
  O  O200  1  0.03093705  0.34389322  0.36890601  1
  O  O201  1  0.03033041  0.34129221  0.88452103  1
  O  O202  1  0.01857561  0.67727318  0.36810083  1
  O  O203  1  0.03401961  0.68425528  0.88005033  1
  O  O204  1  0.37434445  0.01707729  0.37235202  1
  O  O205  1  0.35040784  0.00174257  0.87746258  1
  O  O206  1  0.35212898  0.34017900  0.36880448  1
  O  O207  1  0.35631131  0.34120458  0.87590100  1
  O  O208  1  0.34980019  0.67572008  0.37611226  1
  O  O209  1  0.35522166  0.67995673  0.86913053  1
  O  O210  1  0.68191282  0.00498564  0.37518359  1
  O  O211  1  0.67864028  0.02777683  0.87486246  1
  O  O212  1  0.69844616  0.33682303  0.37980889  1
  O  O213  1  0.68090268  0.33438419  0.87181642  1
  O  O214  1  0.70106271  0.67378327  0.37359091  1
  O  O215  1  0.68534261  0.66934836  0.88153022  1
  O  O216  1  0.07592542  0.09405978  0.02627151  1
  O  O217  1  0.06079874  0.09686727  0.51250872  1
  O  O218  1  0.07102071  0.41968617  0.02157983  1
  O  O219  1  0.06462154  0.43781781  0.52287209  1
  O  O220  1  0.07836065  0.76716550  0.02896468  1
  O  O221  1  0.07503250  0.75401816  0.51105822  1
  O  O222  1  0.39935034  0.10064613  0.03342209  1
  O  O223  1  0.40300599  0.11078793  0.51211625  1
  O  O224  1  0.39800314  0.43258987  0.01011253  1
  O  O225  1  0.40946515  0.42983256  0.52903933  1
  O  O226  1  0.39195241  0.77138047  0.00903735  1
  O  O227  1  0.41747074  0.75733677  0.51683702  1
  O  O228  1  0.74056313  0.10332570  0.02257151  1
  O  O229  1  0.74501715  0.09133378  0.51661520  1
  O  O230  1  0.75257633  0.42405970  0.02161913  1
  O  O231  1  0.73507497  0.43075361  0.52266076  1
  O  O232  1  0.74722654  0.75409957  0.02561309  1
  O  O233  1  0.73371874  0.76449564  0.51687000  1
  O  O234  1  0.09985331  0.26726250  0.02180728  1
  O  O235  1  0.09326292  0.25878994  0.51449907  1
  O  O236  1  0.10420446  0.60606608  0.03051656  1
  O  O237  1  0.10034071  0.59020393  0.53078498  1
  O  O238  1  0.10120438  0.93381469  0.02745781  1
  O  O239  1  0.09151308  0.93447161  0.50556671  1
  O  O240  1  0.41860484  0.26192199  0.01876453  1
  O  O241  1  0.43456628  0.26997839  0.52168577  1
  O  O242  1  0.42625538  0.58952798  0.01171452  1
  O  O243  1  0.42640855  0.58217068  0.52231061  1
  O  O244  1  0.42906264  0.93129817  0.03454994  1
  O  O245  1  0.43464465  0.92092027  0.51319539  1
  O  O246  1  0.77165028  0.25888612  0.02710003  1
  O  O247  1  0.75775969  0.26597760  0.51004160  1
  O  O248  1  0.77203140  0.59355109  0.02785021  1
  O  O249  1  0.76108541  0.58867087  0.51599976  1
  O  O250  1  0.76197609  0.92132538  0.01754892  1
  O  O251  1  0.75821936  0.91491372  0.51608657  1
  O  O252  1  0.23483974  0.07174859  0.27869829  1
  O  O253  1  0.23686078  0.08226603  0.76327269  1
  O  O254  1  0.23316205  0.39582061  0.26835372  1
  O  O255  1  0.23986308  0.40243998  0.78500395  1
  O  O256  1  0.22822138  0.74640483  0.26969357  1
  O  O257  1  0.24217433  0.73004209  0.77374586  1
  O  O258  1  0.55672007  0.06101672  0.26964117  1
  O  O259  1  0.57548993  0.08624343  0.75746378  1
  O  O260  1  0.57648781  0.41486973  0.25755477  1
  O  O261  1  0.56287079  0.40938169  0.75844543  1
  O  O262  1  0.58482436  0.73630394  0.27304426  1
  O  O263  1  0.57127710  0.74153769  0.76883269  1
  O  O264  1  0.91026471  0.07282379  0.27087077  1
  O  O265  1  0.90945229  0.07902174  0.77440150  1
  O  O266  1  0.90287330  0.40086615  0.27759252  1
  O  O267  1  0.90640520  0.40447581  0.77108132  1
  O  O268  1  0.90174318  0.73637076  0.27734684  1
  O  O269  1  0.91178988  0.74393305  0.77497111  1
  O  O270  1  0.26536697  0.24162151  0.27502042  1
  O  O271  1  0.25874904  0.24356261  0.77895730  1
  O  O272  1  0.25350537  0.57534789  0.26717736  1
  O  O273  1  0.26869209  0.56955087  0.77872101  1
  O  O274  1  0.25611488  0.90059389  0.28042856  1
  O  O275  1  0.26736202  0.89815341  0.77370968  1
  O  O276  1  0.59589470  0.23989803  0.26479138  1
  O  O277  1  0.59218217  0.23955912  0.76440824  1
  O  O278  1  0.59737481  0.57432990  0.26625040  1
  O  O279  1  0.58536459  0.56936701  0.75960539  1
  O  O280  1  0.59439755  0.89918826  0.28387890  1
  O  O281  1  0.59379122  0.89381683  0.77197283  1
  O  O282  1  0.93522280  0.23776936  0.27339041  1
  O  O283  1  0.93076858  0.23024014  0.78196910  1
  O  O284  1  0.93242354  0.57331959  0.27844653  1
  O  O285  1  0.94009917  0.56187934  0.77101454  1
  O  O286  1  0.93047078  0.89908657  0.27399550  1
  O  O287  1  0.93016373  0.90436280  0.77557008  1
  O  O288  1  0.26240633  0.23815252  0.46931782  1
  O  O289  1  0.25563384  0.24322470  0.97708412  1
  O  O290  1  0.25694586  0.56274810  0.48960485  1
  O  O291  1  0.26065614  0.57115537  0.96360233  1
  O  O292  1  0.25980960  0.90770844  0.46053940  1
  O  O293  1  0.26088827  0.89305999  0.97728823  1
  O  O294  1  0.59430964  0.24271040  0.48143915  1
  O  O295  1  0.60737728  0.22748707  0.98236220  1
  O  O296  1  0.59948154  0.56833783  0.48676873  1
  O  O297  1  0.59707787  0.57101109  0.98541751  1
  O  O298  1  0.59178315  0.89941037  0.47466108  1
  O  O299  1  0.60009439  0.89559514  0.96668246  1
  O  O300  1  0.92492639  0.23969278  0.46539761  1
  O  O301  1  0.93397317  0.23508687  0.97913194  1
  O  O302  1  0.92568698  0.56542825  0.46661623  1
  O  O303  1  0.93251970  0.56690755  0.98057596  1
  O  O304  1  0.93162712  0.89792011  0.47319443  1
  O  O305  1  0.92928181  0.90583456  0.97653152  1
  O  O306  1  0.23575803  0.07198556  0.46382398  1
  O  O307  1  0.23212069  0.07676057  0.99180047  1
  O  O308  1  0.22687235  0.40271348  0.47660269  1
  O  O309  1  0.23694087  0.40303195  0.97408497  1
  O  O310  1  0.24780321  0.74513566  0.48359817  1
  O  O311  1  0.22490401  0.73883991  0.97352142  1
  O  O312  1  0.55991608  0.07682543  0.47929351  1
  O  O313  1  0.55858524  0.06069213  0.99645258  1
  O  O314  1  0.57204051  0.40522852  0.48722020  1
  O  O315  1  0.57186502  0.41331105  0.98799777  1
  O  O316  1  0.58170212  0.74125721  0.47260289  1
  O  O317  1  0.58462954  0.73614226  0.98285393  1
  O  O318  1  0.91238085  0.07090408  0.47798771  1
  O  O319  1  0.91085457  0.07703334  0.97835348  1
  O  O320  1  0.89959960  0.40450740  0.46549146  1
  O  O321  1  0.90969197  0.40446978  0.98286947  1
  O  O322  1  0.89987784  0.73892461  0.46965312  1
  O  O323  1  0.91012941  0.74999302  0.98323861  1
  O  O324  1  0.09727825  0.27521401  0.22414713  1
  O  O325  1  0.10057449  0.26198200  0.74963876  1
  O  O326  1  0.09093931  0.60567220  0.22730376  1
  O  O327  1  0.10564227  0.59887082  0.72021034  1
  O  O328  1  0.10131732  0.93484280  0.22742522  1
  O  O329  1  0.09606044  0.93134483  0.73719344  1
  O  O330  1  0.41815426  0.26461189  0.22688119  1
  O  O331  1  0.42975888  0.26915984  0.72780691  1
  O  O332  1  0.42773465  0.58883508  0.23786660  1
  O  O333  1  0.42060218  0.58636046  0.72373285  1
  O  O334  1  0.43012566  0.93302012  0.22230618  1
  O  O335  1  0.43269681  0.91655276  0.72969261  1
  O  O336  1  0.77673784  0.26475092  0.23126300  1
  O  O337  1  0.76394016  0.25326280  0.73694494  1
  O  O338  1  0.77644152  0.60028166  0.23320957  1
  O  O339  1  0.75865599  0.58945651  0.73598949  1
  O  O340  1  0.76449183  0.92003033  0.23408181  1
  O  O341  1  0.75650819  0.92253440  0.73240366  1
  O  O342  1  0.07247971  0.08801522  0.23214750  1
  O  O343  1  0.06902160  0.10705768  0.73913287  1
  O  O344  1  0.06238398  0.42976523  0.23845003  1
  O  O345  1  0.06629914  0.43165581  0.72684583  1
  O  O346  1  0.06882521  0.76321441  0.22490461  1
  O  O347  1  0.08138639  0.75400043  0.72580054  1
  O  O348  1  0.39444795  0.10623399  0.22011576  1
  O  O349  1  0.41357982  0.09773449  0.73638518  1
  O  O350  1  0.40526424  0.42780009  0.22926974  1
  O  O351  1  0.39877869  0.42991934  0.72744037  1
  O  O352  1  0.39071152  0.77275728  0.23915251  1
  O  O353  1  0.40438024  0.75667124  0.72768978  1
  O  O354  1  0.74051354  0.10508756  0.22425418  1
  O  O355  1  0.74907578  0.09632846  0.73435562  1
  O  O356  1  0.75207936  0.42560500  0.23289079  1
  O  O357  1  0.73531938  0.43193550  0.71977873  1
  O  O358  1  0.74322179  0.75713529  0.23219430  1
  O  O359  1  0.73176951  0.76467919  0.72917281  1
