# generated using pymatgen
data_BaLaInIrO6
_symmetry_space_group_name_H-M   'P 1'
_cell_length_a   17.52995348
_cell_length_b   17.55489501
_cell_length_c   16.50300264
_cell_angle_alpha   89.98824421
_cell_angle_beta   90.01763162
_cell_angle_gamma   89.93364560
_symmetry_Int_Tables_number   1
_chemical_formula_structural   BaLaInIrO6
_chemical_formula_sum   'Ba36 La36 In36 Ir36 O216'
_cell_volume   5078.57240129
_cell_formula_units_Z   36
loop_
 _symmetry_equiv_pos_site_id
 _symmetry_equiv_pos_as_xyz
  1  'x, y, z'
loop_
 _atom_site_type_symbol
 _atom_site_label
 _atom_site_symmetry_multiplicity
 _atom_site_fract_x
 _atom_site_fract_y
 _atom_site_fract_z
 _atom_site_occupancy
  Ba  Ba0  1  0.33469760  0.83932182  0.61950306  1
  Ba  Ba1  1  1.00218677  0.17731444  0.62651685  1
  Ba  Ba2  1  0.66894511  0.51116339  0.11970892  1
  Ba  Ba3  1  0.83123691  0.67175437  0.62331541  1
  Ba  Ba4  1  -0.00429008  0.48828850  0.37311828  1
  Ba  Ba5  1  0.66838790  0.49217246  0.37145188  1
  Ba  Ba6  1  0.83212846  0.67427388  0.12419471  1
  Ba  Ba7  1  0.49834581  0.99312360  0.87502270  1
  Ba  Ba8  1  0.66943769  0.50767020  0.62205628  1
  Ba  Ba9  1  0.50044447  0.34061347  0.12326867  1
  Ba  Ba10  1  1.00250140  0.85095962  0.12471484  1
  Ba  Ba11  1  0.33453629  0.51099774  0.62490740  1
  Ba  Ba12  1  1.00373687  0.17934781  0.12376844  1
  Ba  Ba13  1  0.49741869  0.65740972  0.37410694  1
  Ba  Ba14  1  0.83413426  0.32526397  0.87529994  1
  Ba  Ba15  1  0.66553577  0.49437857  0.87161882  1
  Ba  Ba16  1  0.83223199  0.34216162  0.62430115  1
  Ba  Ba17  1  0.16293982  0.67864573  0.62668011  1
  Ba  Ba18  1  0.83700349  0.32301296  0.37504145  1
  Ba  Ba19  1  0.16207915  0.01951188  0.12190074  1
  Ba  Ba20  1  0.66779531  0.16189111  0.87358903  1
  Ba  Ba21  1  0.49907718  0.00787560  0.12340324  1
  Ba  Ba22  1  1.00403474  0.84371334  0.62672070  1
  Ba  Ba23  1  0.50258746  0.98886154  0.37509310  1
  Ba  Ba24  1  0.83308434  0.01222378  0.12253785  1
  Ba  Ba25  1  0.16616017  0.32333828  0.37609746  1
  Ba  Ba26  1  0.83615297  0.99060469  0.87851936  1
  Ba  Ba27  1  0.33270976  0.15610806  0.37335166  1
  Ba  Ba28  1  0.33297425  0.17330056  0.12752918  1
  Ba  Ba29  1  0.16059659  0.68129167  0.12359070  1
  Ba  Ba30  1  0.50196054  0.34200980  0.62525001  1
  Ba  Ba31  1  0.66893882  0.84137075  0.12529223  1
  Ba  Ba32  1  0.17109201  0.66127503  0.37367477  1
  Ba  Ba33  1  0.50110464  0.32494521  0.87460613  1
  Ba  Ba34  1  0.50003878  0.67223149  0.62430908  1
  Ba  Ba35  1  -0.00131852  0.49092119  0.87935929  1
  La  La36  1  1.00142513  0.50954506  0.12752009  1
  La  La37  1  -0.00086639  0.81707389  0.37342853  1
  La  La38  1  -0.00911837  0.14995244  0.88022000  1
  La  La39  1  0.67213010  0.84303078  0.62319783  1
  La  La40  1  1.00403074  0.51146731  0.62407442  1
  La  La41  1  0.83951761  0.98862538  0.36898943  1
  La  La42  1  0.32705150  0.48518806  0.37762797  1
  La  La43  1  0.32731241  0.81558257  0.87795845  1
  La  La44  1  0.66944465  0.17794855  0.11954944  1
  La  La45  1  0.33244005  0.82466718  0.37267141  1
  La  La46  1  0.15871525  0.34934999  0.62595957  1
  La  La47  1  0.33706073  0.17583806  0.62070273  1
  La  La48  1  0.50305369  0.31942074  0.37438223  1
  La  La49  1  0.17045758  0.64877806  0.87418764  1
  La  La50  1  0.66402930  0.81381502  0.37384494  1
  La  La51  1  0.50152007  0.65572899  0.87366963  1
  La  La52  1  0.67057633  0.18200453  0.62936288  1
  La  La53  1  0.17094223  0.98262374  0.87914161  1
  La  La54  1  0.50190826  0.67686472  0.12813297  1
  La  La55  1  -0.00348507  0.15625087  0.36983120  1
  La  La56  1  0.82957435  0.01007597  0.62893032  1
  La  La57  1  0.83130459  0.34727023  0.12391566  1
  La  La58  1  0.83593851  0.64774617  0.37369457  1
  La  La59  1  0.16248264  0.34080359  0.12955754  1
  La  La60  1  0.17045180  0.99219467  0.37269284  1
  La  La61  1  0.83318263  0.65026339  0.87875815  1
  La  La62  1  0.49574257  0.01020965  0.62271502  1
  La  La63  1  0.32754746  0.14748428  0.88330370  1
  La  La64  1  0.33131266  0.48426210  0.87219700  1
  La  La65  1  0.34039147  0.51433541  0.12575969  1
  La  La66  1  0.33547146  0.84925375  0.12750252  1
  La  La67  1  0.17031154  0.31292775  0.87767886  1
  La  La68  1  0.66468010  0.81877057  0.87850274  1
  La  La69  1  0.16180838  0.01362057  0.62571375  1
  La  La70  1  0.66381023  0.15477668  0.37870690  1
  La  La71  1  -0.00276362  0.82072337  0.87921933  1
  In  In72  1  0.50323279  0.16382771  0.25111571  1
  In  In73  1  0.50127467  0.83338019  0.25052385  1
  In  In74  1  0.33413227  0.33350912  0.24862589  1
  In  In75  1  0.83394164  0.83320048  0.75169546  1
  In  In76  1  0.66581980  0.66852916  0.74940362  1
  In  In77  1  0.00059981  -0.00035623  0.49970941  1
  In  In78  1  0.49579195  0.16403733  0.74760955  1
  In  In79  1  0.33030543  0.33293441  0.00205034  1
  In  In80  1  0.16689704  0.83831722  0.50039221  1
  In  In81  1  0.33474761  0.66803787  0.49915419  1
  In  In82  1  0.66682489  0.33417097  0.75068699  1
  In  In83  1  0.00086161  0.66572429  0.24970823  1
  In  In84  1  0.66610995  0.33768769  0.00071538  1
  In  In85  1  0.32957152  -0.00369738  0.74553324  1
  In  In86  1  0.16842741  0.49658247  0.00341549  1
  In  In87  1  -0.00090592  0.66795078  0.49996561  1
  In  In88  1  0.83419263  0.16359853  0.49791972  1
  In  In89  1  0.16636945  0.16711443  0.50091141  1
  In  In90  1  0.83736510  0.16404503  0.75172675  1
  In  In91  1  0.16626946  0.50112027  0.49711730  1
  In  In92  1  0.49629644  0.83156785  -0.00273222  1
  In  In93  1  0.32832949  0.32986617  0.74935502  1
  In  In94  1  0.33053839  0.66921113  0.24524068  1
  In  In95  1  0.33364031  0.33065711  0.50140979  1
  In  In96  1  0.83262221  0.83294801  0.49773947  1
  In  In97  1  0.49914795  0.16632494  -0.00054723  1
  In  In98  1  0.66631037  -0.00147458  -0.00354784  1
  In  In99  1  0.83305329  0.83379149  0.25078337  1
  In  In100  1  0.67069190  0.00048468  0.25235284  1
  In  In101  1  0.00029600  0.66798360  0.75384290  1
  In  In102  1  0.00439503  0.33274541  0.75510436  1
  In  In103  1  0.00136130  0.66796091  0.00062798  1
  In  In104  1  0.66668016  0.33400929  0.49713532  1
  In  In105  1  0.49863791  0.83416947  0.74985824  1
  In  In106  1  0.49616616  0.50143942  0.74909024  1
  In  In107  1  0.50058591  0.49940672  0.24995177  1
  Ir  Ir108  1  0.83195839  0.83169626  -0.00261043  1
  Ir  Ir109  1  0.32915991  0.66873699  0.75522850  1
  Ir  Ir110  1  0.66862575  0.66349856  0.24927472  1
  Ir  Ir111  1  0.67110729  0.33058843  0.25166124  1
  Ir  Ir112  1  0.83580901  0.49899028  0.49991325  1
  Ir  Ir113  1  0.83352333  0.49557210  0.24843746  1
  Ir  Ir114  1  0.16593881  0.49905677  0.75221480  1
  Ir  Ir115  1  0.83648595  0.49858025  0.00035644  1
  Ir  Ir116  1  0.16711980  0.83486546  -0.00078737  1
  Ir  Ir117  1  0.50603418  0.83391762  0.49874431  1
  Ir  Ir118  1  0.16859437  0.49648454  0.24883237  1
  Ir  Ir119  1  0.66754957  0.66576464  -0.00113253  1
  Ir  Ir120  1  0.66688322  -0.00041127  0.50533709  1
  Ir  Ir121  1  0.16623827  0.16183189  0.75564586  1
  Ir  Ir122  1  -0.00169522  0.33273510  0.24871593  1
  Ir  Ir123  1  0.00496126  0.00469683  0.25093700  1
  Ir  Ir124  1  0.32942486  -0.00029665  0.25114731  1
  Ir  Ir125  1  0.16124632  0.16732813  -0.00279268  1
  Ir  Ir126  1  0.66530074  0.66612778  0.49597035  1
  Ir  Ir127  1  0.33049737  0.66678691  -0.00153262  1
  Ir  Ir128  1  0.32692795  -0.00231818  0.00211056  1
  Ir  Ir129  1  0.00582498  -0.00165288  0.75390353  1
  Ir  Ir130  1  0.50268022  0.16084187  0.50024045  1
  Ir  Ir131  1  0.66501729  -0.00384451  0.74481297  1
  Ir  Ir132  1  0.49576696  0.50986006  0.00080844  1
  Ir  Ir133  1  0.83871014  0.16974872  0.00570897  1
  Ir  Ir134  1  0.00166081  0.33404111  0.00542561  1
  Ir  Ir135  1  0.00416084  0.00061153  -0.00119226  1
  Ir  Ir136  1  0.83737605  0.50060786  0.75060035  1
  Ir  Ir137  1  0.49849894  0.50034071  0.49686559  1
  Ir  Ir138  1  0.16482594  0.84222060  0.24808503  1
  Ir  Ir139  1  0.83308642  0.17047610  0.24709926  1
  Ir  Ir140  1  0.16205230  0.16768246  0.24920613  1
  Ir  Ir141  1  0.33374267  -0.00259997  0.49562860  1
  Ir  Ir142  1  0.16572057  0.83521434  0.75635392  1
  Ir  Ir143  1  0.00008587  0.33440821  0.50031772  1
  O  O144  1  0.29737448  0.33060787  0.12548933  1
  O  O145  1  0.29269762  0.32026327  0.62626915  1
  O  O146  1  0.30509168  0.65160004  0.11699038  1
  O  O147  1  0.31143376  0.66691360  0.63384859  1
  O  O148  1  0.30591193  0.98764539  0.12852488  1
  O  O149  1  0.29905702  0.99472011  0.61433899  1
  O  O150  1  0.65200089  0.32366065  0.13266896  1
  O  O151  1  0.65213208  0.32527404  0.62223468  1
  O  O152  1  0.63795966  0.66326799  0.12503843  1
  O  O153  1  0.65025918  0.66398768  0.61743067  1
  O  O154  1  0.65074858  0.99894822  0.12536202  1
  O  O155  1  0.63227436  0.98026094  0.62333778  1
  O  O156  1  0.96913937  0.33234315  0.12681848  1
  O  O157  1  0.98513009  0.33406624  0.62069794  1
  O  O158  1  0.98300809  0.65656151  0.12540379  1
  O  O159  1  0.98357109  0.66027242  0.62854715  1
  O  O160  1  0.98164294  1.00193026  0.12354167  1
  O  O161  1  0.97141487  0.99454014  0.63331548  1
  O  O162  1  0.18499297  0.17540884  0.12130529  1
  O  O163  1  0.19937723  0.15113660  0.63645918  1
  O  O164  1  0.20217606  0.48553204  0.13057913  1
  O  O165  1  0.18490619  0.48834831  0.63236387  1
  O  O166  1  0.19797427  0.83437163  0.12287962  1
  O  O167  1  0.18370572  0.83604631  0.63621103  1
  O  O168  1  0.53210803  0.16102187  0.12748987  1
  O  O169  1  0.53246612  0.15014392  0.61663626  1
  O  O170  1  0.51742093  0.50691796  0.11821779  1
  O  O171  1  0.51792113  0.50312390  0.61666420  1
  O  O172  1  0.51805418  0.81885003  0.12233537  1
  O  O173  1  0.53510655  0.82890853  0.61856271  1
  O  O174  1  0.85788145  0.17449913  0.12730506  1
  O  O175  1  0.85638175  0.14580438  0.62479118  1
  O  O176  1  0.86425476  0.48914688  0.12441012  1
  O  O177  1  0.86656101  0.49927186  0.62576942  1
  O  O178  1  0.85325280  0.82876082  0.11857314  1
  O  O179  1  0.85339930  0.83222369  0.62451367  1
  O  O180  1  0.13429373  0.16543474  0.36958910  1
  O  O181  1  0.12813781  0.17326259  0.87495975  1
  O  O182  1  0.14367082  0.50202863  0.36601153  1
  O  O183  1  0.14849669  0.50937376  0.87176366  1
  O  O184  1  0.13531229  0.85244791  0.36704360  1
  O  O185  1  0.13498407  0.84320293  0.87785146  1
  O  O186  1  0.48208297  0.17544541  0.38221431  1
  O  O187  1  0.46275726  0.16480166  0.87239609  1
  O  O188  1  0.46705613  0.49987118  0.37748677  1
  O  O189  1  0.46572837  0.51634266  0.88276351  1
  O  O190  1  0.47207969  0.83331864  0.37954481  1
  O  O191  1  0.46011481  0.83824925  0.87550624  1
  O  O192  1  0.80404953  0.16535375  0.36551914  1
  O  O193  1  0.82299034  0.16352157  0.88525532  1
  O  O194  1  0.81498181  0.50876767  0.37437237  1
  O  O195  1  0.81422263  0.51050323  0.87507278  1
  O  O196  1  0.79549689  0.85216709  0.37694195  1
  O  O197  1  0.80126510  0.83665181  0.87896497  1
  O  O198  1  0.03358814  0.01603629  0.36895681  1
  O  O199  1  0.03545155  0.00862122  0.87620499  1
  O  O200  1  0.01924783  0.33215387  0.37257699  1
  O  O201  1  0.03411427  0.33867831  0.88572138  1
  O  O202  1  0.02216537  0.67054724  0.37269856  1
  O  O203  1  0.03530653  0.67540132  0.87750476  1
  O  O204  1  0.35594005  0.00005536  0.37302444  1
  O  O205  1  0.34462301  0.00707534  0.88035068  1
  O  O206  1  0.36557623  0.34426272  0.37611272  1
  O  O207  1  0.34882886  0.34573807  0.87563649  1
  O  O208  1  0.34823269  0.68643080  0.37069594  1
  O  O209  1  0.36058225  0.67837129  0.87807291  1
  O  O210  1  0.70325575  0.01573019  0.38828527  1
  O  O211  1  0.68826730  0.00549760  0.86271597  1
  O  O212  1  0.68817077  0.33266080  0.36952234  1
  O  O213  1  0.68467042  0.33478805  0.87671937  1
  O  O214  1  0.69750748  0.67213474  0.37195055  1
  O  O215  1  0.69877125  0.67566604  0.88031895  1
  O  O216  1  0.06644896  0.09934844  0.00959801  1
  O  O217  1  0.07632451  0.09305598  0.52332180  1
  O  O218  1  0.06721730  0.42430504  0.03533392  1
  O  O219  1  0.06676500  0.42635278  0.52370119  1
  O  O220  1  0.07354761  0.76964497  0.01395734  1
  O  O221  1  0.06787377  0.76953284  0.50201738  1
  O  O222  1  0.39527561  0.08826863  0.01491111  1
  O  O223  1  0.40809668  0.08894211  0.52800630  1
  O  O224  1  0.39852360  0.44504439  0.01690963  1
  O  O225  1  0.41076547  0.42922387  0.51692942  1
  O  O226  1  0.39012884  0.76198651  0.02255747  1
  O  O227  1  0.41779544  0.76338296  0.51498327  1
  O  O228  1  0.74400533  0.10372647  0.02230390  1
  O  O229  1  0.73042892  0.08955557  0.53403543  1
  O  O230  1  0.75143390  0.42360435  0.02196039  1
  O  O231  1  0.74668781  0.42813676  0.51134959  1
  O  O232  1  0.73780371  0.76204488  0.01588849  1
  O  O233  1  0.72709371  0.76323654  0.51359468  1
  O  O234  1  0.10102810  0.27005440  0.02053309  1
  O  O235  1  0.09607266  0.27063272  0.52234649  1
  O  O236  1  0.09120896  0.58568580  0.01810798  1
  O  O237  1  0.08733882  0.58645241  0.52488152  1
  O  O238  1  0.10172378  0.93236593  0.01241702  1
  O  O239  1  0.10532064  0.93961551  0.52027358  1
  O  O240  1  0.42235519  0.25904663  0.01878064  1
  O  O241  1  0.42914664  0.24797058  0.52239346  1
  O  O242  1  0.43003523  0.60741462  0.02436398  1
  O  O243  1  0.42962484  0.59067295  0.51287970  1
  O  O244  1  0.41319405  0.92402475  0.02450682  1
  O  O245  1  0.43544923  0.92898376  0.52168420  1
  O  O246  1  0.76897969  0.25937312  0.02621593  1
  O  O247  1  0.75360611  0.24898438  0.51658001  1
  O  O248  1  0.76472541  0.59434544  0.01291177  1
  O  O249  1  0.76496232  0.59672839  0.50716388  1
  O  O250  1  0.76437433  0.92195040  0.01414112  1
  O  O251  1  0.75804555  0.93403881  0.53266620  1
  O  O252  1  0.23122390  0.07044733  0.27142420  1
  O  O253  1  0.22945332  0.06742300  0.77901492  1
  O  O254  1  0.24013114  0.41130767  0.27506580  1
  O  O255  1  0.22429341  0.40083085  0.77264499  1
  O  O256  1  0.23735992  0.75543810  0.26562342  1
  O  O257  1  0.23115769  0.73707691  0.78203673  1
  O  O258  1  0.58503518  0.07981235  0.28387864  1
  O  O259  1  0.57032688  0.05899979  0.75332474  1
  O  O260  1  0.57287449  0.39475823  0.27204273  1
  O  O261  1  0.57256364  0.41070204  0.76336388  1
  O  O262  1  0.57750123  0.73328722  0.26372819  1
  O  O263  1  0.57054095  0.74244912  0.78616470  1
  O  O264  1  0.90707317  0.07472904  0.27556980  1
  O  O265  1  0.91581057  0.06835157  0.77180168  1
  O  O266  1  0.89988448  0.39852323  0.25825423  1
  O  O267  1  0.90860057  0.41062138  0.76580299  1
  O  O268  1  0.90525245  0.74153769  0.28024978  1
  O  O269  1  0.90440308  0.73847710  0.78643429  1
  O  O270  1  0.25163179  0.23675372  0.26605409  1
  O  O271  1  0.25628018  0.22722639  0.78618202  1
  O  O272  1  0.26189993  0.56484111  0.26998832  1
  O  O273  1  0.26142412  0.57032684  0.77970210  1
  O  O274  1  0.25947982  0.90833079  0.27646190  1
  O  O275  1  0.25998637  0.89905944  0.78055134  1
  O  O276  1  0.60652591  0.23842883  0.27454479  1
  O  O277  1  0.59195819  0.23417805  0.75448120  1
  O  O278  1  0.59780395  0.57475679  0.26175933  1
  O  O279  1  0.58268836  0.58417379  0.77170247  1
  O  O280  1  0.60041919  0.89975228  0.27662044  1
  O  O281  1  0.60688907  0.89857585  0.76893418  1
  O  O282  1  0.93253701  0.23482686  0.27275914  1
  O  O283  1  0.93647622  0.23474589  0.77468266  1
  O  O284  1  0.92117025  0.56856176  0.26254834  1
  O  O285  1  0.92423672  0.57175345  0.76877230  1
  O  O286  1  0.93827791  0.91221100  0.27731483  1
  O  O287  1  0.93962129  0.90551826  0.77934709  1
  O  O288  1  0.26488237  0.23055831  0.48804587  1
  O  O289  1  0.25425672  0.23108324  0.97159042  1
  O  O290  1  0.26513580  0.57061038  0.47495628  1
  O  O291  1  0.26866333  0.57122600  0.97328241  1
  O  O292  1  0.26793072  0.90780323  0.46666327  1
  O  O293  1  0.26142092  0.90076197  0.97595829  1
  O  O294  1  0.59022559  0.23389084  0.47594880  1
  O  O295  1  0.59611555  0.24176771  0.99296849  1
  O  O296  1  0.59345100  0.57212437  0.47821921  1
  O  O297  1  0.58922952  0.58000475  0.97368191  1
  O  O298  1  0.60359629  0.90121507  0.47611831  1
  O  O299  1  0.59637287  0.89836545  0.97283891  1
  O  O300  1  0.93683747  0.23739264  0.47801981  1
  O  O301  1  0.93574916  0.23849334  0.97839670  1
  O  O302  1  0.92168263  0.57124833  0.48449563  1
  O  O303  1  0.91984128  0.57556595  0.98276279  1
  O  O304  1  0.93137452  0.90475590  0.46500464  1
  O  O305  1  0.93292539  0.89965282  0.97730083  1
  O  O306  1  0.23936152  0.06234495  0.47634157  1
  O  O307  1  0.23044552  0.07204749  0.97270243  1
  O  O308  1  0.24319483  0.40978681  0.48167636  1
  O  O309  1  0.22811428  0.39738861  0.97497495  1
  O  O310  1  0.24743835  0.75182812  0.48317985  1
  O  O311  1  0.23304108  0.73449214  0.97183043  1
  O  O312  1  0.57661519  0.07141735  0.47787573  1
  O  O313  1  0.57443031  0.07372451  0.97962320  1
  O  O314  1  0.56552947  0.40577533  0.47444314  1
  O  O315  1  0.56627266  0.41937461  0.98522734  1
  O  O316  1  0.57736036  0.74263317  0.47003684  1
  O  O317  1  0.57324799  0.73176211  0.97614014  1
  O  O318  1  0.90516302  0.07031485  0.46746129  1
  O  O319  1  0.91355065  0.07525679  0.98086218  1
  O  O320  1  0.90486822  0.40356900  0.48511829  1
  O  O321  1  0.90589853  0.40126901  0.98764163  1
  O  O322  1  0.89896034  0.73495989  0.46834642  1
  O  O323  1  0.90217410  0.74147432  0.97164172  1
  O  O324  1  0.09647636  0.26704084  0.22911301  1
  O  O325  1  0.10841994  0.26248390  0.73140198  1
  O  O326  1  0.09292806  0.58019573  0.22331299  1
  O  O327  1  0.09935954  0.59159363  0.73781251  1
  O  O328  1  0.09920089  0.93718312  0.23213984  1
  O  O329  1  0.10548886  0.93534675  0.73546557  1
  O  O330  1  0.43310190  0.26225086  0.24443217  1
  O  O331  1  0.41485884  0.25134653  0.71577726  1
  O  O332  1  0.42979002  0.59953867  0.22182362  1
  O  O333  1  0.42077376  0.60324883  0.74335139  1
  O  O334  1  0.41603469  0.92538235  0.23255097  1
  O  O335  1  0.43128042  0.93116649  0.72113439  1
  O  O336  1  0.76802502  0.26551836  0.22317373  1
  O  O337  1  0.75705031  0.25002057  0.73186029  1
  O  O338  1  0.76609174  0.59440284  0.23915458  1
  O  O339  1  0.76582519  0.59304082  0.74251033  1
  O  O340  1  0.77394991  0.93875945  0.24299766  1
  O  O341  1  0.76150872  0.93443807  0.72454717  1
  O  O342  1  0.06905834  0.10051997  0.23488841  1
  O  O343  1  0.07703349  0.08925670  0.72666680  1
  O  O344  1  0.07165257  0.42580633  0.22024811  1
  O  O345  1  0.07242833  0.43320011  0.72508187  1
  O  O346  1  0.07531461  0.77015141  0.23789414  1
  O  O347  1  0.07324024  0.77030048  0.74359091  1
  O  O348  1  0.40465015  0.08501546  0.23442317  1
  O  O349  1  0.39984926  0.09075838  0.71741600  1
  O  O350  1  0.39970948  0.43627431  0.22432045  1
  O  O351  1  0.39614879  0.43289358  0.74400223  1
  O  O352  1  0.40230934  0.76496016  0.22199499  1
  O  O353  1  0.39416538  0.76132853  0.74078798  1
  O  O354  1  0.73929363  0.10983223  0.22600199  1
  O  O355  1  0.73269644  0.08803236  0.71955910  1
  O  O356  1  0.74251136  0.42315067  0.22564842  1
  O  O357  1  0.75041870  0.42994590  0.73468476  1
  O  O358  1  0.73582299  0.75539002  0.23910223  1
  O  O359  1  0.72966333  0.76996838  0.73155962  1
