# generated using pymatgen
data_BaLaInIrO6
_symmetry_space_group_name_H-M   'P 1'
_cell_length_a   17.50828300
_cell_length_b   17.53105824
_cell_length_c   16.47469544
_cell_angle_alpha   89.98736694
_cell_angle_beta   89.99724243
_cell_angle_gamma   89.97809566
_symmetry_Int_Tables_number   1
_chemical_formula_structural   BaLaInIrO6
_chemical_formula_sum   'Ba36 La36 In36 Ir36 O216'
_cell_volume   5056.72157866
_cell_formula_units_Z   36
loop_
 _symmetry_equiv_pos_site_id
 _symmetry_equiv_pos_as_xyz
  1  'x, y, z'
loop_
 _atom_site_type_symbol
 _atom_site_label
 _atom_site_symmetry_multiplicity
 _atom_site_fract_x
 _atom_site_fract_y
 _atom_site_fract_z
 _atom_site_occupancy
  Ba  Ba0  1  0.33711720  0.17501005  0.62430336  1
  Ba  Ba1  1  0.16395398  0.67333809  0.12401652  1
  Ba  Ba2  1  -0.00186190  0.15483004  0.87437588  1
  Ba  Ba3  1  0.50369025  0.65713971  0.87434068  1
  Ba  Ba4  1  0.16717118  0.00757343  0.13262449  1
  Ba  Ba5  1  0.66796597  0.17578177  0.62626968  1
  Ba  Ba6  1  0.16845553  0.00612551  0.62258907  1
  Ba  Ba7  1  0.50237336  0.00976109  0.62306721  1
  Ba  Ba8  1  1.00048976  0.50769099  0.12662040  1
  Ba  Ba9  1  0.83349265  0.68008594  0.12166172  1
  Ba  Ba10  1  0.32908653  0.82552254  0.37847020  1
  Ba  Ba11  1  0.33746586  0.50492826  0.62263142  1
  Ba  Ba12  1  0.00169453  0.82380687  0.37544234  1
  Ba  Ba13  1  0.66695585  0.15185886  0.87363550  1
  Ba  Ba14  1  0.17090586  0.65559326  0.37338996  1
  Ba  Ba15  1  0.49699883  0.01373518  0.12517865  1
  Ba  Ba16  1  0.33228876  0.48976416  0.37463818  1
  Ba  Ba17  1  0.66733641  0.50810976  0.62588784  1
  Ba  Ba18  1  0.50575678  0.99275017  0.87534206  1
  Ba  Ba19  1  0.99927116  0.17562781  0.12152463  1
  Ba  Ba20  1  0.66876177  0.17253981  0.12080590  1
  Ba  Ba21  1  0.33710143  0.49509232  0.86925499  1
  Ba  Ba22  1  0.82725606  0.68396006  0.62592386  1
  Ba  Ba23  1  0.49871020  0.32500622  0.87229632  1
  Ba  Ba24  1  0.33306935  0.83901095  0.12996527  1
  Ba  Ba25  1  0.16429134  0.99045493  0.87815638  1
  Ba  Ba26  1  0.16600405  0.98998181  0.37882254  1
  Ba  Ba27  1  1.00143004  0.84169480  0.62163099  1
  Ba  Ba28  1  0.50192453  0.32761312  0.37755852  1
  Ba  Ba29  1  0.33548571  0.17209618  0.12368846  1
  Ba  Ba30  1  0.66865541  0.84287403  0.62694243  1
  Ba  Ba31  1  0.50087113  0.66080150  0.37347783  1
  Ba  Ba32  1  0.16687801  0.33865001  0.62272560  1
  Ba  Ba33  1  0.49941382  0.67930458  0.62703529  1
  Ba  Ba34  1  0.83637210  0.99464849  0.87554252  1
  Ba  Ba35  1  0.66682303  0.84953270  0.12546663  1
  La  La36  1  0.83080813  0.34517494  0.62805080  1
  La  La37  1  0.33056785  0.14984975  0.87778315  1
  La  La38  1  0.82492700  0.34615400  0.11758033  1
  La  La39  1  0.33179601  0.51243066  0.12495365  1
  La  La40  1  0.16304820  0.34451318  0.12564883  1
  La  La41  1  0.82980033  0.65502665  0.87199143  1
  La  La42  1  0.49547919  0.34252902  0.62416351  1
  La  La43  1  0.82515630  0.01617702  0.12116849  1
  La  La44  1  0.66349008  0.82669758  0.87514459  1
  La  La45  1  0.83566279  0.31866971  0.37919715  1
  La  La46  1  0.33121060  0.81584172  0.87789206  1
  La  La47  1  0.65819778  0.48262736  0.87531317  1
  La  La48  1  0.16560274  0.65465970  0.86892840  1
  La  La49  1  1.00756318  0.51375829  0.62327614  1
  La  La50  1  0.17158564  0.32353701  0.37296288  1
  La  La51  1  0.82542961  0.01615734  0.62629479  1
  La  La52  1  -0.00677396  0.82764773  0.88113151  1
  La  La53  1  0.33953576  0.84667257  0.62798327  1
  La  La54  1  -0.00404648  0.14846338  0.37907016  1
  La  La55  1  0.83633801  0.65159705  0.37562510  1
  La  La56  1  0.67225503  0.51812201  0.12407513  1
  La  La57  1  0.65747180  0.48527599  0.37340816  1
  La  La58  1  0.33268098  0.15746986  0.37583829  1
  La  La59  1  0.83472206  0.31509285  0.87206863  1
  La  La60  1  0.65888554  0.15114818  0.37268585  1
  La  La61  1  0.16450504  0.67730401  0.61859771  1
  La  La62  1  0.50131351  0.98598202  0.37341867  1
  La  La63  1  0.00386598  0.48884578  0.37195491  1
  La  La64  1  1.00379936  0.17773695  0.62843490  1
  La  La65  1  0.49918707  0.34013165  0.12534227  1
  La  La66  1  0.66326615  0.81983416  0.37728600  1
  La  La67  1  0.17511943  0.31694969  0.87565002  1
  La  La68  1  0.83404170  0.98597751  0.37342827  1
  La  La69  1  -0.00250535  0.48132579  0.87579357  1
  La  La70  1  0.49078145  0.68264730  0.11992033  1
  La  La71  1  1.00633718  0.84774652  0.12727278  1
  In  In72  1  0.50508364  0.83434780  0.24927160  1
  In  In73  1  -0.00147004  0.66781039  0.74941532  1
  In  In74  1  0.83285925  0.16961353  0.25288593  1
  In  In75  1  0.16610418  0.83182446  0.75053267  1
  In  In76  1  -0.00032342  0.33415962  0.50087288  1
  In  In77  1  0.33496720  0.66409222  0.25094228  1
  In  In78  1  -0.00129905  0.66640316  -0.00295799  1
  In  In79  1  0.33431620  -0.00652524  -0.00094379  1
  In  In80  1  0.16302587  0.83025527  -0.00072009  1
  In  In81  1  0.83057220  0.49700231  0.25077462  1
  In  In82  1  0.16409220  0.16640774  0.49932196  1
  In  In83  1  0.66805636  0.33094951  0.24819701  1
  In  In84  1  0.83419263  0.83291506  0.24758609  1
  In  In85  1  0.33305097  0.66398239  0.74873596  1
  In  In86  1  0.16619826  0.83141462  0.25229920  1
  In  In87  1  0.66645675  0.66813347  0.75200177  1
  In  In88  1  -0.00277470  0.66562911  0.49763778  1
  In  In89  1  0.16503805  0.49793144  -0.00410414  1
  In  In90  1  0.33576358  0.00242370  0.50142020  1
  In  In91  1  0.50039262  0.50207569  0.49893773  1
  In  In92  1  0.33398315  0.33252011  0.74947894  1
  In  In93  1  0.83417584  0.49738311  0.49861310  1
  In  In94  1  -0.00262362  0.00089120  0.00388719  1
  In  In95  1  0.33503725  0.00204433  0.25271448  1
  In  In96  1  -0.00140550  0.33050236  0.25230792  1
  In  In97  1  0.50252209  0.16730256  0.74977768  1
  In  In98  1  -0.00154914  -0.00251105  0.74581880  1
  In  In99  1  0.50179607  0.49891457  0.24590470  1
  In  In100  1  0.16699505  0.16686147  0.00259728  1
  In  In101  1  0.16767024  0.16370729  0.74951230  1
  In  In102  1  0.66653083  -0.00010617  0.49935162  1
  In  In103  1  0.33321265  0.33428052  0.00239012  1
  In  In104  1  0.83573719  0.50039109  0.75147404  1
  In  In105  1  0.50298251  0.49996053  0.00313754  1
  In  In106  1  0.83043130  0.49913650  -0.00421489  1
  In  In107  1  0.67002623  0.66594952  0.49864366  1
  Ir  Ir108  1  -0.00434467  0.33343816  -0.00274320  1
  Ir  Ir109  1  0.16082676  0.49736835  0.74527091  1
  Ir  Ir110  1  0.32942257  0.33097817  0.24997063  1
  Ir  Ir111  1  0.50465344  0.49704451  0.75010597  1
  Ir  Ir112  1  0.33108633  0.66782251  0.50374685  1
  Ir  Ir113  1  0.33426480  0.33260037  0.49422233  1
  Ir  Ir114  1  -0.00573486  0.00160741  0.25511825  1
  Ir  Ir115  1  0.83521965  0.16825465  0.74638152  1
  Ir  Ir116  1  0.66640138  0.67108512  0.00292711  1
  Ir  Ir117  1  0.66988455  0.33298363  0.74764724  1
  Ir  Ir118  1  0.66813595  -0.00097683  0.00082514  1
  Ir  Ir119  1  0.49880338  0.83267454  0.50203116  1
  Ir  Ir120  1  0.33826903  -0.00335300  0.75308367  1
  Ir  Ir121  1  0.67036888  0.66917242  0.24768658  1
  Ir  Ir122  1  0.33491641  0.66360193  -0.00231544  1
  Ir  Ir123  1  -0.00262220  0.33344157  0.75301440  1
  Ir  Ir124  1  0.49867117  0.83709816  0.75129557  1
  Ir  Ir125  1  0.50179262  0.83069787  -0.00450390  1
  Ir  Ir126  1  0.50366535  0.17015585  0.00249099  1
  Ir  Ir127  1  0.83234009  0.16925033  -0.00187937  1
  Ir  Ir128  1  0.66853356  0.00421696  0.25092555  1
  Ir  Ir129  1  0.16331114  0.17029838  0.25401470  1
  Ir  Ir130  1  0.67064076  -0.00182161  0.75217997  1
  Ir  Ir131  1  0.16650079  0.49554587  0.25120401  1
  Ir  Ir132  1  0.83082379  0.83853063  0.49891331  1
  Ir  Ir133  1  -0.00119755  0.66276294  0.25169222  1
  Ir  Ir134  1  0.50195126  0.17152348  0.49447542  1
  Ir  Ir135  1  -0.00914969  -0.00141305  0.49850897  1
  Ir  Ir136  1  0.67130560  0.33009682  0.50414587  1
  Ir  Ir137  1  0.16774771  0.49991290  0.50253863  1
  Ir  Ir138  1  0.83146055  0.16706180  0.49962519  1
  Ir  Ir139  1  0.66529218  0.33075584  -0.00271633  1
  Ir  Ir140  1  0.83042844  0.83603561  0.75366840  1
  Ir  Ir141  1  0.82948648  0.83343157  -0.00281624  1
  Ir  Ir142  1  0.49947365  0.17065289  0.25285434  1
  Ir  Ir143  1  0.16879622  0.83143303  0.50387815  1
  O  O144  1  0.29752550  0.32580823  0.13266309  1
  O  O145  1  0.31747022  0.33379009  0.61548435  1
  O  O146  1  0.31819932  0.66267217  0.11661769  1
  O  O147  1  0.30403849  0.66874738  0.62278490  1
  O  O148  1  0.32296293  1.00114512  0.12568133  1
  O  O149  1  0.32082046  0.98923886  0.63103350  1
  O  O150  1  0.63603204  0.32383085  0.11669286  1
  O  O151  1  0.63546219  0.32834331  0.62635481  1
  O  O152  1  0.63189470  0.65900772  0.12617731  1
  O  O153  1  0.65124848  0.66950688  0.62544875  1
  O  O154  1  0.64679810  1.00612253  0.12540865  1
  O  O155  1  0.65537483  1.00091045  0.63002661  1
  O  O156  1  0.96257199  0.33257699  0.11904017  1
  O  O157  1  0.96631231  0.32394974  0.63241830  1
  O  O158  1  0.98085731  0.65857638  0.13199980  1
  O  O159  1  0.97284373  0.64898460  0.62312308  1
  O  O160  1  0.96207327  0.99306571  0.13543984  1
  O  O161  1  0.96001839  0.99582470  0.61689820  1
  O  O162  1  0.18554330  0.16799350  0.13540133  1
  O  O163  1  0.18616258  0.16763525  0.62427050  1
  O  O164  1  0.19218372  0.48441305  0.12921298  1
  O  O165  1  0.19024219  0.49167128  0.62464019  1
  O  O166  1  0.18205632  0.82936077  0.12517554  1
  O  O167  1  0.20188892  0.82335288  0.62213896  1
  O  O168  1  0.52264338  0.17373850  0.12920147  1
  O  O169  1  0.51988273  0.16850134  0.61426753  1
  O  O170  1  0.54059247  0.48194175  0.12424688  1
  O  O171  1  0.51939664  0.48871926  0.62825437  1
  O  O172  1  0.51960120  0.82081750  0.11731902  1
  O  O173  1  0.52051538  0.83647409  0.62735960  1
  O  O174  1  0.84667631  0.16077494  0.12125347  1
  O  O175  1  0.86575293  0.15850939  0.62186896  1
  O  O176  1  0.85193152  0.48489201  0.12141397  1
  O  O177  1  0.87042268  0.48444241  0.62655441  1
  O  O178  1  0.86330167  0.83276837  0.11803563  1
  O  O179  1  0.85293399  0.83537888  0.62788477  1
  O  O180  1  0.13095170  0.18193967  0.37259361  1
  O  O181  1  0.14482648  0.18109916  0.87446551  1
  O  O182  1  0.13891126  0.49974958  0.37746106  1
  O  O183  1  0.13333391  0.51048330  0.86413510  1
  O  O184  1  0.15036899  0.83188058  0.38406439  1
  O  O185  1  0.12877194  0.83509855  0.87488768  1
  O  O186  1  0.47112039  0.17414389  0.37407399  1
  O  O187  1  0.47456687  0.17039009  0.88176330  1
  O  O188  1  0.48450698  0.50161093  0.37220653  1
  O  O189  1  0.48952873  0.49721417  0.87247803  1
  O  O190  1  0.48223039  0.83788652  0.38203104  1
  O  O191  1  0.46926697  0.83469221  0.87244452  1
  O  O192  1  0.79521362  0.17984916  0.38202726  1
  O  O193  1  0.81260519  0.17816120  0.87114574  1
  O  O194  1  0.79159506  0.50935855  0.37327528  1
  O  O195  1  0.79178815  0.50812082  0.87541389  1
  O  O196  1  0.80203185  0.84766641  0.37775843  1
  O  O197  1  0.79884077  0.84088059  0.87505854  1
  O  O198  1  0.01895663  0.01044209  0.37659978  1
  O  O199  1  0.00883194  -0.00626414  0.87498099  1
  O  O200  1  0.03685425  0.34838042  0.37715254  1
  O  O201  1  0.03356513  0.34044489  0.87484244  1
  O  O202  1  0.02065338  0.66479506  0.36941256  1
  O  O203  1  0.03398176  0.68898292  0.87110626  1
  O  O204  1  0.36701893  0.01231154  0.37786690  1
  O  O205  1  0.35706911  0.00769988  0.87109322  1
  O  O206  1  0.35379350  0.33187220  0.37023456  1
  O  O207  1  0.34938590  0.34485524  0.87576923  1
  O  O208  1  0.35003840  0.66442886  0.38356574  1
  O  O209  1  0.35423480  0.66491732  0.87831727  1
  O  O210  1  0.69642252  0.01010338  0.37126448  1
  O  O211  1  0.68815842  -0.01218286  0.87777616  1
  O  O212  1  0.70033124  0.34213953  0.38303431  1
  O  O213  1  0.69916704  0.34352026  0.87294930  1
  O  O214  1  0.70158052  0.68047118  0.36731625  1
  O  O215  1  0.69430583  0.68183418  0.88286322  1
  O  O216  1  0.07500339  0.09189288  0.01809349  1
  O  O217  1  0.05635534  0.09351815  0.51738002  1
  O  O218  1  0.06047842  0.42658424  0.01080312  1
  O  O219  1  0.07061725  0.43713442  0.52205442  1
  O  O220  1  0.05437874  0.76987022  0.02237901  1
  O  O221  1  0.08160561  0.75457679  0.52016525  1
  O  O222  1  0.41608056  0.09927500  0.01071339  1
  O  O223  1  0.41230212  0.10245248  0.51029016  1
  O  O224  1  0.40577555  0.42890355  0.03469115  1
  O  O225  1  0.41189877  0.41686910  0.51426846  1
  O  O226  1  0.40476156  0.76098229  0.01274087  1
  O  O227  1  0.40027324  0.76429056  0.52712223  1
  O  O228  1  0.74396700  0.08935961  0.01986733  1
  O  O229  1  0.74339526  0.09615109  0.51706231  1
  O  O230  1  0.73045437  0.42368111  0.02316126  1
  O  O231  1  0.74339691  0.41554826  0.53044156  1
  O  O232  1  0.73356045  0.76827159  0.01633653  1
  O  O233  1  0.73783575  0.77407797  0.50539069  1
  O  O234  1  0.09279244  0.27220708  0.02250164  1
  O  O235  1  0.08127630  0.25197459  0.52620608  1
  O  O236  1  0.09960650  0.59682544  0.00218834  1
  O  O237  1  0.09974915  0.59127643  0.52641590  1
  O  O238  1  0.08483154  0.92334581  0.03013124  1
  O  O239  1  0.09042708  0.92588812  0.51781974  1
  O  O240  1  0.43841709  0.26431127  0.02401554  1
  O  O241  1  0.43272528  0.26591178  0.51960777  1
  O  O242  1  0.43099403  0.59884587  0.02305831  1
  O  O243  1  0.42252383  0.59906810  0.51888882  1
  O  O244  1  0.43424878  0.91885853  0.01366633  1
  O  O245  1  0.42649233  0.92036276  0.51702370  1
  O  O246  1  0.76595072  0.26859198  0.01311542  1
  O  O247  1  0.76988871  0.26379387  0.52678390  1
  O  O248  1  0.75383766  0.59825924  0.02107052  1
  O  O249  1  0.77157144  0.60017200  0.50974368  1
  O  O250  1  0.76504943  0.93181030  0.02481364  1
  O  O251  1  0.77054317  0.93645086  0.51664780  1
  O  O252  1  0.23864153  0.08657895  0.27874520  1
  O  O253  1  0.24827345  0.06695270  0.76994377  1
  O  O254  1  0.23045086  0.39571570  0.27009854  1
  O  O255  1  0.22638395  0.40431391  0.76972515  1
  O  O256  1  0.24421295  0.73924658  0.26314110  1
  O  O257  1  0.24253065  0.73895501  0.78405512  1
  O  O258  1  0.56805634  0.07194582  0.27952080  1
  O  O259  1  0.58075402  0.07159004  0.76232694  1
  O  O260  1  0.57815726  0.40653527  0.27172024  1
  O  O261  1  0.58174241  0.40826064  0.77155576  1
  O  O262  1  0.58664659  0.74440359  0.27277235  1
  O  O263  1  0.57240831  0.75026758  0.77200671  1
  O  O264  1  0.90279605  0.07099110  0.27862384  1
  O  O265  1  0.90079861  0.07578470  0.75701409  1
  O  O266  1  0.90543679  0.40442263  0.28480768  1
  O  O267  1  0.90697018  0.40061951  0.78286844  1
  O  O268  1  0.90427040  0.72966110  0.27337387  1
  O  O269  1  0.89634371  0.74109408  0.77901824  1
  O  O270  1  0.25780907  0.23833825  0.28151325  1
  O  O271  1  0.26463518  0.23620838  0.77749301  1
  O  O272  1  0.26139595  0.56204142  0.25503000  1
  O  O273  1  0.24770785  0.57166344  0.76588212  1
  O  O274  1  0.25474705  0.91375550  0.26850150  1
  O  O275  1  0.27525743  0.89911817  0.76980247  1
  O  O276  1  0.59887218  0.23003093  0.27282681  1
  O  O277  1  0.59909870  0.24515312  0.76728766  1
  O  O278  1  0.60660705  0.57395570  0.26825556  1
  O  O279  1  0.59708713  0.56667205  0.77350887  1
  O  O280  1  0.60311109  0.91098743  0.27785984  1
  O  O281  1  0.59904521  0.90401767  0.77339550  1
  O  O282  1  0.93055803  0.23512529  0.28743054  1
  O  O283  1  0.92613769  0.24124818  0.77209129  1
  O  O284  1  0.92972478  0.56992937  0.27730519  1
  O  O285  1  0.93344026  0.56880253  0.78393773  1
  O  O286  1  0.92373457  0.91253016  0.27573392  1
  O  O287  1  0.92569985  0.89588078  0.77027409  1
  O  O288  1  0.26058279  0.24577941  0.46992544  1
  O  O289  1  0.26559388  0.23651567  0.97439976  1
  O  O290  1  0.26210767  0.57195089  0.48543676  1
  O  O291  1  0.27164271  0.56633738  0.99216035  1
  O  O292  1  0.25623398  0.90648196  0.49293240  1
  O  O293  1  0.26559440  0.89508825  0.97206751  1
  O  O294  1  0.60156035  0.23617568  0.47384181  1
  O  O295  1  0.59665463  0.23909161  0.97825907  1
  O  O296  1  0.60070088  0.56875460  0.47404479  1
  O  O297  1  0.60456882  0.57331028  0.98224397  1
  O  O298  1  0.59011817  0.90574067  0.47424702  1
  O  O299  1  0.59861650  0.89995767  0.97822767  1
  O  O300  1  0.92289401  0.23275026  0.47349551  1
  O  O301  1  0.92242399  0.24333335  0.97496090  1
  O  O302  1  0.93500525  0.56335880  0.46907797  1
  O  O303  1  0.92536507  0.57260252  0.96665695  1
  O  O304  1  0.92153218  0.90753670  0.47488163  1
  O  O305  1  0.92263020  0.89693072  0.98146875  1
  O  O306  1  0.24690025  0.08169597  0.47651940  1
  O  O307  1  0.24928430  0.07787957  0.97790951  1
  O  O308  1  0.23647571  0.40081063  0.47433081  1
  O  O309  1  0.22371250  0.39461638  0.98547209  1
  O  O310  1  0.23560256  0.73632209  0.48754890  1
  O  O311  1  0.23803397  0.72669791  0.97084691  1
  O  O312  1  0.57061240  0.07759147  0.46904573  1
  O  O313  1  0.57578311  0.07418604  0.98465214  1
  O  O314  1  0.58549115  0.40434651  0.48585254  1
  O  O315  1  0.57875247  0.40243293  0.97817868  1
  O  O316  1  0.57542775  0.74801714  0.47996434  1
  O  O317  1  0.57370160  0.74079936  0.98084777  1
  O  O318  1  0.89701698  0.06841870  0.47134007  1
  O  O319  1  0.89946358  0.07612680  0.99365128  1
  O  O320  1  0.90139759  0.39794204  0.47302937  1
  O  O321  1  0.90184691  0.39895079  0.96841118  1
  O  O322  1  0.89550461  0.74044062  0.47476184  1
  O  O323  1  0.89331392  0.73993984  0.96783782  1
  O  O324  1  0.09963577  0.26441326  0.22786535  1
  O  O325  1  0.08442002  0.26353470  0.73219516  1
  O  O326  1  0.09493921  0.59030665  0.23309490  1
  O  O327  1  0.09662338  0.58815370  0.71909669  1
  O  O328  1  0.07895657  0.92560882  0.23532091  1
  O  O329  1  0.09407306  0.92568805  0.72784401  1
  O  O330  1  0.43227284  0.26834673  0.22833594  1
  O  O331  1  0.43397210  0.26421376  0.72346470  1
  O  O332  1  0.42655217  0.58814198  0.21238152  1
  O  O333  1  0.42936545  0.58557933  0.73573954  1
  O  O334  1  0.43764176  0.93239575  0.24779303  1
  O  O335  1  0.42914536  0.92631189  0.72903409  1
  O  O336  1  0.77472669  0.27467314  0.23048355  1
  O  O337  1  0.76818828  0.26644308  0.72820026  1
  O  O338  1  0.75746108  0.59793341  0.22595793  1
  O  O339  1  0.76750617  0.60070678  0.74236756  1
  O  O340  1  0.76523632  0.94065182  0.23006152  1
  O  O341  1  0.76779612  0.93324438  0.72933978  1
  O  O342  1  0.06515288  0.10164259  0.24100509  1
  O  O343  1  0.06616801  0.09777350  0.72397049  1
  O  O344  1  0.07686302  0.42597726  0.23224408  1
  O  O345  1  0.05930127  0.43269040  0.72995429  1
  O  O346  1  0.06200323  0.75935570  0.23005693  1
  O  O347  1  0.08472419  0.74671689  0.71393398  1
  O  O348  1  0.40596719  0.10713827  0.24412760  1
  O  O349  1  0.40535583  0.09054268  0.73921071  1
  O  O350  1  0.39846463  0.42131134  0.21988642  1
  O  O351  1  0.41799464  0.42308460  0.73061040  1
  O  O352  1  0.42133888  0.74875466  0.23188624  1
  O  O353  1  0.40456652  0.76898542  0.73274484  1
  O  O354  1  0.73578326  0.09653593  0.23815288  1
  O  O355  1  0.74582654  0.09125196  0.72678157  1
  O  O356  1  0.73322144  0.43047245  0.21756417  1
  O  O357  1  0.74404782  0.41878138  0.72713827  1
  O  O358  1  0.73705010  0.76176528  0.23172244  1
  O  O359  1  0.73784916  0.77119258  0.74496763  1
