# generated using pymatgen
data_BaLaInIrO6
_symmetry_space_group_name_H-M   'P 1'
_cell_length_a   17.50842948
_cell_length_b   17.53569857
_cell_length_c   16.47945886
_cell_angle_alpha   90.00572627
_cell_angle_beta   89.97966261
_cell_angle_gamma   90.02310608
_symmetry_Int_Tables_number   1
_chemical_formula_structural   BaLaInIrO6
_chemical_formula_sum   'Ba36 La36 In36 Ir36 O216'
_cell_volume   5059.56459216
_cell_formula_units_Z   36
loop_
 _symmetry_equiv_pos_site_id
 _symmetry_equiv_pos_as_xyz
  1  'x, y, z'
loop_
 _atom_site_type_symbol
 _atom_site_label
 _atom_site_symmetry_multiplicity
 _atom_site_fract_x
 _atom_site_fract_y
 _atom_site_fract_z
 _atom_site_occupancy
  Ba  Ba0  1  0.50390354  0.32860228  0.37449507  1
  Ba  Ba1  1  0.16824840  0.00649361  0.12690565  1
  Ba  Ba2  1  0.83213038  0.67399731  0.12312866  1
  Ba  Ba3  1  0.66878101  0.17849567  0.62536108  1
  Ba  Ba4  1  0.83486005  0.65909378  0.37496030  1
  Ba  Ba5  1  0.16189275  0.34211413  0.62728402  1
  Ba  Ba6  1  0.16291636  0.32808315  0.87226659  1
  Ba  Ba7  1  0.17155269  0.65781384  0.87530485  1
  Ba  Ba8  1  0.33179504  0.50724978  0.62716019  1
  Ba  Ba9  1  0.66676358  0.48614160  0.87543196  1
  Ba  Ba10  1  0.00027437  0.82661755  0.37558507  1
  Ba  Ba11  1  0.16653525  0.99263481  0.87613111  1
  Ba  Ba12  1  0.16295032  0.32363937  0.37437846  1
  Ba  Ba13  1  0.50240104  0.65656978  0.86987852  1
  Ba  Ba14  1  0.50168877  0.32320233  0.87806425  1
  Ba  Ba15  1  0.66762967  0.49314926  0.37064405  1
  Ba  Ba16  1  0.99738946  0.84304013  0.62531669  1
  Ba  Ba17  1  0.83524755  0.65715799  0.86988737  1
  Ba  Ba18  1  0.66654045  0.15567597  0.37512696  1
  Ba  Ba19  1  0.50681430  0.99304202  0.37566593  1
  Ba  Ba20  1  0.33386132  0.17435061  0.62437896  1
  Ba  Ba21  1  0.66070156  0.50732047  0.12328704  1
  Ba  Ba22  1  0.67087327  0.84238255  0.63089897  1
  Ba  Ba23  1  0.33541849  0.84217875  0.62880137  1
  Ba  Ba24  1  0.66763663  0.17322661  0.12743961  1
  Ba  Ba25  1  1.00207027  0.17138331  0.62456950  1
  Ba  Ba26  1  0.83161447  0.99225402  0.37150279  1
  Ba  Ba27  1  -0.00743320  0.49036595  0.37621790  1
  Ba  Ba28  1  0.99795762  0.16959432  0.12471314  1
  Ba  Ba29  1  -0.00805889  0.48644321  0.87591936  1
  Ba  Ba30  1  0.33567249  0.50657556  0.12584250  1
  Ba  Ba31  1  0.33188317  0.82999482  0.37396755  1
  Ba  Ba32  1  0.00094853  0.15746050  0.87098353  1
  Ba  Ba33  1  1.00207188  0.50998160  0.62840965  1
  Ba  Ba34  1  0.49854241  0.01533887  0.12101609  1
  Ba  Ba35  1  0.66513505  0.15685771  0.87589653  1
  La  La36  1  0.66892024  0.51243853  0.62615361  1
  La  La37  1  0.49900150  0.02036921  0.62699176  1
  La  La38  1  0.67077021  0.84741400  0.12331887  1
  La  La39  1  0.32628862  0.15403013  0.87533394  1
  La  La40  1  1.00305184  0.51791510  0.12741579  1
  La  La41  1  0.82698579  0.34959033  0.63180942  1
  La  La42  1  0.66056105  0.82148920  0.37326222  1
  La  La43  1  0.33319383  0.84846838  0.11928414  1
  La  La44  1  0.17078076  0.64829303  0.38054765  1
  La  La45  1  0.82526459  0.34625355  0.12167970  1
  La  La46  1  0.82725616  0.01113292  0.12184718  1
  La  La47  1  0.16354694  0.34741120  0.12493301  1
  La  La48  1  0.16591463  0.00854717  0.62891652  1
  La  La49  1  0.16109985  0.68324186  0.62566601  1
  La  La50  1  0.50598076  0.33910647  0.12380028  1
  La  La51  1  0.32794420  0.47991104  0.37511472  1
  La  La52  1  0.50522521  0.99004354  0.87553821  1
  La  La53  1  0.83667811  0.31624783  0.87627826  1
  La  La54  1  0.50396750  0.65610801  0.37129349  1
  La  La55  1  0.15793541  0.68598476  0.12834314  1
  La  La56  1  0.83109922  0.67830704  0.62049837  1
  La  La57  1  0.49616209  0.68018314  0.62493450  1
  La  La58  1  0.34023105  0.18239193  0.12315750  1
  La  La59  1  -0.00371527  0.15023625  0.37355888  1
  La  La60  1  0.84277102  0.31791847  0.37712939  1
  La  La61  1  0.49603535  0.68438143  0.12520526  1
  La  La62  1  0.82918088  0.01703733  0.62472670  1
  La  La63  1  0.33157778  0.15137557  0.37383026  1
  La  La64  1  1.00167000  0.84352741  0.12597169  1
  La  La65  1  0.49941770  0.34672064  0.62717633  1
  La  La66  1  0.32946916  0.48160080  0.87509672  1
  La  La67  1  -0.00054981  0.82411460  0.87255648  1
  La  La68  1  0.84016982  0.98911229  0.87047054  1
  La  La69  1  0.32988262  0.81954088  0.87361481  1
  La  La70  1  0.66232549  0.81501351  0.87593759  1
  La  La71  1  0.16330703  1.00197212  0.38897442  1
  In  In72  1  -0.00499081  0.33162266  0.00475386  1
  In  In73  1  0.50066014  0.17036446  0.50008680  1
  In  In74  1  0.66835235  0.66785163  0.24639250  1
  In  In75  1  0.83192531  0.83339839  -0.00269216  1
  In  In76  1  0.50051999  0.83593804  -0.00042557  1
  In  In77  1  0.50173122  0.83728127  0.74791958  1
  In  In78  1  0.16642683  0.83550492  0.49956110  1
  In  In79  1  0.66693567  -0.00232947  0.50300181  1
  In  In80  1  0.16673275  0.16629754  0.75161968  1
  In  In81  1  0.16550636  0.50193799  0.75239047  1
  In  In82  1  0.33846436  -0.00131158  0.50360621  1
  In  In83  1  0.50038759  0.16904545  0.24942515  1
  In  In84  1  0.33527008  0.00084329  0.24786546  1
  In  In85  1  0.16781490  0.16856427  0.00573932  1
  In  In86  1  0.49680024  0.50135635  0.24887231  1
  In  In87  1  0.83088065  0.83478542  0.75040777  1
  In  In88  1  0.16630909  0.50145000  0.00169857  1
  In  In89  1  0.33698519  0.32995274  0.74923184  1
  In  In90  1  -0.00235753  0.33046676  0.24743142  1
  In  In91  1  0.83333897  0.16585905  0.24941531  1
  In  In92  1  0.33093004  0.66799665  0.25025695  1
  In  In93  1  0.00138832  0.66801598  -0.00302321  1
  In  In94  1  0.83143132  0.49877407  -0.00012135  1
  In  In95  1  0.33284798  0.66494412  0.00264141  1
  In  In96  1  0.33578146  0.66654138  0.49743183  1
  In  In97  1  0.16602450  0.49817835  0.50145926  1
  In  In98  1  0.49880488  0.50307514  0.50032457  1
  In  In99  1  0.49850226  0.50116922  -0.00176160  1
  In  In100  1  0.16506608  0.50056108  0.25043352  1
  In  In101  1  0.83128768  0.83616519  0.49707621  1
  In  In102  1  0.16733324  0.17129165  0.49928141  1
  In  In103  1  0.66898649  0.33516076  0.49881523  1
  In  In104  1  0.83194482  0.49992198  0.50041541  1
  In  In105  1  0.00032362  0.66819915  0.49964274  1
  In  In106  1  -0.00108341  -0.00107723  -0.00072956  1
  In  In107  1  0.16709584  0.83623997  0.25273557  1
  Ir  Ir108  1  0.83063651  0.16607209  0.74923116  1
  Ir  Ir109  1  0.33813115  0.00219213  -0.00526815  1
  Ir  Ir110  1  0.33575161  0.33241772  0.49801890  1
  Ir  Ir111  1  0.50295225  0.83489680  0.24895569  1
  Ir  Ir112  1  0.33794127  0.00100687  0.75371872  1
  Ir  Ir113  1  0.83118521  0.49972328  0.74873201  1
  Ir  Ir114  1  0.66361413  0.66767866  -0.00291784  1
  Ir  Ir115  1  0.50274151  0.50030751  0.74855038  1
  Ir  Ir116  1  -0.00546532  0.32955305  0.50258060  1
  Ir  Ir117  1  -0.00175620  0.67076480  0.24703008  1
  Ir  Ir118  1  -0.00071762  -0.00232738  0.74728483  1
  Ir  Ir119  1  0.50398093  0.83144046  0.49843970  1
  Ir  Ir120  1  0.66565895  0.66212978  0.74758916  1
  Ir  Ir121  1  0.50120907  0.16639540  0.75470722  1
  Ir  Ir122  1  0.16906124  0.83591546  -0.00229790  1
  Ir  Ir123  1  0.66691894  0.32829246  0.00085169  1
  Ir  Ir124  1  0.66467920  0.33374616  0.75214225  1
  Ir  Ir125  1  -0.00211100  -0.00253968  0.24948600  1
  Ir  Ir126  1  0.16911892  0.83434978  0.75392278  1
  Ir  Ir127  1  0.33103851  0.32822233  0.25084350  1
  Ir  Ir128  1  0.67273207  0.33496458  0.24826610  1
  Ir  Ir129  1  -0.00895533  0.32986656  0.74844257  1
  Ir  Ir130  1  0.83455278  0.49697324  0.24901579  1
  Ir  Ir131  1  0.33393488  0.32968239  0.00331788  1
  Ir  Ir132  1  0.66915112  0.00033545  -0.00352787  1
  Ir  Ir133  1  0.83753805  0.16892123  0.50376208  1
  Ir  Ir134  1  0.16797581  0.16356603  0.25107307  1
  Ir  Ir135  1  0.66781633  -0.00600946  0.24572301  1
  Ir  Ir136  1  0.49799601  0.16810763  -0.00270273  1
  Ir  Ir137  1  0.82841309  0.16210812  -0.00362549  1
  Ir  Ir138  1  0.33552487  0.66734951  0.75026312  1
  Ir  Ir139  1  0.66262016  0.66925151  0.50121770  1
  Ir  Ir140  1  0.83382931  0.83523781  0.24579102  1
  Ir  Ir141  1  -0.00150379  0.00345368  0.50140281  1
  Ir  Ir142  1  0.66831005  0.00276711  0.75586159  1
  Ir  Ir143  1  0.00054899  0.67029737  0.75009281  1
  O  O144  1  0.30172633  0.31997115  0.12854860  1
  O  O145  1  0.31430089  0.33229018  0.61733490  1
  O  O146  1  0.29112584  0.66591827  0.12532914  1
  O  O147  1  0.30125580  0.66643716  0.63182737  1
  O  O148  1  0.31921402  0.99024282  0.11447822  1
  O  O149  1  0.30434489  0.99782594  0.63588718  1
  O  O150  1  0.64048026  0.32810643  0.12500204  1
  O  O151  1  0.63617179  0.33381917  0.63353771  1
  O  O152  1  0.63560402  0.66892844  0.11748769  1
  O  O153  1  0.63311076  0.65466086  0.62471028  1
  O  O154  1  0.64498202  0.98534128  0.12013857  1
  O  O155  1  0.63547239  0.99831756  0.63766239  1
  O  O156  1  0.95633233  0.31910751  0.12701417  1
  O  O157  1  0.96345026  0.32837407  0.62552263  1
  O  O158  1  0.98075909  0.67344980  0.12833676  1
  O  O159  1  0.96838554  0.66880897  0.63344272  1
  O  O160  1  0.96479672  0.98798669  0.12891234  1
  O  O161  1  0.96716219  1.00135720  0.62246043  1
  O  O162  1  0.20314926  0.15919405  0.13351534  1
  O  O163  1  0.18188907  0.15025555  0.62538387  1
  O  O164  1  0.18916399  0.48470902  0.12688472  1
  O  O165  1  0.18040052  0.49630023  0.62745906  1
  O  O166  1  0.19637946  0.82585486  0.11795083  1
  O  O167  1  0.18764504  0.82510194  0.63391392  1
  O  O168  1  0.51702775  0.17206815  0.11853229  1
  O  O169  1  0.52114763  0.15878409  0.63598705  1
  O  O170  1  0.51054050  0.47565997  0.12413700  1
  O  O171  1  0.53260708  0.48944421  0.62987883  1
  O  O172  1  0.53408682  0.82767610  0.12890102  1
  O  O173  1  0.52415829  0.82019981  0.61950475  1
  O  O174  1  0.84687678  0.15020622  0.11818652  1
  O  O175  1  0.85517171  0.15311099  0.62742263  1
  O  O176  1  0.86335962  0.48657746  0.12999351  1
  O  O177  1  0.85227853  0.49042119  0.63036448  1
  O  O178  1  0.86432979  0.83498412  0.12626175  1
  O  O179  1  0.84461823  0.81693672  0.62661907  1
  O  O180  1  0.13451135  0.16667793  0.36952910  1
  O  O181  1  0.15497773  0.16893558  0.87788783  1
  O  O182  1  0.14062576  0.50787945  0.37544907  1
  O  O183  1  0.14254975  0.49745049  0.87646118  1
  O  O184  1  0.14784355  0.86675303  0.37438301  1
  O  O185  1  0.13699519  0.83850088  0.87562159  1
  O  O186  1  0.46821517  0.16911557  0.37334654  1
  O  O187  1  0.46721743  0.16594376  0.87521719  1
  O  O188  1  0.46464524  0.51527793  0.37399501  1
  O  O189  1  0.46832129  0.50292875  0.86872834  1
  O  O190  1  0.48130473  0.83948502  0.37364643  1
  O  O191  1  0.46975560  0.84545252  0.87278125  1
  O  O192  1  0.81548014  0.17746920  0.38249638  1
  O  O193  1  0.81092591  0.17830262  0.87254622  1
  O  O194  1  0.81677477  0.50225557  0.36962027  1
  O  O195  1  0.81654195  0.50284739  0.86898358  1
  O  O196  1  0.79901113  0.83693082  0.36629604  1
  O  O197  1  0.79443028  0.84830420  0.87272566  1
  O  O198  1  0.02739920  0.00852284  0.37543887  1
  O  O199  1  0.01679988  -0.00018908  0.86680551  1
  O  O200  1  0.01146357  0.33262915  0.38205318  1
  O  O201  1  0.00725983  0.32786605  0.86982796  1
  O  O202  1  0.02962631  0.66732815  0.36614541  1
  O  O203  1  0.02471337  0.67927327  0.86865009  1
  O  O204  1  0.35595577  0.01096775  0.37436412  1
  O  O205  1  0.36995368  0.01332597  0.87390791  1
  O  O206  1  0.35627825  0.33774759  0.37391206  1
  O  O207  1  0.35181576  0.33690229  0.88264535  1
  O  O208  1  0.37275910  0.67897540  0.37235822  1
  O  O209  1  0.35604340  0.68197806  0.87120054  1
  O  O210  1  0.68066054  -0.00721117  0.36763708  1
  O  O211  1  0.70367662  0.00538658  0.87647945  1
  O  O212  1  0.70526562  0.33762726  0.36801380  1
  O  O213  1  0.69761062  0.33079256  0.87769670  1
  O  O214  1  0.68424878  0.68133636  0.37934671  1
  O  O215  1  0.68785789  0.67720702  0.87308535  1
  O  O216  1  0.07552396  0.08857091  0.01653473  1
  O  O217  1  0.07270648  0.08917252  0.50733084  1
  O  O218  1  0.06359665  0.43137806  0.03035542  1
  O  O219  1  0.06370651  0.41983661  0.51697280  1
  O  O220  1  0.07698999  0.76833595  0.02259423  1
  O  O221  1  0.07526820  0.76150806  0.52127952  1
  O  O222  1  0.39974457  0.10298878  0.01662144  1
  O  O223  1  0.41359118  0.08928564  0.52583598  1
  O  O224  1  0.39922073  0.42301078  0.00903267  1
  O  O225  1  0.40367911  0.42407833  0.51391935  1
  O  O226  1  0.40573581  0.76490305  0.02872797  1
  O  O227  1  0.41323492  0.76479324  0.51937071  1
  O  O228  1  0.73802948  0.08994806  0.02098557  1
  O  O229  1  0.74958018  0.09494276  0.51872240  1
  O  O230  1  0.73696249  0.41738835  0.02173781  1
  O  O231  1  0.73771655  0.43010015  0.53227272  1
  O  O232  1  0.72911217  0.76496568  0.01644934  1
  O  O233  1  0.73282839  0.75628368  0.51727640  1
  O  O234  1  0.09907194  0.26795869  0.02627291  1
  O  O235  1  0.08717207  0.26195403  0.51745160  1
  O  O236  1  0.09964653  0.60201998  0.03001051  1
  O  O237  1  0.10370328  0.60468937  0.52006567  1
  O  O238  1  0.09195104  0.91738784  0.02164312  1
  O  O239  1  0.09376335  0.94006150  0.52635291  1
  O  O240  1  0.43178120  0.26464970  0.02637933  1
  O  O241  1  0.43102470  0.27014698  0.52521241  1
  O  O242  1  0.43634363  0.60322988  0.02629182  1
  O  O243  1  0.43466492  0.60175699  0.53108701  1
  O  O244  1  0.42863070  0.93405399  0.01093166  1
  O  O245  1  0.44351958  0.92766615  0.52522065  1
  O  O246  1  0.76450541  0.26110040  0.01870724  1
  O  O247  1  0.77459934  0.26516880  0.52459204  1
  O  O248  1  0.75283367  0.59570045  0.01312372  1
  O  O249  1  0.75429862  0.59990969  0.52786643  1
  O  O250  1  0.76124376  0.93321780  0.02385665  1
  O  O251  1  0.76507780  0.93362661  0.52780722  1
  O  O252  1  0.23077938  0.07004547  0.28006380  1
  O  O253  1  0.24954626  0.07014450  0.77239471  1
  O  O254  1  0.24103212  0.39737666  0.26672750  1
  O  O255  1  0.25205900  0.41395549  0.77076790  1
  O  O256  1  0.22391822  0.73009239  0.27583665  1
  O  O257  1  0.24612289  0.74523113  0.77702273  1
  O  O258  1  0.58073170  0.07121458  0.25860307  1
  O  O259  1  0.56660573  0.06697638  0.77632546  1
  O  O260  1  0.58198004  0.40542807  0.26175243  1
  O  O261  1  0.57132484  0.40570315  0.77130491  1
  O  O262  1  0.56756099  0.74205451  0.27243621  1
  O  O263  1  0.58209489  0.74332331  0.76643593  1
  O  O264  1  0.91416513  0.07380693  0.26901616  1
  O  O265  1  0.89795829  0.06570794  0.76725651  1
  O  O266  1  0.89524964  0.40072661  0.27179000  1
  O  O267  1  0.89291137  0.39765490  0.76783152  1
  O  O268  1  0.90467206  0.74279588  0.26873247  1
  O  O269  1  0.91723346  0.74813309  0.77461326  1
  O  O270  1  0.26770124  0.22623247  0.27193407  1
  O  O271  1  0.26784867  0.23393647  0.77019086  1
  O  O272  1  0.26362914  0.56788928  0.28289750  1
  O  O273  1  0.27151270  0.57540268  0.77543346  1
  O  O274  1  0.26925809  0.90093213  0.24509972  1
  O  O275  1  0.26817086  0.90451460  0.77948654  1
  O  O276  1  0.59915327  0.24719043  0.26678466  1
  O  O277  1  0.59449233  0.23807600  0.77233389  1
  O  O278  1  0.58871355  0.58040246  0.26933221  1
  O  O279  1  0.59629464  0.56982928  0.76385161  1
  O  O280  1  0.60501256  0.89469379  0.26432119  1
  O  O281  1  0.60122534  0.91042012  0.78327316  1
  O  O282  1  0.93021772  0.23341003  0.27916057  1
  O  O283  1  0.91818747  0.24021251  0.76970637  1
  O  O284  1  0.93185193  0.56833795  0.25649071  1
  O  O285  1  0.92797099  0.57621305  0.76943404  1
  O  O286  1  0.92752821  0.90503348  0.26907685  1
  O  O287  1  0.92880862  0.90834371  0.77454173  1
  O  O288  1  0.27093990  0.23809550  0.47444033  1
  O  O289  1  0.27733436  0.23135154  0.98862316  1
  O  O290  1  0.26736260  0.56786903  0.47015353  1
  O  O291  1  0.27140269  0.56271257  0.97239964  1
  O  O292  1  0.25714996  0.91325677  0.49105022  1
  O  O293  1  0.27266827  0.90256339  0.97697280  1
  O  O294  1  0.59702731  0.24127512  0.48421158  1
  O  O295  1  0.59401498  0.23641227  0.98415016  1
  O  O296  1  0.59484150  0.58123679  0.47974894  1
  O  O297  1  0.59626339  0.57647884  0.97988157  1
  O  O298  1  0.60107942  0.89162746  0.48041721  1
  O  O299  1  0.60179556  0.90727655  0.97251457  1
  O  O300  1  0.93132415  0.23366027  0.47648363  1
  O  O301  1  0.91815600  0.23017332  0.98016655  1
  O  O302  1  0.92418028  0.57429363  0.49060686  1
  O  O303  1  0.93086946  0.56918253  0.99967261  1
  O  O304  1  0.92811119  0.91552697  0.48456255  1
  O  O305  1  0.92706040  0.90598985  0.96634997  1
  O  O306  1  0.24208129  0.07767716  0.47693723  1
  O  O307  1  0.25069649  0.07253362  0.97955213  1
  O  O308  1  0.24563692  0.40270517  0.47762914  1
  O  O309  1  0.23988788  0.39371574  0.99019002  1
  O  O310  1  0.23403636  0.73300141  0.47720848  1
  O  O311  1  0.24269183  0.75138261  0.97660021  1
  O  O312  1  0.57510912  0.07137348  0.49537570  1
  O  O313  1  0.56733820  0.06808392  0.97440690  1
  O  O314  1  0.57540240  0.41179211  0.48499817  1
  O  O315  1  0.57634093  0.39962900  0.99058451  1
  O  O316  1  0.56688496  0.73451971  0.47358867  1
  O  O317  1  0.57681159  0.74173449  0.97759380  1
  O  O318  1  0.90775023  0.07618479  0.47736303  1
  O  O319  1  0.89147517  0.06546904  0.97984815  1
  O  O320  1  0.89715775  0.39223871  0.48628537  1
  O  O321  1  0.89226658  0.39416660  0.98061066  1
  O  O322  1  0.90312282  0.74088216  0.48776890  1
  O  O323  1  0.91214586  0.74686716  0.97412521  1
  O  O324  1  0.10448903  0.25863420  0.22484875  1
  O  O325  1  0.08135061  0.25814013  0.73482756  1
  O  O326  1  0.09019736  0.60176053  0.22225623  1
  O  O327  1  0.09363049  0.60372239  0.72642041  1
  O  O328  1  0.08012998  0.92164114  0.22104677  1
  O  O329  1  0.09830650  0.92940086  0.72605065  1
  O  O330  1  0.42547319  0.26686163  0.22251399  1
  O  O331  1  0.43957185  0.26185106  0.72854487  1
  O  O332  1  0.43322936  0.60489983  0.21920913  1
  O  O333  1  0.43297084  0.59773317  0.72328855  1
  O  O334  1  0.43648091  0.92495943  0.23039510  1
  O  O335  1  0.43375412  0.93846480  0.72877596  1
  O  O336  1  0.76506434  0.26634370  0.22806853  1
  O  O337  1  0.76396704  0.26703812  0.73041437  1
  O  O338  1  0.76347366  0.58824031  0.23229793  1
  O  O339  1  0.76030440  0.59193277  0.71776851  1
  O  O340  1  0.76280271  0.92449817  0.21636506  1
  O  O341  1  0.76434028  0.94101617  0.73000358  1
  O  O342  1  0.07036824  0.09462062  0.23580536  1
  O  O343  1  0.07656145  0.08055301  0.72864726  1
  O  O344  1  0.06735344  0.42656251  0.22270894  1
  O  O345  1  0.06438976  0.41646806  0.73769639  1
  O  O346  1  0.06552001  0.76355102  0.22452109  1
  O  O347  1  0.07667697  0.76008588  0.72749932  1
  O  O348  1  0.39720857  0.10336881  0.22735303  1
  O  O349  1  0.40881545  0.09382522  0.73120224  1
  O  O350  1  0.39784155  0.42145301  0.24178091  1
  O  O351  1  0.41814276  0.42499582  0.72902653  1
  O  O352  1  0.40877884  0.77105439  0.21833581  1
  O  O353  1  0.41016933  0.75442030  0.73091265  1
  O  O354  1  0.74445649  0.08094853  0.23257141  1
  O  O355  1  0.74097212  0.09255745  0.72840030  1
  O  O356  1  0.74442151  0.42610586  0.22217919  1
  O  O357  1  0.73453315  0.42963923  0.72391218  1
  O  O358  1  0.73824176  0.76936224  0.22336579  1
  O  O359  1  0.74196820  0.74661462  0.73460480  1
