# generated using pymatgen
data_BaLaInIrO6
_symmetry_space_group_name_H-M   'P 1'
_cell_length_a   17.52588737
_cell_length_b   17.55641205
_cell_length_c   16.51184030
_cell_angle_alpha   89.97587794
_cell_angle_beta   89.97762811
_cell_angle_gamma   89.96216310
_symmetry_Int_Tables_number   1
_chemical_formula_structural   BaLaInIrO6
_chemical_formula_sum   'Ba36 La36 In36 Ir36 O216'
_cell_volume   5080.55427011
_cell_formula_units_Z   36
loop_
 _symmetry_equiv_pos_site_id
 _symmetry_equiv_pos_as_xyz
  1  'x, y, z'
loop_
 _atom_site_type_symbol
 _atom_site_label
 _atom_site_symmetry_multiplicity
 _atom_site_fract_x
 _atom_site_fract_y
 _atom_site_fract_z
 _atom_site_occupancy
  Ba  Ba0  1  0.83126621  0.66211557  0.87482763  1
  Ba  Ba1  1  0.83999188  0.99530409  0.87624092  1
  Ba  Ba2  1  0.50375780  0.65458653  0.37485400  1
  Ba  Ba3  1  0.66982610  0.83816649  0.62458876  1
  Ba  Ba4  1  1.00244772  0.17254744  0.62963442  1
  Ba  Ba5  1  -0.00027256  0.16311029  0.87350889  1
  Ba  Ba6  1  0.16646876  0.33772765  0.12537528  1
  Ba  Ba7  1  0.16492770  0.32268259  0.87188879  1
  Ba  Ba8  1  0.34109025  0.84739778  0.62332251  1
  Ba  Ba9  1  0.33566685  0.82484192  0.37476988  1
  Ba  Ba10  1  0.33360664  0.16024213  0.37480623  1
  Ba  Ba11  1  0.99942599  0.50624866  0.62352145  1
  Ba  Ba12  1  0.83421662  0.65672369  0.37995984  1
  Ba  Ba13  1  0.50076234  0.65490706  0.87151777  1
  Ba  Ba14  1  0.66483746  0.48800145  0.37720598  1
  Ba  Ba15  1  0.83176720  0.33018996  0.87428673  1
  Ba  Ba16  1  0.50017313  0.34144008  0.12641122  1
  Ba  Ba17  1  0.83085830  0.34349633  0.12201206  1
  Ba  Ba18  1  0.00445588  0.82214725  0.87467803  1
  Ba  Ba19  1  0.99496947  0.84249442  0.12888401  1
  Ba  Ba20  1  0.67327662  0.84429742  0.13056888  1
  Ba  Ba21  1  1.00396451  0.50539537  0.12308301  1
  Ba  Ba22  1  0.66022656  0.16007911  0.37325458  1
  Ba  Ba23  1  0.83187282  0.67322881  0.62686492  1
  Ba  Ba24  1  0.50047081  0.01071473  0.13083891  1
  Ba  Ba25  1  0.50310067  0.32519690  0.37022648  1
  Ba  Ba26  1  0.99836264  0.83695616  0.62873448  1
  Ba  Ba27  1  0.33798722  0.50278733  0.12651157  1
  Ba  Ba28  1  0.66336849  0.81925467  0.37253382  1
  Ba  Ba29  1  0.16464365  0.32696484  0.37361526  1
  Ba  Ba30  1  0.50033337  0.67700106  0.62229832  1
  Ba  Ba31  1  0.66302836  0.49015138  0.87130571  1
  Ba  Ba32  1  0.16900211  0.00988388  0.62590229  1
  Ba  Ba33  1  0.66945166  0.50629353  0.12623022  1
  Ba  Ba34  1  0.33312357  0.17899429  0.62348717  1
  Ba  Ba35  1  0.16325230  0.99668622  0.87219539  1
  La  La36  1  0.66099604  0.81293604  0.87788669  1
  La  La37  1  0.16493242  0.34133129  0.62404443  1
  La  La38  1  0.17322186  0.65167895  0.37714094  1
  La  La39  1  0.83360869  0.98079058  0.37316844  1
  La  La40  1  0.33407385  0.48514268  0.37471471  1
  La  La41  1  0.50615007  0.98690359  0.38149490  1
  La  La42  1  0.49982579  0.67868839  0.12461295  1
  La  La43  1  0.16496993  0.68147056  0.62600195  1
  La  La44  1  0.16708654  0.98842933  0.38025677  1
  La  La45  1  0.33962033  0.17921617  0.12316473  1
  La  La46  1  0.33636704  0.51297961  0.61905953  1
  La  La47  1  0.82679759  0.34999898  0.62392966  1
  La  La48  1  0.32553350  0.81639005  0.87602976  1
  La  La49  1  0.82772225  0.01865713  0.12771170  1
  La  La50  1  0.66712920  0.18718408  0.62280256  1
  La  La51  1  0.82883369  0.67836492  0.12253289  1
  La  La52  1  -0.00697925  0.14992519  0.37490942  1
  La  La53  1  0.99753616  0.17750271  0.11912469  1
  La  La54  1  -0.00213009  0.48469472  0.37624738  1
  La  La55  1  0.49289750  0.01619874  0.62348199  1
  La  La56  1  0.50667889  0.98435558  0.87842387  1
  La  La57  1  0.66987675  0.51568890  0.62224841  1
  La  La58  1  0.15968415  0.68294577  0.12443521  1
  La  La59  1  -0.00366271  0.48930758  0.87704151  1
  La  La60  1  0.33925950  0.84569068  0.12357512  1
  La  La61  1  0.66186554  0.15685126  0.87458472  1
  La  La62  1  0.32878013  0.48004086  0.86782028  1
  La  La63  1  0.49496277  0.34853688  0.61779299  1
  La  La64  1  0.17371966  0.65165533  0.87245972  1
  La  La65  1  0.83115184  0.01903372  0.62532916  1
  La  La66  1  0.67026870  0.18580050  0.12816638  1
  La  La67  1  0.32760275  0.15508068  0.87420629  1
  La  La68  1  0.83472566  0.32389871  0.37328346  1
  La  La69  1  0.16460403  0.01481402  0.12883038  1
  La  La70  1  -0.00412553  0.81603741  0.37863584  1
  La  La71  1  0.50622886  0.32080414  0.87604238  1
  In  In72  1  0.16901580  0.83597307  0.00316090  1
  In  In73  1  -0.00160051  0.33030439  0.25187095  1
  In  In74  1  0.66355550  0.66467129  0.74969774  1
  In  In75  1  0.49931327  0.50149051  -0.00081051  1
  In  In76  1  0.33059789  0.00190492  0.25253799  1
  In  In77  1  0.83246524  0.83701921  -0.00010254  1
  In  In78  1  0.33080450  0.66516874  0.24880349  1
  In  In79  1  0.83398911  0.50004782  0.25055971  1
  In  In80  1  0.00004546  0.33351140  -0.00187195  1
  In  In81  1  0.66615734  0.00273043  0.50363258  1
  In  In82  1  0.33471819  0.33129430  -0.00474927  1
  In  In83  1  0.49896747  0.83574278  0.75172224  1
  In  In84  1  0.82735725  0.17319047  0.74711073  1
  In  In85  1  0.82928949  0.16849266  -0.00154523  1
  In  In86  1  0.50064910  0.83370796  0.24787817  1
  In  In87  1  0.66355706  0.00293769  0.74959381  1
  In  In88  1  0.33658956  -0.00097520  -0.00065827  1
  In  In89  1  0.33489085  0.66440656  0.74713372  1
  In  In90  1  0.17006576  0.83269986  0.49844573  1
  In  In91  1  0.00094781  -0.00015797  0.00419682  1
  In  In92  1  -0.00094814  0.66654222  0.00190005  1
  In  In93  1  -0.00177489  0.33030754  0.50401060  1
  In  In94  1  0.16830438  0.50134399  0.25001988  1
  In  In95  1  0.83438938  0.83323404  0.50105259  1
  In  In96  1  0.16934344  0.49976542  -0.00272764  1
  In  In97  1  0.82905651  0.83903132  0.75134416  1
  In  In98  1  -0.00097460  -0.00154331  0.49859854  1
  In  In99  1  0.50002646  0.16970341  0.49870823  1
  In  In100  1  0.16563518  0.16809144  0.49845317  1
  In  In101  1  0.66743675  0.00203104  0.00276110  1
  In  In102  1  -0.00209283  -0.00077062  0.74957955  1
  In  In103  1  0.33207443  0.66255851  0.00077261  1
  In  In104  1  0.00109280  0.66308868  0.25272068  1
  In  In105  1  0.83438998  0.50161714  0.75059353  1
  In  In106  1  0.33287039  0.32958791  0.25218013  1
  In  In107  1  0.17130108  0.83599282  0.74927932  1
  Ir  Ir108  1  0.50152530  0.83301092  0.49943389  1
  Ir  Ir109  1  0.83162313  0.16418644  0.25785173  1
  Ir  Ir110  1  0.16076740  0.16204311  0.24721765  1
  Ir  Ir111  1  0.66474578  0.33297477  -0.00477246  1
  Ir  Ir112  1  0.16853297  0.49579390  0.74421956  1
  Ir  Ir113  1  0.66825827  0.00416386  0.25298156  1
  Ir  Ir114  1  0.50402417  0.50116192  0.25074100  1
  Ir  Ir115  1  0.66656818  0.33580108  0.50239001  1
  Ir  Ir116  1  0.33715928  0.33342780  0.74426578  1
  Ir  Ir117  1  0.34297956  0.00781459  0.75097082  1
  Ir  Ir118  1  0.00068062  0.33498884  0.74572330  1
  Ir  Ir119  1  0.33433957  0.66249831  0.49720196  1
  Ir  Ir120  1  0.49592629  0.49358021  0.74312286  1
  Ir  Ir121  1  0.33819314  0.00138633  0.49972287  1
  Ir  Ir122  1  0.00713412  0.66114885  0.50287491  1
  Ir  Ir123  1  0.83062249  0.49796158  0.49958879  1
  Ir  Ir124  1  0.49790284  0.17048728  0.75409528  1
  Ir  Ir125  1  0.50230173  0.16521389  0.24494552  1
  Ir  Ir126  1  0.16994543  0.50145357  0.50332538  1
  Ir  Ir127  1  0.66810170  0.33165616  0.24965248  1
  Ir  Ir128  1  0.17081548  0.16389311  0.00238894  1
  Ir  Ir129  1  0.66658822  0.66411971  0.24890547  1
  Ir  Ir130  1  0.16385547  0.83591391  0.25345804  1
  Ir  Ir131  1  0.66439006  0.66321867  0.49578354  1
  Ir  Ir132  1  0.83484940  0.83365950  0.25421073  1
  Ir  Ir133  1  0.17263953  0.16972612  0.75238711  1
  Ir  Ir134  1  0.49920353  0.16786957  -0.00184834  1
  Ir  Ir135  1  0.50000166  0.83309141  0.00104973  1
  Ir  Ir136  1  0.82858974  0.17015752  0.49532483  1
  Ir  Ir137  1  0.66359220  0.66580870  0.00493785  1
  Ir  Ir138  1  0.65855058  0.33387658  0.74598135  1
  Ir  Ir139  1  0.83127070  0.50150229  -0.00198137  1
  Ir  Ir140  1  0.49992134  0.49816570  0.50104357  1
  Ir  Ir141  1  0.33183660  0.33799506  0.50233879  1
  Ir  Ir142  1  0.00819750  0.65964773  0.74783085  1
  Ir  Ir143  1  -0.00122383  0.00024051  0.25157548  1
  O  O144  1  0.31773787  0.31968431  0.12438935  1
  O  O145  1  0.30300538  0.33569486  0.62375344  1
  O  O146  1  0.29310833  0.65630938  0.12577605  1
  O  O147  1  0.30322788  0.65293425  0.61695183  1
  O  O148  1  0.30259710  0.98955465  0.12618534  1
  O  O149  1  0.31907516  1.00281991  0.62649750  1
  O  O150  1  0.64572868  0.32356613  0.12222411  1
  O  O151  1  0.63049790  0.32749211  0.62497502  1
  O  O152  1  0.63686730  0.66521963  0.12786379  1
  O  O153  1  0.65079883  0.66068320  0.61653861  1
  O  O154  1  0.64784608  1.00137792  0.13472632  1
  O  O155  1  0.62470818  0.99560510  0.62629367  1
  O  O156  1  0.98399087  0.32107337  0.12582944  1
  O  O157  1  0.96632015  0.33312098  0.62779535  1
  O  O158  1  0.96427633  0.65884665  0.12998317  1
  O  O159  1  0.98168905  0.65973489  0.62408825  1
  O  O160  1  0.96452640  0.99802666  0.13753810  1
  O  O161  1  0.96497849  0.99842932  0.62051201  1
  O  O162  1  0.20115174  0.15658058  0.12505113  1
  O  O163  1  0.18623038  0.16991072  0.63187638  1
  O  O164  1  0.18799985  0.49033816  0.12386330  1
  O  O165  1  0.20277646  0.48432220  0.62338657  1
  O  O166  1  0.20287079  0.82390110  0.13634835  1
  O  O167  1  0.19316615  0.81848827  0.62325795  1
  O  O168  1  0.53277057  0.16401632  0.11946857  1
  O  O169  1  0.52931175  0.15808798  0.63329101  1
  O  O170  1  0.51973551  0.49516137  0.13133667  1
  O  O171  1  0.53113640  0.48487294  0.62280441  1
  O  O172  1  0.52433564  0.82584291  0.11902354  1
  O  O173  1  0.51700228  0.83612126  0.61872707  1
  O  O174  1  0.86036653  0.15869126  0.13984693  1
  O  O175  1  0.85017634  0.16371526  0.61313924  1
  O  O176  1  0.85001490  0.50375337  0.11767691  1
  O  O177  1  0.84720424  0.49175611  0.62017577  1
  O  O178  1  0.84551073  0.81888702  0.13472969  1
  O  O179  1  0.84729160  0.82409195  0.62417744  1
  O  O180  1  0.13038447  0.16835615  0.36558524  1
  O  O181  1  0.15026924  0.16605417  0.87856136  1
  O  O182  1  0.13445126  0.51428210  0.38644796  1
  O  O183  1  0.13323676  0.50821417  0.85972014  1
  O  O184  1  0.13106669  0.84612893  0.37128998  1
  O  O185  1  0.15685930  0.84223773  0.87510366  1
  O  O186  1  0.48378736  0.16904444  0.36616618  1
  O  O187  1  0.46501934  0.18291520  0.87615416  1
  O  O188  1  0.47216327  0.50174830  0.37820504  1
  O  O189  1  0.46745510  0.49915746  0.86229456  1
  O  O190  1  0.48476954  0.84025147  0.37845641  1
  O  O191  1  0.46564376  0.84135599  0.88341960  1
  O  O192  1  0.80547501  0.18322257  0.37683547  1
  O  O193  1  0.79808710  0.17308838  0.87284074  1
  O  O194  1  0.81438065  0.49711595  0.38167393  1
  O  O195  1  0.81276165  0.49889963  0.87864005  1
  O  O196  1  0.81195331  0.84181921  0.37310195  1
  O  O197  1  0.79239629  0.84191408  0.87801728  1
  O  O198  1  0.03121177  0.01180610  0.36740094  1
  O  O199  1  0.01419695  0.01307675  0.87720797  1
  O  O200  1  0.01320016  0.34412902  0.37998453  1
  O  O201  1  0.01663322  0.34414188  0.86521353  1
  O  O202  1  0.03479364  0.67064912  0.38341542  1
  O  O203  1  0.03554432  0.65806230  0.86710484  1
  O  O204  1  0.36755300  0.00299626  0.37992189  1
  O  O205  1  0.36998627  0.01822695  0.87146884  1
  O  O206  1  0.35483765  0.34037624  0.38249403  1
  O  O207  1  0.36914842  0.33748536  0.86247098  1
  O  O208  1  0.35589543  0.66834668  0.37986524  1
  O  O209  1  0.35593443  0.68058279  0.87393768  1
  O  O210  1  0.69591972  0.00542967  0.37137483  1
  O  O211  1  0.68801077  0.02309618  0.87695314  1
  O  O212  1  0.69753615  0.33378095  0.37763429  1
  O  O213  1  0.68349134  0.33310905  0.87013210  1
  O  O214  1  0.68504612  0.65900330  0.37127242  1
  O  O215  1  0.67847997  0.66931833  0.88385304  1
  O  O216  1  0.07864095  0.09830500  0.03471642  1
  O  O217  1  0.06537307  0.10038552  0.50479001  1
  O  O218  1  0.06948988  0.42985930  -0.00098418  1
  O  O219  1  0.08257540  0.42857208  0.51977788  1
  O  O220  1  0.07652535  0.75962798  0.02776847  1
  O  O221  1  0.07748061  0.74984529  0.52012643  1
  O  O222  1  0.40480536  0.10262487  0.02329591  1
  O  O223  1  0.40852525  0.09022338  0.51992482  1
  O  O224  1  0.40670972  0.42744444  0.00511882  1
  O  O225  1  0.40300603  0.43181031  0.52416752  1
  O  O226  1  0.40579122  0.76782928  0.02754603  1
  O  O227  1  0.40504799  0.75664295  0.51724132  1
  O  O228  1  0.73175610  0.10284279  0.03244034  1
  O  O229  1  0.73337372  0.10773884  0.52484178  1
  O  O230  1  0.73614861  0.42701809  0.01409731  1
  O  O231  1  0.73506346  0.42966916  0.52805984  1
  O  O232  1  0.73138664  0.75638848  0.01659120  1
  O  O233  1  0.73775683  0.75132880  0.50463740  1
  O  O234  1  0.09759385  0.25051032  0.01568065  1
  O  O235  1  0.09850524  0.26679274  0.52590883  1
  O  O236  1  0.10244219  0.60194943  0.01867434  1
  O  O237  1  0.10588814  0.59560183  0.52773579  1
  O  O238  1  0.10610737  0.93802061  0.03009885  1
  O  O239  1  0.09913539  0.92985506  0.50877397  1
  O  O240  1  0.43103363  0.25578831  0.01704855  1
  O  O241  1  0.42636763  0.26883753  0.52189084  1
  O  O242  1  0.43450313  0.60185312  0.02665887  1
  O  O243  1  0.42439095  0.58688375  0.52447335  1
  O  O244  1  0.43825725  0.92807998  0.01814155  1
  O  O245  1  0.43779887  0.93476407  0.51712854  1
  O  O246  1  0.75076567  0.26156902  0.01996516  1
  O  O247  1  0.76436003  0.27027959  0.52440763  1
  O  O248  1  0.76164467  0.60061852  0.02336990  1
  O  O249  1  0.75488014  0.58821502  0.52087162  1
  O  O250  1  0.76668585  0.93714108  0.03121370  1
  O  O251  1  0.76935077  0.94020485  0.51611752  1
  O  O252  1  0.22679053  0.06985974  0.27268031  1
  O  O253  1  0.24922425  0.08088295  0.77581742  1
  O  O254  1  0.24955508  0.41229693  0.27528604  1
  O  O255  1  0.24333754  0.40418207  0.76885841  1
  O  O256  1  0.22853217  0.74240566  0.27900126  1
  O  O257  1  0.23557342  0.73170113  0.77017667  1
  O  O258  1  0.57060937  0.06908055  0.27402631  1
  O  O259  1  0.56059674  0.07850063  0.78399185  1
  O  O260  1  0.57627068  0.40617710  0.26741681  1
  O  O261  1  0.55959925  0.39645630  0.76800035  1
  O  O262  1  0.57571684  0.73580405  0.26004097  1
  O  O263  1  0.57608706  0.74416413  0.76887789  1
  O  O264  1  0.90195482  0.06829680  0.28267429  1
  O  O265  1  0.90073376  0.07858019  0.75103238  1
  O  O266  1  0.89829917  0.39891063  0.27324063  1
  O  O267  1  0.91300980  0.40944079  0.76298696  1
  O  O268  1  0.91100156  0.74779204  0.27851774  1
  O  O269  1  0.92113456  0.72861678  0.76502012  1
  O  O270  1  0.25081244  0.23241171  0.26325589  1
  O  O271  1  0.27069342  0.23949715  0.77342620  1
  O  O272  1  0.26356440  0.57191239  0.28937201  1
  O  O273  1  0.25955904  0.56322820  0.76929269  1
  O  O274  1  0.24618944  0.91059326  0.27973884  1
  O  O275  1  0.28106034  0.91136700  0.77196193  1
  O  O276  1  0.59751667  0.23538241  0.25575327  1
  O  O277  1  0.59227166  0.23715572  0.77610747  1
  O  O278  1  0.59599603  0.57124451  0.26640985  1
  O  O279  1  0.58603506  0.56412221  0.75464528  1
  O  O280  1  0.59112118  0.91838199  0.27293393  1
  O  O281  1  0.59423968  0.90650834  0.78955916  1
  O  O282  1  0.92384239  0.23115380  0.28036120  1
  O  O283  1  0.92488668  0.25124421  0.76411603  1
  O  O284  1  0.93623742  0.56275542  0.27962204  1
  O  O285  1  0.93781152  0.56905941  0.76960785  1
  O  O286  1  0.92971098  0.90587439  0.28240883  1
  O  O287  1  0.92765033  0.90208469  0.77112908  1
  O  O288  1  0.26122478  0.24792315  0.48268586  1
  O  O289  1  0.26712617  0.22826997  0.98065639  1
  O  O290  1  0.26644650  0.56766306  0.47529444  1
  O  O291  1  0.26396438  0.56752548  0.95573873  1
  O  O292  1  0.26475348  0.91423891  0.47942409  1
  O  O293  1  0.28031446  0.89253618  0.98681191  1
  O  O294  1  0.59956659  0.24236603  0.49161556  1
  O  O295  1  0.59475840  0.23665568  0.97215630  1
  O  O296  1  0.59580437  0.56443741  0.49260027  1
  O  O297  1  0.59712389  0.57445243  0.98747024  1
  O  O298  1  0.58890558  0.90487565  0.47840985  1
  O  O299  1  0.59397276  0.90081177  0.97426475  1
  O  O300  1  0.92357913  0.23349702  0.47030872  1
  O  O301  1  0.92597642  0.23977243  0.99111482  1
  O  O302  1  0.93185195  0.56300214  0.47867681  1
  O  O303  1  0.92590989  0.56514944  0.97476117  1
  O  O304  1  0.93015769  0.90378028  0.46417702  1
  O  O305  1  0.93277012  0.90182794  0.98849059  1
  O  O306  1  0.24167045  0.06901233  0.47664262  1
  O  O307  1  0.24089642  0.07528387  0.98459520  1
  O  O308  1  0.24261961  0.41217628  0.47630192  1
  O  O309  1  0.24633268  0.40750524  0.96692850  1
  O  O310  1  0.24058344  0.72980627  0.47634838  1
  O  O311  1  0.23555804  0.73334623  0.97368605  1
  O  O312  1  0.56609928  0.06876613  0.47767225  1
  O  O313  1  0.56436038  0.07556762  0.97417068  1
  O  O314  1  0.56771507  0.40170709  0.48597426  1
  O  O315  1  0.57133595  0.39993337  0.97470742  1
  O  O316  1  0.57150208  0.73756304  0.48217712  1
  O  O317  1  0.56775173  0.73581141  0.98463655  1
  O  O318  1  0.89172281  0.07513767  0.46897724  1
  O  O319  1  0.90303629  0.07416870  1.00381349  1
  O  O320  1  0.89475017  0.40242436  0.48344532  1
  O  O321  1  0.90374734  0.41412962  0.98169443  1
  O  O322  1  0.92115135  0.73690936  0.48113312  1
  O  O323  1  0.89901836  0.73428134  0.99178388  1
  O  O324  1  0.08753155  0.24533023  0.22310170  1
  O  O325  1  0.09908595  0.26466200  0.72653989  1
  O  O326  1  0.10763839  0.60705081  0.23265004  1
  O  O327  1  0.10565788  0.59160517  0.71998153  1
  O  O328  1  0.09642229  0.93592452  0.22688761  1
  O  O329  1  0.09444465  0.92620115  0.72895990  1
  O  O330  1  0.42656642  0.25080609  0.22862698  1
  O  O331  1  0.43513718  0.26888403  0.72227848  1
  O  O332  1  0.43695287  0.59339836  0.22865175  1
  O  O333  1  0.42311404  0.58030798  0.71834035  1
  O  O334  1  0.41530039  0.91803147  0.22900683  1
  O  O335  1  0.43980472  0.94599137  0.73508254  1
  O  O336  1  0.76030194  0.25636799  0.22966119  1
  O  O337  1  0.75291620  0.27044539  0.71561788  1
  O  O338  1  0.76234250  0.59895906  0.23011386  1
  O  O339  1  0.75058915  0.58377519  0.73134807  1
  O  O340  1  0.76848394  0.93741164  0.23536153  1
  O  O341  1  0.76457114  0.94222658  0.71896248  1
  O  O342  1  0.06506439  0.09372835  0.22052902  1
  O  O343  1  0.08489241  0.09823439  0.73843913  1
  O  O344  1  0.07044617  0.42908367  0.24937538  1
  O  O345  1  0.08265343  0.41819499  0.71714545  1
  O  O346  1  0.07780999  0.76492172  0.23384610  1
  O  O347  1  0.07912195  0.74618374  0.72805353  1
  O  O348  1  0.40540683  0.10031777  0.22584843  1
  O  O349  1  0.40726715  0.10361539  0.73079276  1
  O  O350  1  0.41498729  0.42962299  0.24477923  1
  O  O351  1  0.40208351  0.42681045  0.71498011  1
  O  O352  1  0.40621746  0.75622812  0.21914146  1
  O  O353  1  0.40533596  0.76231461  0.73422275  1
  O  O354  1  0.73881289  0.09650785  0.22630854  1
  O  O355  1  0.72360912  0.10896806  0.72223803  1
  O  O356  1  0.73851469  0.41966088  0.23756386  1
  O  O357  1  0.73000865  0.42296509  0.71997782  1
  O  O358  1  0.74261570  0.75267637  0.23003456  1
  O  O359  1  0.73879009  0.75822513  0.74628893  1
