# generated using pymatgen
data_BaLaInIrO6
_symmetry_space_group_name_H-M   'P 1'
_cell_length_a   17.54046831
_cell_length_b   17.57034696
_cell_length_c   16.50734939
_cell_angle_alpha   90.04123503
_cell_angle_beta   90.00851794
_cell_angle_gamma   90.09772411
_symmetry_Int_Tables_number   1
_chemical_formula_structural   BaLaInIrO6
_chemical_formula_sum   'Ba36 La36 In36 Ir36 O216'
_cell_volume   5087.42613329
_cell_formula_units_Z   36
loop_
 _symmetry_equiv_pos_site_id
 _symmetry_equiv_pos_as_xyz
  1  'x, y, z'
loop_
 _atom_site_type_symbol
 _atom_site_label
 _atom_site_symmetry_multiplicity
 _atom_site_fract_x
 _atom_site_fract_y
 _atom_site_fract_z
 _atom_site_occupancy
  Ba  Ba0  1  0.66865477  0.50639500  0.12246347  1
  Ba  Ba1  1  0.83499061  0.65663039  0.37711757  1
  Ba  Ba2  1  0.16662033  0.34039546  0.62566239  1
  Ba  Ba3  1  -0.00238724  0.16024498  0.87562437  1
  Ba  Ba4  1  0.66740093  0.50687850  0.62926909  1
  Ba  Ba5  1  0.33176394  0.15710722  0.37446787  1
  Ba  Ba6  1  0.99803644  0.17789181  0.12225444  1
  Ba  Ba7  1  0.83768138  0.65743885  0.87310619  1
  Ba  Ba8  1  0.16889633  0.65868848  0.37216076  1
  Ba  Ba9  1  0.83326534  0.99572349  0.87671406  1
  Ba  Ba10  1  0.16454282  0.32630707  0.37564361  1
  Ba  Ba11  1  0.66417327  0.17378457  0.62405295  1
  Ba  Ba12  1  0.50318896  0.65899270  0.37469778  1
  Ba  Ba13  1  0.49834363  0.31811794  0.87520043  1
  Ba  Ba14  1  1.00310528  0.50967860  0.62503273  1
  Ba  Ba15  1  0.16669815  0.99108694  0.37407324  1
  Ba  Ba16  1  0.66695980  0.17592727  0.12430249  1
  Ba  Ba17  1  0.83172218  0.00787769  0.62898625  1
  Ba  Ba18  1  0.66847938  0.49528055  0.37862482  1
  Ba  Ba19  1  0.33297153  0.82285217  0.87182923  1
  Ba  Ba20  1  0.50145426  0.33929753  0.12356368  1
  Ba  Ba21  1  -0.00238692  0.48893209  0.37397153  1
  Ba  Ba22  1  0.33421664  0.84395959  0.12460748  1
  Ba  Ba23  1  0.83448147  0.99359125  0.37584206  1
  Ba  Ba24  1  0.50449344  0.99295501  0.37447862  1
  Ba  Ba25  1  -0.00164657  0.82133520  0.87522001  1
  Ba  Ba26  1  0.66152308  0.15380088  0.87504350  1
  Ba  Ba27  1  0.66619320  0.82587845  0.37375982  1
  Ba  Ba28  1  0.49656729  0.33810344  0.62662765  1
  Ba  Ba29  1  0.33534265  0.84372983  0.62788854  1
  Ba  Ba30  1  0.50084468  0.01116525  0.12520161  1
  Ba  Ba31  1  0.83104135  0.34540068  0.63271944  1
  Ba  Ba32  1  0.83470031  0.67077440  0.62504947  1
  Ba  Ba33  1  0.32965205  0.15294221  0.87211475  1
  Ba  Ba34  1  0.49560144  0.00705041  0.62509219  1
  Ba  Ba35  1  0.82851146  0.01823473  0.12527156  1
  La  La36  1  0.33990169  0.51471091  0.12664130  1
  La  La37  1  0.83147190  0.68419863  0.12488637  1
  La  La38  1  1.00004710  0.51203219  0.12222002  1
  La  La39  1  0.16412112  0.01267041  0.62796533  1
  La  La40  1  1.00361820  0.84782587  0.12744274  1
  La  La41  1  0.66452968  0.82501184  0.87217317  1
  La  La42  1  0.83383714  0.32028934  0.87779697  1
  La  La43  1  0.17435618  0.98288109  0.87296130  1
  La  La44  1  0.34074318  0.51438504  0.62356232  1
  La  La45  1  0.17131170  0.31732551  0.87394952  1
  La  La46  1  0.83628783  0.32941010  0.37536603  1
  La  La47  1  0.49786057  0.68171350  0.62391146  1
  La  La48  1  -0.00791075  0.81581979  0.38091014  1
  La  La49  1  -0.00134150  0.48993558  0.87218557  1
  La  La50  1  0.16257200  0.34713642  0.12648694  1
  La  La51  1  0.32907619  0.48676873  0.37548301  1
  La  La52  1  0.16178328  0.68237175  0.62443103  1
  La  La53  1  0.17124714  0.65128831  0.86750573  1
  La  La54  1  0.16195955  0.01409493  0.12330732  1
  La  La55  1  0.16016159  0.67901291  0.11892368  1
  La  La56  1  1.00112783  0.84472227  0.62799344  1
  La  La57  1  0.66480480  0.48580220  0.87277662  1
  La  La58  1  0.82605037  0.34159251  0.12755418  1
  La  La59  1  0.66122696  0.15499575  0.37088470  1
  La  La60  1  0.50425344  0.31933023  0.37657292  1
  La  La61  1  0.34070365  0.17836358  0.12632365  1
  La  La62  1  -0.00593928  0.16233882  0.37478888  1
  La  La63  1  0.32866332  0.48204973  0.87369073  1
  La  La64  1  0.49971137  0.68134501  0.12511311  1
  La  La65  1  0.50580626  0.65590945  0.87794395  1
  La  La66  1  0.67174963  0.85284029  0.12557508  1
  La  La67  1  0.33268936  0.82745120  0.37388236  1
  La  La68  1  1.00500114  0.17787969  0.62851858  1
  La  La69  1  0.33825466  0.17746828  0.62546993  1
  La  La70  1  0.50055831  0.98771274  0.87522547  1
  La  La71  1  0.66803013  0.84584976  0.62243235  1
  In  In72  1  -0.00020373  0.66342088  0.24778805  1
  In  In73  1  0.16671842  0.49973298  -0.00168415  1
  In  In74  1  0.16558271  0.16510625  0.50040411  1
  In  In75  1  0.67171525  0.66523991  -0.00043471  1
  In  In76  1  0.16627719  0.83379540  0.25067908  1
  In  In77  1  0.16945932  0.50165571  0.50095201  1
  In  In78  1  0.00169957  -0.00106251  0.75293061  1
  In  In79  1  0.00127836  0.00125931  0.50056760  1
  In  In80  1  0.66542216  0.33257710  -0.00174902  1
  In  In81  1  0.83305035  0.82999705  0.75323707  1
  In  In82  1  0.49629397  0.50093137  0.75085056  1
  In  In83  1  0.00007863  -0.00032954  0.00098566  1
  In  In84  1  0.83242631  0.16750171  0.74826993  1
  In  In85  1  0.66435459  0.33694147  0.25255754  1
  In  In86  1  0.50074263  0.83600596  0.24582702  1
  In  In87  1  0.00159858  0.33627490  0.75487861  1
  In  In88  1  0.49780996  0.50062169  -0.00034060  1
  In  In89  1  0.33312977  0.66783974  0.24864722  1
  In  In90  1  0.83427502  0.50153110  0.24656163  1
  In  In91  1  0.16789108  0.16568899  0.00018247  1
  In  In92  1  0.66518629  0.66526274  0.50339500  1
  In  In93  1  0.33506332  0.33362667  0.49845640  1
  In  In94  1  0.66824835  0.00194978  0.50117405  1
  In  In95  1  0.66365842  0.33193599  0.74920911  1
  In  In96  1  0.16700936  0.16940704  0.24788520  1
  In  In97  1  -0.00186398  0.33433700  0.50224111  1
  In  In98  1  0.83415191  0.83316053  0.25056590  1
  In  In99  1  0.33332786  0.66512932  -0.00396334  1
  In  In100  1  0.33492368  0.33557206  0.24756968  1
  In  In101  1  0.33322931  0.66807395  0.50050162  1
  In  In102  1  0.49754348  0.16424012  0.50002605  1
  In  In103  1  0.00137660  0.00119994  0.25027184  1
  In  In104  1  0.16622003  0.82929450  -0.00227404  1
  In  In105  1  0.83416705  0.83272347  0.50337961  1
  In  In106  1  0.33402677  -0.00166239  -0.00002104  1
  In  In107  1  0.49826235  0.83331806  0.49962473  1
  Ir  Ir108  1  0.32754498  -0.00357906  0.50055487  1
  Ir  Ir109  1  0.66100849  -0.00362434  0.75480837  1
  Ir  Ir110  1  0.17010213  0.16468658  0.75019736  1
  Ir  Ir111  1  0.33297720  0.00090749  0.25265813  1
  Ir  Ir112  1  0.83298642  0.17167151  0.00286999  1
  Ir  Ir113  1  0.00256197  0.66745166  0.50532548  1
  Ir  Ir114  1  0.66873912  0.00562061  0.24593634  1
  Ir  Ir115  1  -0.00288516  0.66500550  -0.00179655  1
  Ir  Ir116  1  0.66740420  -0.00235522  -0.00276265  1
  Ir  Ir117  1  0.16956329  0.49848473  0.24479180  1
  Ir  Ir118  1  0.83262373  0.83211846  0.00219735  1
  Ir  Ir119  1  0.50460554  0.83326226  -0.00350853  1
  Ir  Ir120  1  0.66386457  0.66835568  0.75466325  1
  Ir  Ir121  1  0.49963669  0.16595960  0.24646641  1
  Ir  Ir122  1  0.16895770  0.83113091  0.74587895  1
  Ir  Ir123  1  -0.00296717  0.33397739  0.24369623  1
  Ir  Ir124  1  0.49844716  0.49883690  0.50033364  1
  Ir  Ir125  1  0.83199499  0.17349385  0.25267560  1
  Ir  Ir126  1  0.33225899  -0.00295400  0.74765080  1
  Ir  Ir127  1  -0.00151024  0.33889964  0.00215685  1
  Ir  Ir128  1  0.83972225  0.49926650  -0.00433997  1
  Ir  Ir129  1  0.83375840  0.49953088  0.50346555  1
  Ir  Ir130  1  0.32816556  0.33188525  -0.00237705  1
  Ir  Ir131  1  0.32824243  0.33235122  0.75295705  1
  Ir  Ir132  1  0.16443524  0.83269613  0.50293778  1
  Ir  Ir133  1  0.49591431  0.16372211  -0.00060618  1
  Ir  Ir134  1  0.00756433  0.66529417  0.75084029  1
  Ir  Ir135  1  0.33446927  0.66511918  0.74906773  1
  Ir  Ir136  1  0.83206405  0.17343367  0.49494416  1
  Ir  Ir137  1  0.49803236  0.50235997  0.25074294  1
  Ir  Ir138  1  0.17123406  0.50225044  0.75188351  1
  Ir  Ir139  1  0.49324100  0.16126823  0.75368853  1
  Ir  Ir140  1  0.83206584  0.50606785  0.75614594  1
  Ir  Ir141  1  0.49994284  0.83063697  0.75554561  1
  Ir  Ir142  1  0.66374693  0.66579025  0.24415874  1
  Ir  Ir143  1  0.66995599  0.33509132  0.49688772  1
  O  O144  1  0.30162085  0.32316124  0.11742539  1
  O  O145  1  0.31677034  0.31936819  0.63188089  1
  O  O146  1  0.29599210  0.65094471  0.12309845  1
  O  O147  1  0.29856030  0.65374848  0.63142226  1
  O  O148  1  0.30454693  0.99960853  0.13263648  1
  O  O149  1  0.29991079  0.99599010  0.62407505  1
  O  O150  1  0.65404068  0.33376687  0.12488227  1
  O  O151  1  0.64749971  0.33452474  0.61671653  1
  O  O152  1  0.63572890  0.65989583  0.12472287  1
  O  O153  1  0.63320683  0.65999143  0.63798884  1
  O  O154  1  0.65003374  0.99558319  0.11971819  1
  O  O155  1  0.64449089  0.99174325  0.63545727  1
  O  O156  1  0.96378268  0.33738813  0.12191600  1
  O  O157  1  0.98060664  0.32086717  0.63033058  1
  O  O158  1  0.96730562  0.65060013  0.11465479  1
  O  O159  1  0.98403887  0.66587127  0.62847622  1
  O  O160  1  0.97235868  0.98203596  0.12599807  1
  O  O161  1  0.98036633  0.98207190  0.62618288  1
  O  O162  1  0.20638423  0.15799691  0.12240411  1
  O  O163  1  0.20344872  0.15755953  0.63395871  1
  O  O164  1  0.20065482  0.48812055  0.12470916  1
  O  O165  1  0.20434303  0.49658775  0.63402610  1
  O  O166  1  0.18930373  0.80935896  0.12295225  1
  O  O167  1  0.19051302  0.81839992  0.62459328  1
  O  O168  1  0.51759368  0.16990444  0.12233508  1
  O  O169  1  0.50783517  0.16681020  0.63288537  1
  O  O170  1  0.51932757  0.49449850  0.13155970  1
  O  O171  1  0.51724651  0.49259167  0.62105202  1
  O  O172  1  0.53480815  0.82618797  0.11485025  1
  O  O173  1  0.53145640  0.82439277  0.63779048  1
  O  O174  1  0.85025885  0.18117619  0.12966216  1
  O  O175  1  0.86531758  0.17151903  0.61401166  1
  O  O176  1  0.86760882  0.48246040  0.11385643  1
  O  O177  1  0.85420626  0.50429291  0.63315258  1
  O  O178  1  0.86339720  0.82706072  0.12098822  1
  O  O179  1  0.86528990  0.83067671  0.62862696  1
  O  O180  1  0.13211006  0.16800373  0.37394734  1
  O  O181  1  0.14672884  0.17639333  0.86978026  1
  O  O182  1  0.14738549  0.50394250  0.36333618  1
  O  O183  1  0.13636556  0.51217963  0.87075349  1
  O  O184  1  0.12932345  0.83578220  0.38457419  1
  O  O185  1  0.14734768  0.84173853  0.86581207  1
  O  O186  1  0.48369006  0.16996872  0.36685836  1
  O  O187  1  0.47646302  0.15275103  0.87811742  1
  O  O188  1  0.46599043  0.50592232  0.37559577  1
  O  O189  1  0.46104644  0.51772275  0.87450162  1
  O  O190  1  0.47103404  0.83319990  0.37163627  1
  O  O191  1  0.47922988  0.84436868  0.87688457  1
  O  O192  1  0.79928660  0.18114321  0.37345950  1
  O  O193  1  0.81381726  0.17496647  0.88370982  1
  O  O194  1  0.82210964  0.49619610  0.38115234  1
  O  O195  1  0.80254203  0.50802170  0.87697615  1
  O  O196  1  0.81721805  0.82730718  0.37583560  1
  O  O197  1  0.80103005  0.83156484  0.88249824  1
  O  O198  1  0.01912764  0.02456046  0.37579155  1
  O  O199  1  0.03785131  0.00105939  0.87627952  1
  O  O200  1  0.01616570  0.32980368  0.36403737  1
  O  O201  1  0.03490192  0.34658030  0.88304691  1
  O  O202  1  0.01794210  0.67442973  0.38191341  1
  O  O203  1  0.03442574  0.66655313  0.87365284  1
  O  O204  1  0.35641468  -0.00207662  0.37785131  1
  O  O205  1  0.36339065  -0.00116892  0.86706957  1
  O  O206  1  0.36956816  0.34978124  0.37137960  1
  O  O207  1  0.35243361  0.34497767  0.87616175  1
  O  O208  1  0.35459476  0.68601648  0.37525006  1
  O  O209  1  0.36894474  0.66931223  0.86758175  1
  O  O210  1  0.68277747  0.01260549  0.36749043  1
  O  O211  1  0.68484252  -0.00782850  0.87634913  1
  O  O212  1  0.69855914  0.33825476  0.37911957  1
  O  O213  1  0.69622237  0.34201702  0.87505941  1
  O  O214  1  0.68278812  0.66869074  0.36510089  1
  O  O215  1  0.68976796  0.68606489  0.87201965  1
  O  O216  1  0.07846670  0.09006904  0.02644552  1
  O  O217  1  0.07539298  0.09054321  0.54136201  1
  O  O218  1  0.06712189  0.43023709  0.02611741  1
  O  O219  1  0.07818501  0.42466863  0.51282207  1
  O  O220  1  0.06068061  0.75755547  0.02650461  1
  O  O221  1  0.06755747  0.76614816  0.52825611  1
  O  O222  1  0.40155538  0.09854090  0.02330785  1
  O  O223  1  0.39405313  0.09224888  0.52166066  1
  O  O224  1  0.39193126  0.42854072  0.01877376  1
  O  O225  1  0.40398974  0.43725464  0.52118003  1
  O  O226  1  0.41542787  0.76111053  0.01730161  1
  O  O227  1  0.41113087  0.75416540  0.53150664  1
  O  O228  1  0.73945191  0.09791113  0.01583307  1
  O  O229  1  0.74613268  0.10045323  0.51214845  1
  O  O230  1  0.75170031  0.42977094  0.01311720  1
  O  O231  1  0.74168948  0.42875064  0.52079172  1
  O  O232  1  0.74092305  0.76423471  0.03061041  1
  O  O233  1  0.73440168  0.76234489  0.52908393  1
  O  O234  1  0.09370003  0.27287410  0.02381775  1
  O  O235  1  0.07970969  0.24750192  0.52550244  1
  O  O236  1  0.09264773  0.59954238  0.01995866  1
  O  O237  1  0.09942008  0.60319477  0.52347217  1
  O  O238  1  0.09384204  0.92225013  0.03041641  1
  O  O239  1  0.10294179  0.92466101  0.52865187  1
  O  O240  1  0.41970942  0.25759299  0.02284510  1
  O  O241  1  0.43267913  0.26241792  0.50453722  1
  O  O242  1  0.42988833  0.59749774  0.03130268  1
  O  O243  1  0.43269358  0.59107674  0.52889264  1
  O  O244  1  0.43696802  0.92613920  0.01123845  1
  O  O245  1  0.41799040  0.92839782  0.51370052  1
  O  O246  1  0.76965993  0.26716418  0.01608494  1
  O  O247  1  0.76301073  0.26699081  0.51700840  1
  O  O248  1  0.77477033  0.59344354  0.02434717  1
  O  O249  1  0.76036497  0.58770318  0.51369531  1
  O  O250  1  0.75993050  0.92281369  0.02570781  1
  O  O251  1  0.75765071  0.92605228  0.52047180  1
  O  O252  1  0.24548052  0.06954587  0.26715554  1
  O  O253  1  0.23389628  0.06311140  0.76909204  1
  O  O254  1  0.23515810  0.40771722  0.26362104  1
  O  O255  1  0.23593303  0.40513284  0.78191391  1
  O  O256  1  0.24707794  0.74971588  0.27597485  1
  O  O257  1  0.23603694  0.73179281  0.77119405  1
  O  O258  1  0.57742692  0.08072869  0.26756544  1
  O  O259  1  0.56324833  0.06555290  0.77474525  1
  O  O260  1  0.56086898  0.40653897  0.27642843  1
  O  O261  1  0.57755273  0.41428815  0.77457205  1
  O  O262  1  0.57507016  0.73536552  0.25690608  1
  O  O263  1  0.56903390  0.73660920  0.78221363  1
  O  O264  1  0.90342747  0.08508565  0.26890653  1
  O  O265  1  0.91388205  0.08224451  0.76212755  1
  O  O266  1  0.90089886  0.39326637  0.26475632  1
  O  O267  1  0.90397328  0.41835911  0.78234214  1
  O  O268  1  0.89890504  0.72924884  0.25249508  1
  O  O269  1  0.91591944  0.73361889  0.76606680  1
  O  O270  1  0.26062539  0.24342141  0.26577997  1
  O  O271  1  0.25457648  0.24403319  0.77596167  1
  O  O272  1  0.26696401  0.56020143  0.26759466  1
  O  O273  1  0.26635098  0.57127182  0.77956322  1
  O  O274  1  0.26975842  0.90683917  0.27537214  1
  O  O275  1  0.25833850  0.90751711  0.77128595  1
  O  O276  1  0.59104183  0.23836562  0.27422620  1
  O  O277  1  0.58109885  0.23564281  0.76632937  1
  O  O278  1  0.59429625  0.56961678  0.26656114  1
  O  O279  1  0.59468614  0.57788597  0.78475224  1
  O  O280  1  0.59946219  0.91166884  0.25393511  1
  O  O281  1  0.58935741  0.90401065  0.78320333  1
  O  O282  1  0.92992544  0.23852333  0.27233595  1
  O  O283  1  0.91697482  0.25422055  0.77945749  1
  O  O284  1  0.93768318  0.56041986  0.25118846  1
  O  O285  1  0.93801592  0.57032392  0.77433467  1
  O  O286  1  0.94004136  0.89480420  0.27306996  1
  O  O287  1  0.92381806  0.90688901  0.77137963  1
  O  O288  1  0.26144601  0.23723006  0.49153713  1
  O  O289  1  0.25887544  0.24501882  0.97486074  1
  O  O290  1  0.27071716  0.56737328  0.47884539  1
  O  O291  1  0.26584391  0.56375606  0.96976539  1
  O  O292  1  0.26245064  0.89667450  0.47647892  1
  O  O293  1  0.25869234  0.90621973  0.97919698  1
  O  O294  1  0.60041023  0.24589632  0.47128920  1
  O  O295  1  0.58554308  0.23633786  0.98372252  1
  O  O296  1  0.58751578  0.56697970  0.48689283  1
  O  O297  1  0.59586517  0.57507355  0.96730398  1
  O  O298  1  0.59292094  0.90691770  0.49252454  1
  O  O299  1  0.60250944  0.89889118  0.97711242  1
  O  O300  1  0.91720959  0.24485790  0.46416285  1
  O  O301  1  0.92381976  0.24912621  0.97753407  1
  O  O302  1  0.93137173  0.57229186  0.48577638  1
  O  O303  1  0.93728153  0.56390212  0.97501009  1
  O  O304  1  0.93782724  0.89981471  0.47754231  1
  O  O305  1  0.92035990  0.90145177  0.98173573  1
  O  O306  1  0.23598599  0.06235962  0.49126081  1
  O  O307  1  0.23442596  0.06451404  0.97089432  1
  O  O308  1  0.24750113  0.41173303  0.47549904  1
  O  O309  1  0.23430884  0.39769580  0.97373847  1
  O  O310  1  0.23183507  0.74214382  0.48732105  1
  O  O311  1  0.22865446  0.72522735  0.97433366  1
  O  O312  1  0.58162054  0.08363489  0.48406507  1
  O  O313  1  0.56764116  0.06413522  0.97640524  1
  O  O314  1  0.56778123  0.40083422  0.47334527  1
  O  O315  1  0.57776162  0.41415439  0.97394209  1
  O  O316  1  0.56908094  0.73476410  0.49680820  1
  O  O317  1  0.57040385  0.74033309  0.97484562  1
  O  O318  1  0.90767335  0.08948465  0.47563241  1
  O  O319  1  0.90540465  0.08285994  0.98948827  1
  O  O320  1  0.90032384  0.40688779  0.48509513  1
  O  O321  1  0.90793284  0.40736038  0.96473495  1
  O  O322  1  0.91473602  0.73714441  0.48533810  1
  O  O323  1  0.89840709  0.73392448  0.98859404  1
  O  O324  1  0.09289526  0.27167382  0.21957624  1
  O  O325  1  0.09490804  0.25149509  0.73374139  1
  O  O326  1  0.10263499  0.59087279  0.21743761  1
  O  O327  1  0.10855876  0.60120301  0.73021057  1
  O  O328  1  0.10206131  0.92998012  0.22003707  1
  O  O329  1  0.10205656  0.92273768  0.72249971  1
  O  O330  1  0.42810360  0.25447423  0.23070044  1
  O  O331  1  0.41679695  0.25215150  0.73136678  1
  O  O332  1  0.43284422  0.59370045  0.22173077  1
  O  O333  1  0.42431695  0.59699409  0.71797608  1
  O  O334  1  0.42275980  0.93215292  0.23492065  1
  O  O335  1  0.42969425  0.92629092  0.73426670  1
  O  O336  1  0.76946431  0.26820498  0.23809195  1
  O  O337  1  0.75376351  0.25566371  0.73622386  1
  O  O338  1  0.76127423  0.60197749  0.22346835  1
  O  O339  1  0.75603437  0.59831053  0.73457288  1
  O  O340  1  0.75514817  0.92876811  0.23055428  1
  O  O341  1  0.74523728  0.92043064  0.73409641  1
  O  O342  1  0.08108298  0.08959188  0.21748343  1
  O  O343  1  0.08199992  0.09498917  0.72144759  1
  O  O344  1  0.07025237  0.42941637  0.21582190  1
  O  O345  1  0.07919564  0.43279520  0.73733474  1
  O  O346  1  0.06902245  0.75872208  0.22404051  1
  O  O347  1  0.07553990  0.76086695  0.72138552  1
  O  O348  1  0.40252216  0.09795448  0.22563247  1
  O  O349  1  0.39674042  0.09270152  0.72561852  1
  O  O350  1  0.40130819  0.44012416  0.22828466  1
  O  O351  1  0.39239178  0.42906115  0.73323196  1
  O  O352  1  0.41621032  0.75335212  0.21476368  1
  O  O353  1  0.41223818  0.75297768  0.72380933  1
  O  O354  1  0.73474101  0.10663152  0.24191278  1
  O  O355  1  0.73475672  0.08403709  0.73790857  1
  O  O356  1  0.74485312  0.42581202  0.23008803  1
  O  O357  1  0.74204114  0.43625949  0.74533804  1
  O  O358  1  0.73100328  0.75913128  0.21814404  1
  O  O359  1  0.72731882  0.76308840  0.72870542  1
