# generated using pymatgen
data_BaLaInIrO6
_symmetry_space_group_name_H-M   'P 1'
_cell_length_a   17.52632189
_cell_length_b   17.55057369
_cell_length_c   16.52253602
_cell_angle_alpha   90.02739614
_cell_angle_beta   90.00053836
_cell_angle_gamma   90.05446507
_symmetry_Int_Tables_number   1
_chemical_formula_structural   BaLaInIrO6
_chemical_formula_sum   'Ba36 La36 In36 Ir36 O216'
_cell_volume   5082.27969835
_cell_formula_units_Z   36
loop_
 _symmetry_equiv_pos_site_id
 _symmetry_equiv_pos_as_xyz
  1  'x, y, z'
loop_
 _atom_site_type_symbol
 _atom_site_label
 _atom_site_symmetry_multiplicity
 _atom_site_fract_x
 _atom_site_fract_y
 _atom_site_fract_z
 _atom_site_occupancy
  Ba  Ba0  1  0.66687740  0.84303122  0.62419514  1
  Ba  Ba1  1  0.49420216  0.67927719  0.12408316  1
  Ba  Ba2  1  0.33615010  0.17118261  0.13222782  1
  Ba  Ba3  1  0.00231651  0.15372627  0.37515460  1
  Ba  Ba4  1  0.83319921  0.00994269  0.62136381  1
  Ba  Ba5  1  0.83362056  0.34487826  0.61932798  1
  Ba  Ba6  1  0.33676588  0.50892137  0.12539469  1
  Ba  Ba7  1  0.50012563  0.99376533  0.37255536  1
  Ba  Ba8  1  0.50540333  0.32546267  0.88234598  1
  Ba  Ba9  1  0.67024979  0.84555061  0.12553685  1
  Ba  Ba10  1  0.16759114  0.99194787  0.37857924  1
  Ba  Ba11  1  0.49977622  0.99247018  0.87250354  1
  Ba  Ba12  1  0.50280789  0.01505534  0.62439158  1
  Ba  Ba13  1  0.49790862  0.00683341  0.12542824  1
  Ba  Ba14  1  0.33563775  0.84461714  0.12042612  1
  Ba  Ba15  1  0.83860179  0.32556397  0.87624034  1
  Ba  Ba16  1  0.00095851  0.82343953  0.87318404  1
  Ba  Ba17  1  0.16196494  0.67541017  0.12537811  1
  Ba  Ba18  1  1.00200812  0.84062725  0.12698064  1
  Ba  Ba19  1  0.83348811  0.67099844  0.12271743  1
  Ba  Ba20  1  0.66556142  0.51377149  0.62329676  1
  Ba  Ba21  1  0.50080033  0.32635992  0.37675270  1
  Ba  Ba22  1  0.16794558  0.65357288  0.87647222  1
  Ba  Ba23  1  0.00069577  0.82630444  0.37635319  1
  Ba  Ba24  1  0.66399871  0.49326517  0.87418443  1
  Ba  Ba25  1  0.16439556  0.01014718  0.12907233  1
  Ba  Ba26  1  -0.00374425  0.49327214  0.87560680  1
  Ba  Ba27  1  -0.00202447  0.48942517  0.36917414  1
  Ba  Ba28  1  0.66600473  0.16430209  0.86926561  1
  Ba  Ba29  1  0.15883212  0.34164459  0.62072081  1
  Ba  Ba30  1  0.33443313  0.17667166  0.62492974  1
  Ba  Ba31  1  0.49937211  0.34304577  0.12907902  1
  Ba  Ba32  1  0.83931349  0.98795500  0.38000495  1
  Ba  Ba33  1  1.00017836  0.50745554  0.62280815  1
  Ba  Ba34  1  1.00050520  0.17513826  0.61462789  1
  Ba  Ba35  1  1.00126062  0.50929298  0.12613861  1
  La  La36  1  0.50850808  0.33547031  0.63804153  1
  La  La37  1  0.67850769  0.18005932  0.62045939  1
  La  La38  1  0.66812383  0.15175380  0.37419491  1
  La  La39  1  0.82988377  0.01395453  0.12812505  1
  La  La40  1  0.15508272  0.01504676  0.62737071  1
  La  La41  1  0.66080688  0.16969247  0.12322087  1
  La  La42  1  0.16618741  0.65279948  0.37158677  1
  La  La43  1  0.33130978  0.14954807  0.87948356  1
  La  La44  1  1.00813325  0.17822373  0.12923166  1
  La  La45  1  0.16065595  0.67926893  0.61930125  1
  La  La46  1  0.83547952  0.98527776  0.87589654  1
  La  La47  1  0.83547603  0.65513048  0.37680128  1
  La  La48  1  0.66277784  0.81937603  0.37419583  1
  La  La49  1  0.66910026  0.51328258  0.12134408  1
  La  La50  1  0.34068126  0.84999511  0.62928971  1
  La  La51  1  0.33406443  0.50343906  0.62595427  1
  La  La52  1  0.84092883  0.31621405  0.37224070  1
  La  La53  1  0.16571231  0.32292207  0.87471801  1
  La  La54  1  0.83037742  0.67181290  0.62551999  1
  La  La55  1  0.32545820  0.82208077  0.37137461  1
  La  La56  1  0.32834814  0.48277850  0.37356654  1
  La  La57  1  0.17055046  0.31714397  0.37169900  1
  La  La58  1  0.32846564  0.15036765  0.37282832  1
  La  La59  1  0.99504518  0.84452674  0.61961098  1
  La  La60  1  0.66177086  0.81656807  0.87102025  1
  La  La61  1  -0.00421057  0.15489178  0.87472380  1
  La  La62  1  0.17176346  0.98434580  0.87833164  1
  La  La63  1  0.32753038  0.81675415  0.87709978  1
  La  La64  1  0.49715059  0.68361053  0.62734897  1
  La  La65  1  0.49818709  0.65362556  0.87760832  1
  La  La66  1  0.32924760  0.48036686  0.87866100  1
  La  La67  1  0.66326955  0.48809854  0.37556560  1
  La  La68  1  0.83276095  0.34859652  0.13116994  1
  La  La69  1  0.50173203  0.65344376  0.37713943  1
  La  La70  1  0.83757462  0.65300343  0.87355016  1
  La  La71  1  0.16461044  0.34523754  0.12599903  1
  In  In72  1  0.83177944  0.49977301  0.74684899  1
  In  In73  1  0.66979734  0.00198504  -0.00280036  1
  In  In74  1  0.16822234  0.83263646  0.74474149  1
  In  In75  1  0.00225245  0.33251830  0.74935498  1
  In  In76  1  0.33085484  0.66124102  0.74766632  1
  In  In77  1  -0.00192389  0.66735567  0.25260798  1
  In  In78  1  0.66766654  0.00128068  0.74912715  1
  In  In79  1  0.33312265  -0.00100799  0.50412213  1
  In  In80  1  -0.00003529  0.66723868  -0.00231104  1
  In  In81  1  0.16874249  0.49947294  0.74663665  1
  In  In82  1  0.16684238  0.83574902  0.24974458  1
  In  In83  1  0.16870112  0.16711584  0.49756489  1
  In  In84  1  0.66975206  0.33068668  0.00545256  1
  In  In85  1  0.49726536  0.83310727  0.49861221  1
  In  In86  1  0.83307709  0.83356351  -0.00067092  1
  In  In87  1  0.00033179  0.66896104  0.74526264  1
  In  In88  1  0.66204339  0.66697977  0.24935095  1
  In  In89  1  0.49782599  0.16690852  0.75136128  1
  In  In90  1  0.16816970  0.16702764  0.75345438  1
  In  In91  1  0.83236106  0.49712082  0.00145672  1
  In  In92  1  0.83519326  0.16583761  0.75057262  1
  In  In93  1  0.33198542  0.66530047  0.00200351  1
  In  In94  1  0.49871894  0.49958064  0.00299247  1
  In  In95  1  0.66921157  0.33076235  0.25243171  1
  In  In96  1  0.00099240  0.00166468  0.00188640  1
  In  In97  1  0.50067831  0.16774700  0.25477845  1
  In  In98  1  0.49965896  0.50084467  0.50152883  1
  In  In99  1  0.66974795  0.33566774  0.75104910  1
  In  In100  1  0.33227250  0.66484910  0.50256650  1
  In  In101  1  0.00117621  -0.00113422  0.75269750  1
  In  In102  1  0.33586915  0.33308155  0.50306935  1
  In  In103  1  0.66749413  -0.00253682  0.49678301  1
  In  In104  1  0.50032886  0.83602556  -0.00236708  1
  In  In105  1  0.83107097  0.83254684  0.25217872  1
  In  In106  1  0.16837922  0.49848929  0.24893281  1
  In  In107  1  0.33243299  0.32617836  0.00325832  1
  Ir  Ir108  1  0.49575853  0.83463347  0.25513823  1
  Ir  Ir109  1  0.66865877  0.66654354  0.49919055  1
  Ir  Ir110  1  0.49804016  0.16393134  0.00169501  1
  Ir  Ir111  1  0.33434136  0.33372108  0.75267802  1
  Ir  Ir112  1  0.82794282  0.83077329  0.74923647  1
  Ir  Ir113  1  -0.00068645  0.32910948  0.24844090  1
  Ir  Ir114  1  0.66043231  0.67009398  0.74904865  1
  Ir  Ir115  1  0.16736455  0.49878541  0.49508697  1
  Ir  Ir116  1  0.83447603  0.16993995  0.49387933  1
  Ir  Ir117  1  0.00037585  0.33695900  0.49000771  1
  Ir  Ir118  1  0.66989450  0.00290591  0.24939427  1
  Ir  Ir119  1  0.16808910  0.82781725  0.50064537  1
  Ir  Ir120  1  0.84001524  0.16838882  0.00612338  1
  Ir  Ir121  1  0.16548366  0.49116407  -0.00086234  1
  Ir  Ir122  1  0.49515255  0.83161914  0.75024877  1
  Ir  Ir123  1  0.33431980  -0.00104679  0.25041045  1
  Ir  Ir124  1  -0.00135156  0.66646675  0.49985129  1
  Ir  Ir125  1  0.33104402  0.00287420  -0.00047387  1
  Ir  Ir126  1  0.49812290  0.50242751  0.25599774  1
  Ir  Ir127  1  -0.00380155  0.00261675  0.25152601  1
  Ir  Ir128  1  0.66359913  0.66698649  -0.00557039  1
  Ir  Ir129  1  0.00320110  0.32764068  0.00675109  1
  Ir  Ir130  1  0.83779714  0.16699710  0.24659889  1
  Ir  Ir131  1  0.49531520  0.50178926  0.74559254  1
  Ir  Ir132  1  0.00109842  -0.00550540  0.49986159  1
  Ir  Ir133  1  0.82752669  0.49834670  0.25209285  1
  Ir  Ir134  1  0.50549593  0.17294585  0.49865215  1
  Ir  Ir135  1  0.83112127  0.50266701  0.49313173  1
  Ir  Ir136  1  0.16936138  0.83679679  -0.00129007  1
  Ir  Ir137  1  0.33047273  -0.00280395  0.75459075  1
  Ir  Ir138  1  0.83167073  0.82607568  0.50322058  1
  Ir  Ir139  1  0.33271825  0.33345241  0.25268789  1
  Ir  Ir140  1  0.16375497  0.16798852  0.00264908  1
  Ir  Ir141  1  0.67126378  0.33435840  0.49314499  1
  Ir  Ir142  1  0.33863417  0.66767104  0.25661449  1
  Ir  Ir143  1  0.16882402  0.16812787  0.24572451  1
  O  O144  1  0.30283194  0.32884552  0.13291934  1
  O  O145  1  0.31125576  0.33952443  0.63266777  1
  O  O146  1  0.31500242  0.66379608  0.13613139  1
  O  O147  1  0.29496606  0.64182438  0.62316618  1
  O  O148  1  0.31283525  1.00286566  0.12397274  1
  O  O149  1  0.29551421  0.99049036  0.63512470  1
  O  O150  1  0.64786484  0.30721924  0.12993818  1
  O  O151  1  0.64219372  0.32241546  0.61192580  1
  O  O152  1  0.64268896  0.65735605  0.11777230  1
  O  O153  1  0.63215675  0.66833771  0.62397440  1
  O  O154  1  0.65062313  1.00511167  0.12935902  1
  O  O155  1  0.65009291  0.99778453  0.62104977  1
  O  O156  1  0.96905257  0.31683338  0.12773927  1
  O  O157  1  0.98586119  0.33129763  0.61049028  1
  O  O158  1  0.98585767  0.66935731  0.12484048  1
  O  O159  1  0.96683673  0.66688739  0.61686413  1
  O  O160  1  0.97079773  1.00196487  0.13120846  1
  O  O161  1  0.98675651  0.98839085  0.62052163  1
  O  O162  1  0.18840369  0.16716184  0.12382323  1
  O  O163  1  0.18443189  0.15761598  0.62444383  1
  O  O164  1  0.18805002  0.48715695  0.12091072  1
  O  O165  1  0.19831312  0.49189862  0.61374704  1
  O  O166  1  0.18494719  0.83522802  0.11909319  1
  O  O167  1  0.20172036  0.81848369  0.61684551  1
  O  O168  1  0.52320784  0.16169341  0.12481535  1
  O  O169  1  0.53553405  0.17298881  0.61605741  1
  O  O170  1  0.52982669  0.50435095  0.13655244  1
  O  O171  1  0.51546851  0.47868075  0.62676515  1
  O  O172  1  0.51891781  0.83509284  0.13414586  1
  O  O173  1  0.51965546  0.82313936  0.63126669  1
  O  O174  1  0.87238887  0.15387820  0.12638947  1
  O  O175  1  0.85275538  0.16868809  0.61356624  1
  O  O176  1  0.85306355  0.49226873  0.13453964  1
  O  O177  1  0.85017983  0.50842237  0.61189911  1
  O  O178  1  0.84953857  0.82554535  0.12620944  1
  O  O179  1  0.85951861  0.81295910  0.62677638  1
  O  O180  1  0.15208781  0.17414642  0.36570500  1
  O  O181  1  0.13324374  0.17583752  0.88556628  1
  O  O182  1  0.14715345  0.51138237  0.37791353  1
  O  O183  1  0.14788010  0.48739211  0.88091084  1
  O  O184  1  0.15123327  0.83475122  0.38264812  1
  O  O185  1  0.15386203  0.84376673  0.87784948  1
  O  O186  1  0.46779955  0.17264634  0.38202623  1
  O  O187  1  0.46884261  0.17028228  0.88137748  1
  O  O188  1  0.46644321  0.50839305  0.37435998  1
  O  O189  1  0.46724074  0.51468713  0.86498290  1
  O  O190  1  0.46208168  0.83560569  0.37245921  1
  O  O191  1  0.46372079  0.83361420  0.86658723  1
  O  O192  1  0.80463367  0.17663041  0.36882655  1
  O  O193  1  0.81679918  0.17403900  0.88843777  1
  O  O194  1  0.79834686  0.51015571  0.37331603  1
  O  O195  1  0.81355612  0.51050705  0.87549207  1
  O  O196  1  0.80070132  0.83131727  0.38452994  1
  O  O197  1  0.79906141  0.84655855  0.86805366  1
  O  O198  1  0.01714007  -0.00274693  0.37694563  1
  O  O199  1  0.03669524  0.01661535  0.87760353  1
  O  O200  1  0.03203815  0.33533289  0.36787516  1
  O  O201  1  0.02900883  0.33310756  0.88869636  1
  O  O202  1  0.03103580  0.66757240  0.38326347  1
  O  O203  1  0.02028032  0.66823365  0.87117491  1
  O  O204  1  0.34900626  0.00274137  0.37077412  1
  O  O205  1  0.35207187  0.01112237  0.87760516  1
  O  O206  1  0.35228414  0.34411042  0.37170514  1
  O  O207  1  0.35595191  0.34029883  0.87157979  1
  O  O208  1  0.36609756  0.68062172  0.37583632  1
  O  O209  1  0.36179673  0.67738802  0.87196006  1
  O  O210  1  0.69045691  0.01139551  0.36927056  1
  O  O211  1  0.70323609  0.01054197  0.87366241  1
  O  O212  1  0.70427293  0.34775107  0.37559895  1
  O  O213  1  0.68606326  0.33152054  0.87976683  1
  O  O214  1  0.69736916  0.67397900  0.38096053  1
  O  O215  1  0.69536307  0.67244678  0.87158703  1
  O  O216  1  0.06868205  0.10466564  0.02639551  1
  O  O217  1  0.07934207  0.07995231  0.51407498  1
  O  O218  1  0.07604057  0.41716070  0.03147792  1
  O  O219  1  0.07136732  0.43087660  0.51061962  1
  O  O220  1  0.08129427  0.76490712  0.01151191  1
  O  O221  1  0.07009606  0.76036085  0.52888193  1
  O  O222  1  0.39736436  0.09930152  0.01161038  1
  O  O223  1  0.41480569  0.10231784  0.51595555  1
  O  O224  1  0.40259024  0.42448430  0.00885640  1
  O  O225  1  0.39154581  0.44070277  0.51002140  1
  O  O226  1  0.40664428  0.76278247  0.00959555  1
  O  O227  1  0.40046665  0.76271731  0.53271888  1
  O  O228  1  0.74596323  0.10473904  0.03212839  1
  O  O229  1  0.73996738  0.10321044  0.51019333  1
  O  O230  1  0.74287953  0.42445348  0.03906459  1
  O  O231  1  0.73700456  0.43285776  0.51279146  1
  O  O232  1  0.72995867  0.75810382  0.00633439  1
  O  O233  1  0.74297139  0.75325412  0.52771769  1
  O  O234  1  0.09975859  0.26287913  0.03117932  1
  O  O235  1  0.09197926  0.26465894  0.49928028  1
  O  O236  1  0.09670134  0.58150517  0.01371893  1
  O  O237  1  0.10102848  0.60048757  0.51971279  1
  O  O238  1  0.10143892  0.92915015  0.01065567  1
  O  O239  1  0.09755911  0.92168242  0.53017169  1
  O  O240  1  0.42910586  0.25264910  0.02142682  1
  O  O241  1  0.44175432  0.26896987  0.52582092  1
  O  O242  1  0.42757358  0.59435296  0.01047201  1
  O  O243  1  0.44103654  0.60641698  0.51962695  1
  O  O244  1  0.42221093  0.93385110  0.01162748  1
  O  O245  1  0.42201440  0.92506166  0.52776332  1
  O  O246  1  0.77808084  0.26065278  0.03346527  1
  O  O247  1  0.76107476  0.26037291  0.51427859  1
  O  O248  1  0.74590331  0.58924904  0.01868674  1
  O  O249  1  0.76575502  0.60081562  0.51783660  1
  O  O250  1  0.77114295  0.93939989  0.02139183  1
  O  O251  1  0.76485607  0.91800897  0.51744059  1
  O  O252  1  0.24529736  0.07823166  0.27323020  1
  O  O253  1  0.23800167  0.06536705  0.78043406  1
  O  O254  1  0.23853393  0.40118837  0.27450718  1
  O  O255  1  0.24230644  0.39725391  0.77902353  1
  O  O256  1  0.24607465  0.73477195  0.28039441  1
  O  O257  1  0.24020776  0.73933057  0.76685134  1
  O  O258  1  0.58232395  0.07489582  0.26852946  1
  O  O259  1  0.57111787  0.07412657  0.76522838  1
  O  O260  1  0.57426814  0.41633012  0.27346545  1
  O  O261  1  0.56294237  0.41143003  0.76439225  1
  O  O262  1  0.56403366  0.74354260  0.28349466  1
  O  O263  1  0.56111114  0.73565935  0.77555529  1
  O  O264  1  0.90077876  0.07094289  0.26446518  1
  O  O265  1  0.90337725  0.06630992  0.77977888  1
  O  O266  1  0.89874607  0.39691433  0.26970424  1
  O  O267  1  0.90877404  0.40636368  0.76094702  1
  O  O268  1  0.90033306  0.73551192  0.28114250  1
  O  O269  1  0.88914697  0.73691887  0.76886189  1
  O  O270  1  0.26364190  0.23901197  0.27777768  1
  O  O271  1  0.27247824  0.23694872  0.77833319  1
  O  O272  1  0.26982816  0.57496416  0.27914481  1
  O  O273  1  0.27229658  0.55660253  0.77471767  1
  O  O274  1  0.26580703  0.90565917  0.26979860  1
  O  O275  1  0.27171698  0.90070643  0.77357866  1
  O  O276  1  0.60142088  0.23360956  0.27838058  1
  O  O277  1  0.58573447  0.24952161  0.75428829  1
  O  O278  1  0.58779209  0.57355231  0.28451453  1
  O  O279  1  0.58501702  0.57848679  0.77075254  1
  O  O280  1  0.60000196  0.90339820  0.27609874  1
  O  O281  1  0.59071264  0.89625121  0.77452116  1
  O  O282  1  0.92952213  0.23711457  0.27132765  1
  O  O283  1  0.93772415  0.22987018  0.77015633  1
  O  O284  1  0.91228680  0.57384628  0.27235009  1
  O  O285  1  0.91827125  0.58212561  0.76361936  1
  O  O286  1  0.92766901  0.91176335  0.26717385  1
  O  O287  1  0.92447477  0.89687449  0.75724180  1
  O  O288  1  0.26510971  0.24041876  0.47216102  1
  O  O289  1  0.25593304  0.23380076  0.97137678  1
  O  O290  1  0.26236214  0.56372028  0.47126780  1
  O  O291  1  0.25929763  0.55989784  0.97675246  1
  O  O292  1  0.26391196  0.89180884  0.48148701  1
  O  O293  1  0.26405998  0.90771266  0.97247629  1
  O  O294  1  0.60561784  0.23754315  0.47072169  1
  O  O295  1  0.59140636  0.23064107  0.99171558  1
  O  O296  1  0.60023838  0.57535493  0.47070470  1
  O  O297  1  0.58965023  0.58242148  0.97676580  1
  O  O298  1  0.59583061  0.90025204  0.47210397  1
  O  O299  1  0.59989988  0.90179705  0.97412255  1
  O  O300  1  0.92481499  0.24815916  0.46765825  1
  O  O301  1  0.94129510  0.22944123  0.98333773  1
  O  O302  1  0.92214964  0.57745495  0.46861390  1
  O  O303  1  0.91849281  0.57692704  0.98618170  1
  O  O304  1  0.92778513  0.89459583  0.49421898  1
  O  O305  1  0.92419443  0.91346978  0.97013044  1
  O  O306  1  0.24957806  0.07852605  0.47997973  1
  O  O307  1  0.23160252  0.07359414  0.97366056  1
  O  O308  1  0.23021118  0.40458825  0.46853262  1
  O  O309  1  0.23227017  0.39741017  0.98284078  1
  O  O310  1  0.22976168  0.73181887  0.47442576  1
  O  O311  1  0.24201832  0.74708948  0.97995492  1
  O  O312  1  0.57626958  0.08456781  0.47418801  1
  O  O313  1  0.57056624  0.07760584  0.98570829  1
  O  O314  1  0.58436578  0.41071554  0.47442139  1
  O  O315  1  0.58027324  0.41397418  0.99493447  1
  O  O316  1  0.57369102  0.73325224  0.47489406  1
  O  O317  1  0.57444930  0.73768568  0.96505187  1
  O  O318  1  0.90904037  0.07660865  0.48056477  1
  O  O319  1  0.90115830  0.07485928  0.97677923  1
  O  O320  1  0.89919957  0.40650642  0.46897433  1
  O  O321  1  0.91124925  0.39607125  0.99642972  1
  O  O322  1  0.89985240  0.73042830  0.47876444  1
  O  O323  1  0.89839476  0.73639932  0.96902779  1
  O  O324  1  0.09747094  0.26240389  0.22266606  1
  O  O325  1  0.10599201  0.26907869  0.74963905  1
  O  O326  1  0.09456729  0.59087027  0.24358133  1
  O  O327  1  0.10376184  0.60214495  0.72120006  1
  O  O328  1  0.08740850  0.93369790  0.23997725  1
  O  O329  1  0.10566653  0.93463222  0.73208284  1
  O  O330  1  0.42313778  0.26368468  0.23733754  1
  O  O331  1  0.42708798  0.26825975  0.72757949  1
  O  O332  1  0.43281283  0.59984698  0.24189325  1
  O  O333  1  0.43116714  0.59308885  0.71335093  1
  O  O334  1  0.42505938  0.92744195  0.23232120  1
  O  O335  1  0.42427136  0.92472231  0.72450875  1
  O  O336  1  0.77744886  0.26424755  0.23302390  1
  O  O337  1  0.75852242  0.25674101  0.72632396  1
  O  O338  1  0.75256647  0.58399513  0.22992566  1
  O  O339  1  0.75585000  0.60785664  0.72719967  1
  O  O340  1  0.76320659  0.93807619  0.22949316  1
  O  O341  1  0.76683424  0.92447338  0.73294004  1
  O  O342  1  0.06915221  0.10038047  0.22832469  1
  O  O343  1  0.07402073  0.09358570  0.72727022  1
  O  O344  1  0.07484765  0.41433485  0.22804029  1
  O  O345  1  0.07520153  0.42852092  0.73424256  1
  O  O346  1  0.07832667  0.75877158  0.24109300  1
  O  O347  1  0.06667720  0.76861018  0.71602110  1
  O  O348  1  0.40604605  0.08906313  0.24493371  1
  O  O349  1  0.39603260  0.09232933  0.73972245  1
  O  O350  1  0.40256124  0.43015912  0.23616120  1
  O  O351  1  0.39875198  0.43372876  0.72889955  1
  O  O352  1  0.40156035  0.76665107  0.23623655  1
  O  O353  1  0.40427916  0.76197702  0.72112167  1
  O  O354  1  0.73873798  0.10098056  0.22345993  1
  O  O355  1  0.73738582  0.10002321  0.72134568  1
  O  O356  1  0.73611417  0.43104771  0.22503141  1
  O  O357  1  0.73541013  0.43201108  0.72890917  1
  O  O358  1  0.72754976  0.76596707  0.24609291  1
  O  O359  1  0.72699452  0.76685634  0.73997571  1
