# generated using pymatgen
data_BaLaInIrO6
_symmetry_space_group_name_H-M   'P 1'
_cell_length_a   17.54274942
_cell_length_b   17.56632742
_cell_length_c   16.49613307
_cell_angle_alpha   89.95848741
_cell_angle_beta   90.01991596
_cell_angle_gamma   90.08469114
_symmetry_Int_Tables_number   1
_chemical_formula_structural   BaLaInIrO6
_chemical_formula_sum   'Ba36 La36 In36 Ir36 O216'
_cell_volume   5083.46889063
_cell_formula_units_Z   36
loop_
 _symmetry_equiv_pos_site_id
 _symmetry_equiv_pos_as_xyz
  1  'x, y, z'
loop_
 _atom_site_type_symbol
 _atom_site_label
 _atom_site_symmetry_multiplicity
 _atom_site_fract_x
 _atom_site_fract_y
 _atom_site_fract_z
 _atom_site_occupancy
  Ba  Ba0  1  0.83687876  0.32313019  0.87520092  1
  Ba  Ba1  1  0.67008904  0.16753930  0.12340286  1
  Ba  Ba2  1  0.33278049  0.16130661  0.37718924  1
  Ba  Ba3  1  0.49640512  0.34353116  0.12612199  1
  Ba  Ba4  1  0.83502946  0.65636173  0.87587334  1
  Ba  Ba5  1  0.49619874  0.00906782  0.12495362  1
  Ba  Ba6  1  0.83837439  0.00546478  0.12533756  1
  Ba  Ba7  1  0.16707130  0.66138411  0.37031106  1
  Ba  Ba8  1  0.00005489  0.82979312  0.87547839  1
  Ba  Ba9  1  0.16444346  0.01217355  0.13057445  1
  Ba  Ba10  1  0.83426891  0.99336692  0.87852427  1
  Ba  Ba11  1  0.83448744  0.31874990  0.37990894  1
  Ba  Ba12  1  0.82958645  0.99694261  0.37361241  1
  Ba  Ba13  1  0.82985561  0.33339387  0.12569588  1
  Ba  Ba14  1  0.49769068  0.01046507  0.62485432  1
  Ba  Ba15  1  -0.00184264  0.15960749  0.37834537  1
  Ba  Ba16  1  0.33451661  0.84110529  0.13000479  1
  Ba  Ba17  1  0.83395915  0.67396766  0.12011859  1
  Ba  Ba18  1  0.17081143  0.32656446  0.37766413  1
  Ba  Ba19  1  0.16862512  0.32543748  0.86938036  1
  Ba  Ba20  1  0.50119123  0.99071007  0.87673092  1
  Ba  Ba21  1  0.66647111  0.15776934  0.37573670  1
  Ba  Ba22  1  0.49794351  0.67373635  0.62556862  1
  Ba  Ba23  1  0.16276680  0.01260211  0.62551683  1
  Ba  Ba24  1  0.99814658  0.50740309  0.62221005  1
  Ba  Ba25  1  -0.00647634  0.48660214  0.87266612  1
  Ba  Ba26  1  0.49991480  0.34878412  0.62298391  1
  Ba  Ba27  1  0.00493050  0.16167522  0.87826248  1
  Ba  Ba28  1  1.00215753  0.17027726  0.12811563  1
  Ba  Ba29  1  1.00348109  0.84069673  0.12825365  1
  Ba  Ba30  1  0.33944872  0.17746820  0.12448965  1
  Ba  Ba31  1  0.33231241  0.48626263  0.37296444  1
  Ba  Ba32  1  0.83340182  0.01004114  0.62398580  1
  Ba  Ba33  1  0.66770736  0.49311394  0.87889637  1
  Ba  Ba34  1  0.33152989  0.50756321  0.12464011  1
  Ba  Ba35  1  -0.00385345  0.82992785  0.37706895  1
  La  La36  1  0.67210002  0.51504347  0.62371571  1
  La  La37  1  0.67458655  0.84744194  0.12101610  1
  La  La38  1  0.66086120  0.81929888  0.37894736  1
  La  La39  1  -0.00667162  0.48245762  0.36683073  1
  La  La40  1  0.33841949  0.18945581  0.62408900  1
  La  La41  1  0.99855539  0.85377003  0.62557696  1
  La  La42  1  0.32756508  0.15071520  0.87225519  1
  La  La43  1  0.17053515  0.65204808  0.87620882  1
  La  La44  1  0.83826082  0.65395373  0.37355140  1
  La  La45  1  0.50144729  0.31664315  0.37531159  1
  La  La46  1  0.16741034  0.34009626  0.12821572  1
  La  La47  1  0.66317904  0.81569296  0.87014880  1
  La  La48  1  0.32925176  0.82993999  0.38331001  1
  La  La49  1  0.66028618  0.48040830  0.37472817  1
  La  La50  1  0.50365867  0.64751471  0.87194471  1
  La  La51  1  0.50397774  0.64569619  0.37770013  1
  La  La52  1  0.82812358  0.68487871  0.62909500  1
  La  La53  1  0.50595180  0.98453673  0.37211171  1
  La  La54  1  0.33057148  0.48438938  0.87135394  1
  La  La55  1  1.00297761  0.17894867  0.62603792  1
  La  La56  1  0.32798602  0.81831998  0.87576265  1
  La  La57  1  0.17308959  0.98540344  0.88063187  1
  La  La58  1  0.16083116  0.68164110  0.12605556  1
  La  La59  1  0.15801581  0.68485412  0.61760501  1
  La  La60  1  1.00676779  0.51440485  0.11741092  1
  La  La61  1  0.50426498  0.31866160  0.87477400  1
  La  La62  1  0.66518266  0.15503533  0.87440952  1
  La  La63  1  0.33612235  0.85140464  0.62637005  1
  La  La64  1  0.67095993  0.17921903  0.62340035  1
  La  La65  1  0.66653688  0.51125523  0.12622568  1
  La  La66  1  0.83237794  0.34133012  0.62779208  1
  La  La67  1  0.49430652  0.67368194  0.11842977  1
  La  La68  1  0.66974101  0.85425162  0.62679472  1
  La  La69  1  0.16667638  0.34601406  0.62272781  1
  La  La70  1  0.16751331  0.99234910  0.37534936  1
  La  La71  1  0.33519633  0.50831847  0.61806453  1
  In  In72  1  0.66495424  0.33239901  -0.00007054  1
  In  In73  1  0.17118604  0.17041737  0.00074287  1
  In  In74  1  0.33410374  -0.00384668  0.00177586  1
  In  In75  1  0.33602800  0.00175405  0.25410806  1
  In  In76  1  0.66581445  -0.00102239  0.25046265  1
  In  In77  1  0.00026302  -0.00063709  0.25505412  1
  In  In78  1  -0.00138789  0.66786982  0.25182316  1
  In  In79  1  0.66523290  0.66615473  0.25227288  1
  In  In80  1  0.66211163  0.66693975  0.00137130  1
  In  In81  1  0.83275030  0.50000606  0.74798671  1
  In  In82  1  0.33224943  0.66775246  0.49978451  1
  In  In83  1  0.83274954  0.83482558  0.75281897  1
  In  In84  1  0.16518321  0.50386394  0.49803797  1
  In  In85  1  0.50151370  0.82787741  0.25026706  1
  In  In86  1  0.83062337  0.49888876  0.24765891  1
  In  In87  1  0.16803162  0.49903643  -0.00236436  1
  In  In88  1  0.00444895  0.00053290  0.00149320  1
  In  In89  1  0.00213633  0.33237539  0.49927082  1
  In  In90  1  0.16710015  0.50243476  0.74736406  1
  In  In91  1  0.49815241  0.83062957  0.50403790  1
  In  In92  1  0.83180064  0.50116264  0.49760423  1
  In  In93  1  0.49875370  0.16621507  -0.00145620  1
  In  In94  1  0.83081748  0.83454219  0.49598067  1
  In  In95  1  0.83470451  0.16509571  -0.00179355  1
  In  In96  1  0.16645612  0.83270206  0.74773783  1
  In  In97  1  0.33480801  0.00690904  0.50257696  1
  In  In98  1  0.00320833  0.00591052  0.75276771  1
  In  In99  1  0.49770808  0.83325543  0.75093482  1
  In  In100  1  0.16549504  0.50018088  0.24882073  1
  In  In101  1  0.33715561  0.66692256  0.24998662  1
  In  In102  1  0.66378236  0.33062862  0.24866153  1
  In  In103  1  0.33075462  0.66603303  0.74859807  1
  In  In104  1  0.49824779  0.16598019  0.74721917  1
  In  In105  1  0.66477534  0.33521382  0.75029033  1
  In  In106  1  -0.00007652  0.66839588  0.74653886  1
  In  In107  1  0.83381401  0.49825261  0.00429965  1
  Ir  Ir108  1  0.17075417  0.82892699  0.00067414  1
  Ir  Ir109  1  0.17019343  0.83513806  0.25730821  1
  Ir  Ir110  1  0.16951969  0.16763044  0.50334617  1
  Ir  Ir111  1  0.50039748  0.82793751  -0.00362877  1
  Ir  Ir112  1  0.66109160  0.66604079  0.74540403  1
  Ir  Ir113  1  0.66396167  0.33184913  0.50182684  1
  Ir  Ir114  1  0.50040144  0.49601479  0.25217155  1
  Ir  Ir115  1  0.66278199  0.00203193  0.50201551  1
  Ir  Ir116  1  0.66828754  0.66625163  0.50260024  1
  Ir  Ir117  1  -0.00417604  0.66942530  0.49786413  1
  Ir  Ir118  1  0.33503415  0.33217738  0.24985052  1
  Ir  Ir119  1  0.00187820  0.33336611  0.00293834  1
  Ir  Ir120  1  0.49848356  0.16756546  0.25478779  1
  Ir  Ir121  1  0.00519823  0.67246423  -0.00048612  1
  Ir  Ir122  1  0.66700389  0.00169988  0.75008011  1
  Ir  Ir123  1  0.33615038  0.33535095  0.74829224  1
  Ir  Ir124  1  0.66616410  -0.00675337  -0.00619994  1
  Ir  Ir125  1  0.50441140  0.49770283  0.49987143  1
  Ir  Ir126  1  0.16917310  0.17236376  0.25603176  1
  Ir  Ir127  1  0.82677505  0.83237100  0.24815232  1
  Ir  Ir128  1  0.33675650  0.33231424  0.50136891  1
  Ir  Ir129  1  0.83514779  0.16674242  0.25449953  1
  Ir  Ir130  1  0.83054910  0.83229183  0.00186627  1
  Ir  Ir131  1  0.33711466  0.33588195  -0.00543253  1
  Ir  Ir132  1  0.17226503  0.16923525  0.74488643  1
  Ir  Ir133  1  0.00207743  0.00375835  0.50223104  1
  Ir  Ir134  1  -0.00094876  0.33297747  0.24594651  1
  Ir  Ir135  1  0.16402719  0.83547670  0.49841686  1
  Ir  Ir136  1  0.49698215  0.50014761  0.74824397  1
  Ir  Ir137  1  0.32974894  0.00190770  0.74979185  1
  Ir  Ir138  1  0.49320795  0.49943886  -0.00252612  1
  Ir  Ir139  1  0.33544832  0.66785002  -0.00301423  1
  Ir  Ir140  1  0.83444808  0.16536140  0.50433797  1
  Ir  Ir141  1  0.83289784  0.16707474  0.74483031  1
  Ir  Ir142  1  -0.00024322  0.32669744  0.74800154  1
  Ir  Ir143  1  0.50225178  0.16813625  0.50067098  1
  O  O144  1  0.30525402  0.33176067  0.11917701  1
  O  O145  1  0.30504119  0.32921970  0.62562433  1
  O  O146  1  0.30003277  0.66462228  0.11506854  1
  O  O147  1  0.29589666  0.64722506  0.62495893  1
  O  O148  1  0.31400442  0.99832386  0.12814591  1
  O  O149  1  0.30907488  0.99048826  0.63114746  1
  O  O150  1  0.64296958  0.32048344  0.12504780  1
  O  O151  1  0.64578150  0.31717193  0.62103202  1
  O  O152  1  0.62829852  0.65491914  0.12671394  1
  O  O153  1  0.64105433  0.65104456  0.62277322  1
  O  O154  1  0.64519515  0.98453913  0.11626846  1
  O  O155  1  0.64425371  0.99118673  0.62598113  1
  O  O156  1  0.97893646  0.32732135  0.12400793  1
  O  O157  1  0.97183109  0.31895664  0.62858426  1
  O  O158  1  0.98462358  0.66850430  0.12011446  1
  O  O159  1  0.96364257  0.66413033  0.61292965  1
  O  O160  1  0.99281616  0.99704271  0.12953742  1
  O  O161  1  0.98564927  1.00138003  0.62162356  1
  O  O162  1  0.18867274  0.17505121  0.13602502  1
  O  O163  1  0.20198067  0.16536291  0.62417893  1
  O  O164  1  0.18229270  0.48108312  0.12185898  1
  O  O165  1  0.20072377  0.48754098  0.62433205  1
  O  O166  1  0.18914771  0.81732900  0.13045786  1
  O  O167  1  0.19973468  0.82293824  0.61782095  1
  O  O168  1  0.51613719  0.16789445  0.13330094  1
  O  O169  1  0.53219545  0.16586066  0.61947079  1
  O  O170  1  0.52855163  0.49636005  0.12479861  1
  O  O171  1  0.53408188  0.49841627  0.62488314  1
  O  O172  1  0.53798964  0.81751432  0.11531901  1
  O  O173  1  0.53629446  0.83155582  0.62774882  1
  O  O174  1  0.84669385  0.16785535  0.13421976  1
  O  O175  1  0.86427144  0.16693514  0.62398173  1
  O  O176  1  0.87321967  0.50138763  0.12642502  1
  O  O177  1  0.85014260  0.48057821  0.62075829  1
  O  O178  1  0.85319897  0.83089264  0.12597257  1
  O  O179  1  0.85829916  0.82342957  0.62133305  1
  O  O180  1  0.14639194  0.17498816  0.38211409  1
  O  O181  1  0.15638625  0.17289572  0.86337452  1
  O  O182  1  0.12942011  0.49853746  0.37303941  1
  O  O183  1  0.14209649  0.51079751  0.87416992  1
  O  O184  1  0.14124746  0.85058326  0.37741247  1
  O  O185  1  0.15159915  0.84064109  0.88168297  1
  O  O186  1  0.47930938  0.17663135  0.37914128  1
  O  O187  1  0.46312658  0.17581662  0.86977426  1
  O  O188  1  0.47780704  0.50795291  0.37561851  1
  O  O189  1  0.46428043  0.51109733  0.87305510  1
  O  O190  1  0.46745396  0.84469476  0.37928303  1
  O  O191  1  0.46509279  0.83429730  0.87837880  1
  O  O192  1  0.81525377  0.16206681  0.38222895  1
  O  O193  1  0.80169741  0.16773177  0.86287022  1
  O  O194  1  0.79545612  0.51361667  0.37611167  1
  O  O195  1  0.82062558  0.49656890  0.87587891  1
  O  O196  1  0.79761299  0.83458374  0.36915591  1
  O  O197  1  0.80008165  0.83250105  0.88149963  1
  O  O198  1  0.02912477  0.00115080  0.38246020  1
  O  O199  1  0.03713362  0.00015294  0.87629144  1
  O  O200  1  0.02052673  0.33891142  0.36648416  1
  O  O201  1  0.02147789  0.33172012  0.87792526  1
  O  O202  1  0.01986988  0.67636340  0.38122703  1
  O  O203  1  0.03416023  0.67460384  0.87848989  1
  O  O204  1  0.37109680  0.00202323  0.37975762  1
  O  O205  1  0.35017828  0.00959520  0.86762880  1
  O  O206  1  0.36574232  0.33258450  0.37666399  1
  O  O207  1  0.36861986  0.34504397  0.87118422  1
  O  O208  1  0.37175411  0.68572663  0.37598610  1
  O  O209  1  0.36956045  0.68010268  0.87895733  1
  O  O210  1  0.67859045  0.00313107  0.38316621  1
  O  O211  1  0.68834154  0.01394179  0.87062409  1
  O  O212  1  0.68362867  0.34232833  0.38118963  1
  O  O213  1  0.68671426  0.34202295  0.87381656  1
  O  O214  1  0.70219699  0.67883092  0.38474363  1
  O  O215  1  0.68252386  0.67485985  0.86692900  1
  O  O216  1  0.08138389  0.09505286  0.01625458  1
  O  O217  1  0.07062298  0.10302993  0.52315660  1
  O  O218  1  0.06653522  0.42764674  0.02210728  1
  O  O219  1  0.08443617  0.41724063  0.52610292  1
  O  O220  1  0.08202498  0.75736181  0.02470523  1
  O  O221  1  0.06630364  0.76550136  0.52738961  1
  O  O222  1  0.40827721  0.09070228  0.00745314  1
  O  O223  1  0.40668822  0.10643424  0.52821419  1
  O  O224  1  0.39872207  0.43438678  0.00948308  1
  O  O225  1  0.40383033  0.43148756  0.52139896  1
  O  O226  1  0.40891358  0.75773666  0.02403768  1
  O  O227  1  0.39695996  0.76507862  0.53230390  1
  O  O228  1  0.73781782  0.07947859  0.00936091  1
  O  O229  1  0.73274153  0.09842931  0.52601397  1
  O  O230  1  0.73185943  0.43188933  0.03221286  1
  O  O231  1  0.72841239  0.42634459  0.52165757  1
  O  O232  1  0.73405627  0.76596818  0.01893910  1
  O  O233  1  0.72832735  0.76259486  0.52967654  1
  O  O234  1  0.10131333  0.27230837  0.01901975  1
  O  O235  1  0.10034039  0.25737424  0.53035047  1
  O  O236  1  0.09778668  0.60320385  0.02233464  1
  O  O237  1  0.09191577  0.60602926  0.52345505  1
  O  O238  1  0.10563465  0.92076707  0.01541748  1
  O  O239  1  0.08890978  0.92403389  0.52502796  1
  O  O240  1  0.42833208  0.27051350  0.00803005  1
  O  O241  1  0.43152851  0.26207907  0.51853883  1
  O  O242  1  0.42856441  0.59913807  0.02078918  1
  O  O243  1  0.43176041  0.58618689  0.51645306  1
  O  O244  1  0.43214079  0.91614720  0.01673072  1
  O  O245  1  0.41801659  0.92213435  0.52769453  1
  O  O246  1  0.75541928  0.25041150  0.01001499  1
  O  O247  1  0.76153421  0.26036066  0.52916529  1
  O  O248  1  0.74960620  0.58836479  0.01920044  1
  O  O249  1  0.76289823  0.60225224  0.52910718  1
  O  O250  1  0.75557860  0.91866986  0.02367464  1
  O  O251  1  0.75030350  0.92721907  0.52017483  1
  O  O252  1  0.23367011  0.07671340  0.27939522  1
  O  O253  1  0.23483096  0.07009111  0.77476977  1
  O  O254  1  0.24202449  0.40015003  0.25877977  1
  O  O255  1  0.24800598  0.40580816  0.76667266  1
  O  O256  1  0.25208690  0.75667871  0.27619906  1
  O  O257  1  0.23436714  0.73658954  0.78099243  1
  O  O258  1  0.56407606  0.07093531  0.27096797  1
  O  O259  1  0.57888135  0.07319936  0.76850682  1
  O  O260  1  0.56443734  0.40456409  0.28023536  1
  O  O261  1  0.55880362  0.40505683  0.77137896  1
  O  O262  1  0.57344673  0.73485219  0.29215864  1
  O  O263  1  0.56815944  0.73288290  0.77587376  1
  O  O264  1  0.90893035  0.08085720  0.26584331  1
  O  O265  1  0.90242578  0.07881623  0.76477307  1
  O  O266  1  0.90934641  0.40359700  0.27169063  1
  O  O267  1  0.90654792  0.39304341  0.75533126  1
  O  O268  1  0.89449433  0.73847738  0.27057589  1
  O  O269  1  0.89764197  0.73437349  0.75859268  1
  O  O270  1  0.26328309  0.24191810  0.26831551  1
  O  O271  1  0.27417402  0.23239292  0.76410797  1
  O  O272  1  0.25783805  0.57871447  0.26485619  1
  O  O273  1  0.26403979  0.57098719  0.78474690  1
  O  O274  1  0.25529226  0.91109201  0.28663934  1
  O  O275  1  0.26617565  0.90619618  0.77535070  1
  O  O276  1  0.58419842  0.24034192  0.27569011  1
  O  O277  1  0.59635833  0.23566219  0.77379437  1
  O  O278  1  0.59323344  0.56245467  0.27883875  1
  O  O279  1  0.59176535  0.57043464  0.76910210  1
  O  O280  1  0.59819864  0.90001226  0.27775720  1
  O  O281  1  0.60287870  0.90420787  0.77319555  1
  O  O282  1  0.92781021  0.24083822  0.26822863  1
  O  O283  1  0.93087695  0.23121746  0.76194823  1
  O  O284  1  0.92553752  0.57356432  0.28217074  1
  O  O285  1  0.92969057  0.57120156  0.75872394  1
  O  O286  1  0.91599222  0.90374249  0.26607259  1
  O  O287  1  0.92814290  0.90875759  0.75571005  1
  O  O288  1  0.26909853  0.23357893  0.49427568  1
  O  O289  1  0.27384490  0.23981290  0.97388148  1
  O  O290  1  0.25971427  0.57451129  0.47646774  1
  O  O291  1  0.26700660  0.57784300  0.96841746  1
  O  O292  1  0.25432525  0.90756133  0.47668629  1
  O  O293  1  0.26287977  0.89720962  0.97485399  1
  O  O294  1  0.59291947  0.24048400  0.47864204  1
  O  O295  1  0.58929835  0.23770073  0.96313025  1
  O  O296  1  0.60258105  0.56553998  0.47555420  1
  O  O297  1  0.57974443  0.57257984  0.98015740  1
  O  O298  1  0.59573169  0.90712182  0.47715520  1
  O  O299  1  0.59796702  0.89307374  0.97073162  1
  O  O300  1  0.92581014  0.23619295  0.49202369  1
  O  O301  1  0.93352393  0.24385479  0.98846112  1
  O  O302  1  0.93269331  0.57588961  0.46819979  1
  O  O303  1  0.93667352  0.58148314  0.98791437  1
  O  O304  1  0.93019954  0.91179377  0.49274256  1
  O  O305  1  0.91988935  0.90388409  0.98766626  1
  O  O306  1  0.23167435  0.07220851  0.47806394  1
  O  O307  1  0.24021893  0.07147122  0.97132243  1
  O  O308  1  0.24836628  0.40148732  0.48876274  1
  O  O309  1  0.24843806  0.40634303  0.97515724  1
  O  O310  1  0.23687061  0.75029769  0.47508302  1
  O  O311  1  0.24030798  0.73462399  0.97072440  1
  O  O312  1  0.56418817  0.06942613  0.47788476  1
  O  O313  1  0.58366474  0.07227560  0.97943955  1
  O  O314  1  0.57115276  0.40243534  0.47281895  1
  O  O315  1  0.55692121  0.40648624  0.97377160  1
  O  O316  1  0.57265694  0.72998476  0.47394274  1
  O  O317  1  0.56455126  0.73651126  0.96780327  1
  O  O318  1  0.90752237  0.07231201  0.48287955  1
  O  O319  1  0.91043933  0.07618004  0.98479299  1
  O  O320  1  0.91600301  0.41458858  0.47456927  1
  O  O321  1  0.91091420  0.40080618  0.98930833  1
  O  O322  1  0.89677985  0.73036502  0.47571416  1
  O  O323  1  0.90864138  0.74280726  0.97893158  1
  O  O324  1  0.09999804  0.26913946  0.22911639  1
  O  O325  1  0.10232412  0.26125532  0.71917466  1
  O  O326  1  0.08920982  0.59170478  0.21583622  1
  O  O327  1  0.10414054  0.60483647  0.72127726  1
  O  O328  1  0.09735186  0.92139720  0.24322522  1
  O  O329  1  0.09388226  0.92590673  0.73293200  1
  O  O330  1  0.43187437  0.26505832  0.24391120  1
  O  O331  1  0.42419598  0.26499786  0.72624975  1
  O  O332  1  0.43891245  0.59097226  0.23055371  1
  O  O333  1  0.42829343  0.59026227  0.73187515  1
  O  O334  1  0.43107984  0.92514259  0.23810176  1
  O  O335  1  0.42007861  0.93082152  0.73215672  1
  O  O336  1  0.76042487  0.25223066  0.24785972  1
  O  O337  1  0.76602535  0.25866584  0.72000762  1
  O  O338  1  0.75466495  0.59281595  0.22524025  1
  O  O339  1  0.75574801  0.59988797  0.72060720  1
  O  O340  1  0.75780096  0.92107836  0.22782738  1
  O  O341  1  0.75266298  0.92668927  0.73027367  1
  O  O342  1  0.08286086  0.09982518  0.24656950  1
  O  O343  1  0.07499726  0.10783889  0.72574166  1
  O  O344  1  0.06139173  0.42723352  0.22505586  1
  O  O345  1  0.07459416  0.41419895  0.72778877  1
  O  O346  1  0.08766474  0.75457267  0.23761489  1
  O  O347  1  0.06881566  0.76489162  0.71190910  1
  O  O348  1  0.41023542  0.09952817  0.23859232  1
  O  O349  1  0.39239037  0.09849475  0.72643858  1
  O  O350  1  0.40506999  0.42618213  0.23217076  1
  O  O351  1  0.39627567  0.43739440  0.72682301  1
  O  O352  1  0.42048083  0.74624996  0.21322198  1
  O  O353  1  0.39490479  0.76863215  0.72659550  1
  O  O354  1  0.74775701  0.09087617  0.24117596  1
  O  O355  1  0.73237147  0.10288870  0.72575481  1
  O  O356  1  0.72706171  0.43367551  0.23179217  1
  O  O357  1  0.73382160  0.42980632  0.71843396  1
  O  O358  1  0.73204396  0.76897832  0.22786125  1
  O  O359  1  0.72641790  0.76220145  0.72445391  1
