# generated using pymatgen
data_BaLaInIrO6
_symmetry_space_group_name_H-M   'P 1'
_cell_length_a   17.52632813
_cell_length_b   17.55767497
_cell_length_c   16.50326508
_cell_angle_alpha   90.04306646
_cell_angle_beta   89.97528009
_cell_angle_gamma   90.00251428
_symmetry_Int_Tables_number   1
_chemical_formula_structural   BaLaInIrO6
_chemical_formula_sum   'Ba36 La36 In36 Ir36 O216'
_cell_volume   5078.40877468
_cell_formula_units_Z   36
loop_
 _symmetry_equiv_pos_site_id
 _symmetry_equiv_pos_as_xyz
  1  'x, y, z'
loop_
 _atom_site_type_symbol
 _atom_site_label
 _atom_site_symmetry_multiplicity
 _atom_site_fract_x
 _atom_site_fract_y
 _atom_site_fract_z
 _atom_site_occupancy
  Ba  Ba0  1  0.66346243  0.82652541  0.38062400  1
  Ba  Ba1  1  0.83147382  0.00876690  0.62355278  1
  Ba  Ba2  1  0.67081948  0.49684426  0.37570338  1
  Ba  Ba3  1  0.49899096  0.00669941  0.62754855  1
  Ba  Ba4  1  0.83763611  0.32135397  0.87540304  1
  Ba  Ba5  1  0.33654401  0.16221773  0.87274309  1
  Ba  Ba6  1  0.50047937  0.33833934  0.62091499  1
  Ba  Ba7  1  0.33619478  0.50526760  0.62897747  1
  Ba  Ba8  1  0.16849117  0.32648711  0.87226684  1
  Ba  Ba9  1  0.49851719  0.00798234  0.12761413  1
  Ba  Ba10  1  0.49523516  0.67351331  0.62225572  1
  Ba  Ba11  1  0.50135355  0.33700007  0.12901923  1
  Ba  Ba12  1  0.83212312  0.67927744  0.12378363  1
  Ba  Ba13  1  0.83347197  0.65748047  0.87169838  1
  Ba  Ba14  1  0.16399027  0.34517632  0.62646715  1
  Ba  Ba15  1  0.32685837  0.49180612  0.38000481  1
  Ba  Ba16  1  0.33546462  0.82448191  0.87182341  1
  Ba  Ba17  1  0.50121826  0.67279807  0.12299901  1
  Ba  Ba18  1  -0.00452182  0.82446327  0.36956450  1
  Ba  Ba19  1  0.83375572  0.98956856  0.37507594  1
  Ba  Ba20  1  0.16615175  0.00838786  0.12591732  1
  Ba  Ba21  1  0.99769081  0.84268363  0.12428265  1
  Ba  Ba22  1  0.16764494  0.99189025  0.37367734  1
  Ba  Ba23  1  1.00322420  0.84328424  0.62195400  1
  Ba  Ba24  1  0.83185638  0.34583029  0.12750035  1
  Ba  Ba25  1  0.33314955  0.17223844  0.12796420  1
  Ba  Ba26  1  0.49996118  0.65629510  0.87306338  1
  Ba  Ba27  1  0.83195585  0.00837067  0.12529706  1
  Ba  Ba28  1  0.33382309  0.15893186  0.37825534  1
  Ba  Ba29  1  0.33695270  0.49486432  0.87626621  1
  Ba  Ba30  1  0.66607031  0.15882990  0.37198387  1
  Ba  Ba31  1  0.15938519  0.66007758  0.37515651  1
  Ba  Ba32  1  0.66606908  0.50856999  0.62440222  1
  Ba  Ba33  1  0.83240210  0.99308333  0.87383989  1
  Ba  Ba34  1  0.67411639  0.17851622  0.62358109  1
  Ba  Ba35  1  0.99942015  0.17532189  0.62542635  1
  La  La36  1  0.33835524  0.84996827  0.12323787  1
  La  La37  1  0.33340840  0.50972571  0.12719365  1
  La  La38  1  0.33597993  0.18352771  0.62449697  1
  La  La39  1  0.49888320  0.33227705  0.86333528  1
  La  La40  1  -0.00118382  0.82016562  0.87680297  1
  La  La41  1  -0.00504265  0.14493662  0.37286459  1
  La  La42  1  0.67253938  0.51790759  0.12233927  1
  La  La43  1  0.83430436  0.66348613  0.37043252  1
  La  La44  1  0.82289389  0.67933311  0.62248983  1
  La  La45  1  0.17968426  0.65278911  0.87294220  1
  La  La46  1  0.66066602  0.81568373  0.87668951  1
  La  La47  1  0.67634019  0.84929550  0.12436987  1
  La  La48  1  0.67276737  0.18250995  0.12458143  1
  La  La49  1  0.15794558  0.68379313  0.12672100  1
  La  La50  1  0.50566843  0.98570650  0.37385521  1
  La  La51  1  -0.00387487  0.48302932  0.87388494  1
  La  La52  1  1.00880009  0.17953795  0.12427895  1
  La  La53  1  0.82638739  0.34681703  0.62435365  1
  La  La54  1  -0.00738525  0.48899892  0.37678527  1
  La  La55  1  0.66090810  0.15211101  0.87367959  1
  La  La56  1  0.32848284  0.82309367  0.37191571  1
  La  La57  1  1.00332692  0.51847360  0.12679132  1
  La  La58  1  0.33753701  0.84268205  0.62440404  1
  La  La59  1  0.17138326  0.98827449  0.87340625  1
  La  La60  1  0.16060090  0.01707898  0.62371671  1
  La  La61  1  1.00299262  0.51225100  0.62739141  1
  La  La62  1  0.66118069  0.48918914  0.87676521  1
  La  La63  1  0.50122450  0.31893901  0.37582091  1
  La  La64  1  0.17001827  0.31792179  0.38115507  1
  La  La65  1  -0.00256643  0.15395567  0.87350714  1
  La  La66  1  0.16666522  0.67626591  0.62234476  1
  La  La67  1  0.50720132  0.97724640  0.87551072  1
  La  La68  1  0.50223100  0.64948595  0.37728452  1
  La  La69  1  0.84050240  0.31325357  0.37548956  1
  La  La70  1  0.16333553  0.34275948  0.12585167  1
  La  La71  1  0.66949567  0.84590516  0.63062933  1
  In  In72  1  0.83331218  0.83220668  0.50054637  1
  In  In73  1  0.49973723  0.16338789  0.50049514  1
  In  In74  1  0.33003024  0.33614797  0.75095336  1
  In  In75  1  0.16878612  0.16637386  -0.00367010  1
  In  In76  1  0.50044317  0.16665800  -0.00082361  1
  In  In77  1  0.16565103  0.49858418  0.00216083  1
  In  In78  1  0.50237395  0.50238813  0.74638530  1
  In  In79  1  0.83320850  0.50058766  -0.00255791  1
  In  In80  1  0.66415022  0.00021346  0.50105029  1
  In  In81  1  0.66754348  0.33201715  -0.00135899  1
  In  In82  1  0.83556576  0.83226935  0.75247588  1
  In  In83  1  0.83287250  0.83474388  -0.00392034  1
  In  In84  1  0.16666502  0.83523570  -0.00126406  1
  In  In85  1  0.33171828  0.66648326  0.49813125  1
  In  In86  1  0.83590437  0.50143584  0.50073621  1
  In  In87  1  0.83730870  0.16544821  0.50113370  1
  In  In88  1  -0.00181007  0.66570865  0.50325843  1
  In  In89  1  0.33071154  0.66622929  0.24830550  1
  In  In90  1  0.83661851  0.16758218  0.00229564  1
  In  In91  1  0.66466335  0.00246272  0.00193546  1
  In  In92  1  0.33521951  0.00059524  0.25484094  1
  In  In93  1  0.16587636  0.16744223  0.25230738  1
  In  In94  1  0.49913432  0.49436171  0.00420976  1
  In  In95  1  0.33153169  0.66736787  0.00241871  1
  In  In96  1  0.66886255  0.34005414  0.25166318  1
  In  In97  1  0.00159431  -0.00079691  0.75046559  1
  In  In98  1  0.33192870  0.00165480  0.74864557  1
  In  In99  1  0.00045867  0.33677142  0.25042242  1
  In  In100  1  0.00344116  0.66467151  -0.00538217  1
  In  In101  1  0.66969935  0.33628482  0.49666101  1
  In  In102  1  0.50010674  0.16614064  0.74868817  1
  In  In103  1  0.00126313  0.33238032  0.50052563  1
  In  In104  1  0.33211722  0.33533097  0.25212673  1
  In  In105  1  0.16630522  0.83377392  0.74590249  1
  In  In106  1  0.66541180  0.66936989  0.25316058  1
  In  In107  1  0.49899694  0.82936350  0.24783383  1
  Ir  Ir108  1  0.83702934  0.50036285  0.75046817  1
  Ir  Ir109  1  -0.00009872  0.66437099  0.24964436  1
  Ir  Ir110  1  -0.00349201  0.33367941  0.75208276  1
  Ir  Ir111  1  0.83190462  0.16758850  0.75355082  1
  Ir  Ir112  1  0.83666485  0.50562389  0.24999347  1
  Ir  Ir113  1  0.66835730  0.66614006  0.74743619  1
  Ir  Ir114  1  0.16790374  0.16556265  0.50253338  1
  Ir  Ir115  1  0.67534899  0.33572152  0.75159122  1
  Ir  Ir116  1  0.33076963  0.33287772  0.00446502  1
  Ir  Ir117  1  0.49404185  0.83297470  0.50321709  1
  Ir  Ir118  1  0.00346379  0.66325354  0.74948003  1
  Ir  Ir119  1  0.33020102  -0.00280109  0.50377297  1
  Ir  Ir120  1  0.16235756  0.16821450  0.74938910  1
  Ir  Ir121  1  0.50391084  0.16629194  0.25145082  1
  Ir  Ir122  1  0.00159896  0.33343000  0.00018562  1
  Ir  Ir123  1  0.00576360  -0.00218077  0.49820628  1
  Ir  Ir124  1  0.49966683  0.49852994  0.25070006  1
  Ir  Ir125  1  0.16078669  0.50401267  0.74629745  1
  Ir  Ir126  1  0.83021469  0.83398959  0.24900171  1
  Ir  Ir127  1  0.66540247  0.66736718  -0.00171942  1
  Ir  Ir128  1  -0.00217699  -0.00118890  0.24650471  1
  Ir  Ir129  1  0.00390318  0.00350833  -0.00060103  1
  Ir  Ir130  1  0.50325252  0.83070971  -0.00073234  1
  Ir  Ir131  1  0.33759336  -0.00225112  -0.00436617  1
  Ir  Ir132  1  0.33108841  0.33500160  0.49800748  1
  Ir  Ir133  1  0.16224712  0.50014394  0.25352072  1
  Ir  Ir134  1  0.66637361  -0.00077513  0.75277010  1
  Ir  Ir135  1  0.83769468  0.16325204  0.24828392  1
  Ir  Ir136  1  0.32963301  0.66754691  0.74798483  1
  Ir  Ir137  1  0.16188733  0.50189479  0.50237296  1
  Ir  Ir138  1  0.16581930  0.83280003  0.25298686  1
  Ir  Ir139  1  0.66269335  0.66840018  0.50400185  1
  Ir  Ir140  1  0.17107732  0.83429570  0.49637058  1
  Ir  Ir141  1  0.49729386  0.49873416  0.49355643  1
  Ir  Ir142  1  0.66554458  0.00017768  0.25128414  1
  Ir  Ir143  1  0.50336804  0.82950116  0.74762385  1
  O  O144  1  0.29914696  0.32857283  0.12470268  1
  O  O145  1  0.31198495  0.32847055  0.61829809  1
  O  O146  1  0.29318472  0.64966191  0.12686942  1
  O  O147  1  0.30367078  0.66821752  0.62711322  1
  O  O148  1  0.31707150  0.98915632  0.11822021  1
  O  O149  1  0.29606046  0.98315156  0.62030021  1
  O  O150  1  0.65319527  0.32267508  0.12851064  1
  O  O151  1  0.65670844  0.33229348  0.63161066  1
  O  O152  1  0.65092050  0.65561161  0.12091808  1
  O  O153  1  0.64179212  0.66125897  0.62670520  1
  O  O154  1  0.64719120  0.98936265  0.13171020  1
  O  O155  1  0.64733066  0.98859014  0.63297287  1
  O  O156  1  0.98008171  0.32005532  0.11987813  1
  O  O157  1  0.96507187  0.33183350  0.63144124  1
  O  O158  1  0.98201734  0.65919026  0.12926514  1
  O  O159  1  0.96348898  0.65400339  0.63331806  1
  O  O160  1  0.97903139  0.99729082  0.12181974  1
  O  O161  1  0.98470465  1.00004138  0.61801483  1
  O  O162  1  0.17951125  0.16751253  0.12312129  1
  O  O163  1  0.19852663  0.15687439  0.62626742  1
  O  O164  1  0.19576344  0.48483043  0.13506735  1
  O  O165  1  0.18879475  0.50140337  0.62374900  1
  O  O166  1  0.19790555  0.82703561  0.13180737  1
  O  O167  1  0.20017179  0.82073813  0.61613043  1
  O  O168  1  0.53341605  0.16325265  0.13048577  1
  O  O169  1  0.52512025  0.16713916  0.62482039  1
  O  O170  1  0.53590275  0.49228667  0.13231490  1
  O  O171  1  0.51619795  0.49741124  0.61476468  1
  O  O172  1  0.53695072  0.83060371  0.11850434  1
  O  O173  1  0.53230232  0.82810445  0.62519234  1
  O  O174  1  0.87164957  0.16337920  0.13056948  1
  O  O175  1  0.84977723  0.16707383  0.63353828  1
  O  O176  1  0.86314820  0.50312202  0.12952301  1
  O  O177  1  0.86796617  0.48957469  0.63164062  1
  O  O178  1  0.84472506  0.83507792  0.12791646  1
  O  O179  1  0.85384078  0.81814625  0.62752193  1
  O  O180  1  0.13308874  0.17270901  0.38219232  1
  O  O181  1  0.13305202  0.17186973  0.86983092  1
  O  O182  1  0.12808681  0.50634623  0.37753605  1
  O  O183  1  0.13189479  0.51191619  0.86741322  1
  O  O184  1  0.14152426  0.83767333  0.37587438  1
  O  O185  1  0.13199603  0.84785442  0.87150364  1
  O  O186  1  0.48259586  0.17555893  0.37150448  1
  O  O187  1  0.48645430  0.19334817  0.87337597  1
  O  O188  1  0.47373948  0.51196773  0.37062245  1
  O  O189  1  0.49147112  0.49847989  0.87532460  1
  O  O190  1  0.46515551  0.84368570  0.38274995  1
  O  O191  1  0.48200611  0.83728912  0.87296954  1
  O  O192  1  0.81716803  0.16931564  0.36766507  1
  O  O193  1  0.80223633  0.16541113  0.87195978  1
  O  O194  1  0.82351641  0.52373827  0.37041374  1
  O  O195  1  0.79976720  0.50349369  0.86793766  1
  O  O196  1  0.81649420  0.82469532  0.37008791  1
  O  O197  1  0.79691509  0.83038077  0.87248072  1
  O  O198  1  0.02135722  0.00692298  0.37093506  1
  O  O199  1  0.03437171  0.01490782  0.87977928  1
  O  O200  1  0.03553522  0.35210707  0.37455256  1
  O  O201  1  0.02270602  0.34625295  0.87630278  1
  O  O202  1  0.00724846  0.66335697  0.37154486  1
  O  O203  1  0.04217399  0.67496383  0.86665601  1
  O  O204  1  0.36686382  -0.00032038  0.38660962  1
  O  O205  1  0.36997646  0.00132336  0.87652402  1
  O  O206  1  0.36348658  0.33852342  0.37983083  1
  O  O207  1  0.36024374  0.33774708  0.88367813  1
  O  O208  1  0.36500111  0.68133167  0.37288401  1
  O  O209  1  0.34873422  0.66676238  0.86816751  1
  O  O210  1  0.68219010  -0.00228082  0.36935891  1
  O  O211  1  0.68447042  0.00956597  0.87117345  1
  O  O212  1  0.70723344  0.33862624  0.37082401  1
  O  O213  1  0.69220620  0.35211515  0.87014045  1
  O  O214  1  0.69511020  0.67072113  0.38438269  1
  O  O215  1  0.68686019  0.67928203  0.87257940  1
  O  O216  1  0.06430004  0.10039831  0.02027932  1
  O  O217  1  0.08147204  0.08820940  0.52385821  1
  O  O218  1  0.06507189  0.42907139  0.02594930  1
  O  O219  1  0.06853962  0.43646842  0.52456504  1
  O  O220  1  0.07752859  0.75747161  0.02175819  1
  O  O221  1  0.08326691  0.75769955  0.51801311  1
  O  O222  1  0.40376781  0.08820575  0.01548143  1
  O  O223  1  0.39298759  0.09160509  0.52908203  1
  O  O224  1  0.39430026  0.42643987  0.03042815  1
  O  O225  1  0.40627367  0.42410186  0.51859685  1
  O  O226  1  0.40662306  0.76649027  0.02519967  1
  O  O227  1  0.40219972  0.76661779  0.52427423  1
  O  O228  1  0.73365527  0.10126621  0.02359652  1
  O  O229  1  0.74397120  0.09039223  0.51128972  1
  O  O230  1  0.72919443  0.44007589  0.01861360  1
  O  O231  1  0.74418041  0.42918541  0.52084801  1
  O  O232  1  0.72650669  0.76392289  0.01761579  1
  O  O233  1  0.72897880  0.75805745  0.53204685  1
  O  O234  1  0.09531952  0.26941486  0.02189684  1
  O  O235  1  0.09970465  0.25762697  0.51740750  1
  O  O236  1  0.09480130  0.59188050  0.03603836  1
  O  O237  1  0.09690836  0.59513213  0.53083296  1
  O  O238  1  0.09554195  0.93673818  0.01136259  1
  O  O239  1  0.10310795  0.92798657  0.52282046  1
  O  O240  1  0.42068173  0.26345109  0.02002781  1
  O  O241  1  0.41490514  0.25649872  0.51525362  1
  O  O242  1  0.41898463  0.58452046  0.02457706  1
  O  O243  1  0.42539881  0.58848277  0.50736978  1
  O  O244  1  0.42945161  0.92286393  0.01908818  1
  O  O245  1  0.41831225  0.92172397  0.53284779  1
  O  O246  1  0.76691060  0.26313689  0.01841012  1
  O  O247  1  0.77430527  0.26938014  0.51353320  1
  O  O248  1  0.75708292  0.59971973  0.01423977  1
  O  O249  1  0.76182409  0.60387620  0.52102970  1
  O  O250  1  0.75461468  0.92395008  0.01726141  1
  O  O251  1  0.74856827  0.91520772  0.52009494  1
  O  O252  1  0.24433566  0.07612819  0.26473466  1
  O  O253  1  0.22669923  0.07370947  0.77090565  1
  O  O254  1  0.22303681  0.40530948  0.27708986  1
  O  O255  1  0.23664471  0.41815239  0.76581275  1
  O  O256  1  0.23598312  0.74546489  0.27232860  1
  O  O257  1  0.23612278  0.73418441  0.76805530  1
  O  O258  1  0.57114465  0.06873920  0.27578789  1
  O  O259  1  0.57152110  0.06658410  0.77842824  1
  O  O260  1  0.56287855  0.40520908  0.27920114  1
  O  O261  1  0.58495894  0.40653099  0.76995213  1
  O  O262  1  0.56418768  0.73250799  0.27821617  1
  O  O263  1  0.57968021  0.74198570  0.77170032  1
  O  O264  1  0.90903593  0.07243389  0.27298543  1
  O  O265  1  0.90789836  0.08024699  0.77145421  1
  O  O266  1  0.90040172  0.40844934  0.27661458  1
  O  O267  1  0.91076766  0.41236831  0.77889508  1
  O  O268  1  0.89940787  0.73316073  0.26861449  1
  O  O269  1  0.92193590  0.73953840  0.77676922  1
  O  O270  1  0.25251423  0.24935151  0.28079405  1
  O  O271  1  0.25229515  0.23859731  0.76015334  1
  O  O272  1  0.25196469  0.56819715  0.27096632  1
  O  O273  1  0.25207147  0.57843944  0.77221856  1
  O  O274  1  0.26037955  0.89916530  0.27168095  1
  O  O275  1  0.25667309  0.91178690  0.77260730  1
  O  O276  1  0.58826449  0.24195353  0.26747821  1
  O  O277  1  0.60532230  0.24663106  0.77824904  1
  O  O278  1  0.58959653  0.57056266  0.26768640  1
  O  O279  1  0.60349218  0.57235219  0.77207596  1
  O  O280  1  0.59072222  0.91223194  0.27061535  1
  O  O281  1  0.59936087  0.90070097  0.77422806  1
  O  O282  1  0.92910932  0.23387827  0.27478494  1
  O  O283  1  0.93064249  0.23439862  0.77643325  1
  O  O284  1  0.93856472  0.56436677  0.26666484  1
  O  O285  1  0.93484403  0.56890110  0.77770068  1
  O  O286  1  0.92482288  0.90561668  0.26410650  1
  O  O287  1  0.93470347  0.90150786  0.77804324  1
  O  O288  1  0.25528451  0.24466214  0.47752563  1
  O  O289  1  0.26351716  0.24282864  0.98151642  1
  O  O290  1  0.24928041  0.57460425  0.48625223  1
  O  O291  1  0.25276664  0.57504755  0.97534930  1
  O  O292  1  0.26704626  0.90037222  0.47424627  1
  O  O293  1  0.26370373  0.91123933  0.97871267  1
  O  O294  1  0.58688909  0.24979310  0.47733693  1
  O  O295  1  0.60990096  0.22317049  0.98797775  1
  O  O296  1  0.58522170  0.57769075  0.47284944  1
  O  O297  1  0.60400626  0.56833219  0.98421796  1
  O  O298  1  0.57952284  0.90585313  0.48399039  1
  O  O299  1  0.59419569  0.89912803  0.97333387  1
  O  O300  1  0.93416791  0.23507866  0.46719311  1
  O  O301  1  0.94292243  0.23472349  0.97832687  1
  O  O302  1  0.94251262  0.55768769  0.49122654  1
  O  O303  1  0.93412965  0.56609887  0.97526402  1
  O  O304  1  0.93080089  0.91012332  0.48427968  1
  O  O305  1  0.93817096  0.90824223  0.97307986  1
  O  O306  1  0.23872477  0.06900729  0.48531522  1
  O  O307  1  0.24263067  0.06483746  0.97165196  1
  O  O308  1  0.23089538  0.40461315  0.47621442  1
  O  O309  1  0.23772601  0.40010069  0.99098295  1
  O  O310  1  0.24247047  0.74809143  0.47202752  1
  O  O311  1  0.23511594  0.73735854  0.97562465  1
  O  O312  1  0.56356527  0.06385300  0.47545261  1
  O  O313  1  0.56465680  0.06410158  0.96950572  1
  O  O314  1  0.56675257  0.40870209  0.47213049  1
  O  O315  1  0.56385559  0.39328891  0.97388692  1
  O  O316  1  0.56199140  0.73677903  0.47633118  1
  O  O317  1  0.57244396  0.73837767  0.97692783  1
  O  O318  1  0.91975180  0.07324134  0.47956884  1
  O  O319  1  0.91411499  0.07312560  0.97722155  1
  O  O320  1  0.90229694  0.39934533  0.46908004  1
  O  O321  1  0.91161397  0.40372777  0.98324824  1
  O  O322  1  0.89340597  0.72579142  0.48684520  1
  O  O323  1  0.91446001  0.74648947  0.97678498  1
  O  O324  1  0.09437158  0.26529380  0.22547083  1
  O  O325  1  0.08874711  0.26179421  0.73029412  1
  O  O326  1  0.09676749  0.59721394  0.22311305  1
  O  O327  1  0.09136538  0.59366923  0.71563886  1
  O  O328  1  0.09151481  0.92429932  0.23109336  1
  O  O329  1  0.10077461  0.93384716  0.72235546  1
  O  O330  1  0.43031788  0.25587640  0.23953171  1
  O  O331  1  0.41801483  0.25544023  0.72907655  1
  O  O332  1  0.42718472  0.58637001  0.22849577  1
  O  O333  1  0.41910719  0.59561969  0.73428413  1
  O  O334  1  0.42224037  0.92141859  0.23328051  1
  O  O335  1  0.42737465  0.91544053  0.73132173  1
  O  O336  1  0.76487658  0.25002936  0.23066522  1
  O  O337  1  0.76910426  0.26660005  0.72915269  1
  O  O338  1  0.76625251  0.59762470  0.23659531  1
  O  O339  1  0.76640679  0.59679300  0.72329233  1
  O  O340  1  0.75653611  0.92516304  0.22742877  1
  O  O341  1  0.75464617  0.92647076  0.73057927  1
  O  O342  1  0.06127792  0.09632330  0.23357555  1
  O  O343  1  0.07537720  0.09700449  0.73260271  1
  O  O344  1  0.06862144  0.43860270  0.22347775  1
  O  O345  1  0.06363114  0.43388756  0.72912186  1
  O  O346  1  0.07507615  0.75656217  0.22722796  1
  O  O347  1  0.07676276  0.74828433  0.71857063  1
  O  O348  1  0.41719756  0.09393872  0.23812133  1
  O  O349  1  0.39719994  0.09713043  0.72164002  1
  O  O350  1  0.40341914  0.43350097  0.22715641  1
  O  O351  1  0.41734181  0.41820539  0.74227765  1
  O  O352  1  0.39701350  0.76546072  0.21905584  1
  O  O353  1  0.40144243  0.76150703  0.72356742  1
  O  O354  1  0.73781278  0.09605917  0.22491583  1
  O  O355  1  0.73238960  0.09817606  0.73793195  1
  O  O356  1  0.73951757  0.44372269  0.22603302  1
  O  O357  1  0.75094447  0.42467162  0.72183273  1
  O  O358  1  0.73439261  0.76910324  0.22938588  1
  O  O359  1  0.73640567  0.75683670  0.72276492  1
