# generated using pymatgen
data_BaLaInIrO6
_symmetry_space_group_name_H-M   'P 1'
_cell_length_a   17.51398979
_cell_length_b   17.53857475
_cell_length_c   16.49023858
_cell_angle_alpha   90.00455083
_cell_angle_beta   90.00569669
_cell_angle_gamma   90.07757552
_symmetry_Int_Tables_number   1
_chemical_formula_structural   BaLaInIrO6
_chemical_formula_sum   'Ba36 La36 In36 Ir36 O216'
_cell_volume   5065.30881372
_cell_formula_units_Z   36
loop_
 _symmetry_equiv_pos_site_id
 _symmetry_equiv_pos_as_xyz
  1  'x, y, z'
loop_
 _atom_site_type_symbol
 _atom_site_label
 _atom_site_symmetry_multiplicity
 _atom_site_fract_x
 _atom_site_fract_y
 _atom_site_fract_z
 _atom_site_occupancy
  Ba  Ba0  1  0.50118708  0.32849774  0.37713765  1
  Ba  Ba1  1  0.67330496  0.50809656  0.12523916  1
  Ba  Ba2  1  0.33150884  0.51057336  0.62252789  1
  Ba  Ba3  1  0.83536963  0.65749054  0.87558473  1
  Ba  Ba4  1  0.99983678  0.83632276  0.12562234  1
  Ba  Ba5  1  0.99908791  0.17526431  0.12348775  1
  Ba  Ba6  1  0.33431256  0.17983522  0.62704683  1
  Ba  Ba7  1  0.16767803  0.34407605  0.62718980  1
  Ba  Ba8  1  0.49448165  0.35295430  0.62152362  1
  Ba  Ba9  1  0.49627095  0.99242210  0.38201619  1
  Ba  Ba10  1  0.83275498  0.67480009  0.12380731  1
  Ba  Ba11  1  0.49346524  0.00776178  0.62722783  1
  Ba  Ba12  1  0.66680186  0.15696798  0.87599585  1
  Ba  Ba13  1  1.00237340  0.50652382  0.12288542  1
  Ba  Ba14  1  0.66594408  0.17164551  0.12634631  1
  Ba  Ba15  1  0.33419967  0.84278998  0.12651906  1
  Ba  Ba16  1  0.32847550  0.82603855  0.37869286  1
  Ba  Ba17  1  0.16992293  0.32080229  0.87261484  1
  Ba  Ba18  1  0.17219760  0.65523066  0.87327156  1
  Ba  Ba19  1  0.82931551  0.32712541  0.87570582  1
  Ba  Ba20  1  0.16409813  0.67852973  0.12216224  1
  Ba  Ba21  1  0.50531699  0.65859190  0.87236974  1
  Ba  Ba22  1  0.66800748  0.83873501  0.12216815  1
  Ba  Ba23  1  0.83163032  0.67303628  0.62347047  1
  Ba  Ba24  1  0.17047460  0.66034843  0.37091754  1
  Ba  Ba25  1  0.83203815  0.33939893  0.12275112  1
  Ba  Ba26  1  0.66309648  0.82572691  0.37762904  1
  Ba  Ba27  1  0.67013314  0.82480820  0.87212747  1
  Ba  Ba28  1  0.66508407  0.50659204  0.62123716  1
  Ba  Ba29  1  0.17023659  0.32616454  0.37672086  1
  Ba  Ba30  1  0.16321514  0.01370461  0.62612848  1
  Ba  Ba31  1  0.50092403  0.66067682  0.37143449  1
  Ba  Ba32  1  -0.00111592  0.82230062  0.38045851  1
  Ba  Ba33  1  0.83164894  0.00507723  0.12312321  1
  Ba  Ba34  1  -0.00256891  0.82575333  0.87437455  1
  Ba  Ba35  1  0.83273568  0.00423312  0.62368977  1
  La  La36  1  0.32971338  0.15396289  0.87257890  1
  La  La37  1  0.83127947  0.34408586  0.62813412  1
  La  La38  1  0.33257033  0.48547944  0.37720058  1
  La  La39  1  0.34044858  0.51863848  0.12691950  1
  La  La40  1  0.33625223  0.17841528  0.12658401  1
  La  La41  1  0.15690904  0.00864249  0.13057041  1
  La  La42  1  -0.00174071  0.15000480  0.37542542  1
  La  La43  1  -0.00876460  0.15633866  0.86993876  1
  La  La44  1  -0.00148252  0.48271733  0.37391907  1
  La  La45  1  0.83361356  0.98955737  0.87928052  1
  La  La46  1  0.50786946  -0.00050524  0.12213391  1
  La  La47  1  1.00534169  0.85443663  0.62666137  1
  La  La48  1  0.67031645  0.49631398  0.87310683  1
  La  La49  1  0.49778278  0.35338456  0.12458818  1
  La  La50  1  0.83582667  0.65201729  0.37260765  1
  La  La51  1  0.33398215  0.84476039  0.62510453  1
  La  La52  1  0.32729401  0.48108488  0.86569878  1
  La  La53  1  0.32811664  0.81826530  0.87032834  1
  La  La54  1  0.66361837  0.84524368  0.62629032  1
  La  La55  1  0.00162748  0.48032020  0.87564486  1
  La  La56  1  0.17261043  0.98347675  0.37903997  1
  La  La57  1  0.49536757  0.67723101  0.62382267  1
  La  La58  1  1.00840578  0.18559759  0.62356874  1
  La  La59  1  0.83645842  0.31918967  0.37243252  1
  La  La60  1  0.15305369  0.34465330  0.12564398  1
  La  La61  1  0.84008414  0.98238711  0.36923550  1
  La  La62  1  0.66445247  0.17684331  0.62491226  1
  La  La63  1  0.50380179  0.98166061  0.87472841  1
  La  La64  1  1.01119583  0.51226799  0.62852821  1
  La  La65  1  0.66595688  0.49307115  0.37474198  1
  La  La66  1  0.16718630  0.98651513  0.87559685  1
  La  La67  1  0.50083526  0.68624692  0.12406003  1
  La  La68  1  0.32938882  0.15070425  0.38044831  1
  La  La69  1  0.66353123  0.15054060  0.37483495  1
  La  La70  1  0.50749128  0.32061257  0.87157119  1
  La  La71  1  0.16330288  0.68250062  0.61971314  1
  In  In72  1  0.83862381  0.50091044  0.74657648  1
  In  In73  1  0.66792658  0.33257929  0.25358282  1
  In  In74  1  0.16560638  0.83216867  0.75028688  1
  In  In75  1  0.32928417  0.00389322  0.24439059  1
  In  In76  1  0.33716729  0.66765612  0.25170254  1
  In  In77  1  0.49741539  0.16721736  0.25229771  1
  In  In78  1  0.00058463  0.66448499  0.25088136  1
  In  In79  1  0.83477776  0.16614834  0.25003353  1
  In  In80  1  0.49949536  0.16738291  0.50045052  1
  In  In81  1  0.66887435  -0.00091877  0.25298498  1
  In  In82  1  0.83550077  0.49820512  -0.00054682  1
  In  In83  1  0.33186068  0.00099219  0.75290214  1
  In  In84  1  0.66117231  0.33252064  0.00039313  1
  In  In85  1  0.66420253  0.33460221  0.74562911  1
  In  In86  1  0.17449446  0.49953644  -0.00207950  1
  In  In87  1  0.66597090  0.66446425  -0.00080038  1
  In  In88  1  0.16594379  0.83417694  0.25015364  1
  In  In89  1  0.17110967  0.49975034  0.25033703  1
  In  In90  1  0.49596196  0.16417850  0.00168324  1
  In  In91  1  0.16587435  0.50202145  0.49923591  1
  In  In92  1  0.83423290  0.16321874  0.74313918  1
  In  In93  1  0.49619213  0.50157355  -0.00384649  1
  In  In94  1  0.00277289  0.00095315  0.00087299  1
  In  In95  1  0.66945790  0.00088653  0.50398388  1
  In  In96  1  0.83729001  0.49890374  0.50218976  1
  In  In97  1  0.33257659  0.33217501  0.00318307  1
  In  In98  1  0.83381529  0.83238838  -0.00054564  1
  In  In99  1  0.33063932  0.33028887  0.24809620  1
  In  In100  1  0.66546624  0.66590210  0.74349696  1
  In  In101  1  0.67010829  0.33271276  0.49964426  1
  In  In102  1  0.83479209  0.83281277  0.74484894  1
  In  In103  1  0.49963688  0.83726674  0.25317516  1
  In  In104  1  0.00347664  0.66316570  -0.00442331  1
  In  In105  1  0.83274673  0.82798401  0.50225164  1
  In  In106  1  0.16607231  0.16932081  0.50004918  1
  In  In107  1  0.16863814  0.16399715  0.00006577  1
  Ir  Ir108  1  0.83230969  0.83061141  0.25398394  1
  Ir  Ir109  1  0.33642917  0.33597715  0.50108129  1
  Ir  Ir110  1  0.00066895  0.66511996  0.50290627  1
  Ir  Ir111  1  0.65969295  0.00103647  0.75074128  1
  Ir  Ir112  1  0.33900597  0.66999197  -0.00506060  1
  Ir  Ir113  1  0.49662927  0.16746774  0.75299763  1
  Ir  Ir114  1  0.33168622  0.66743247  0.50403977  1
  Ir  Ir115  1  0.49550379  0.83213695  0.74832569  1
  Ir  Ir116  1  -0.00149008  0.00337432  0.49942269  1
  Ir  Ir117  1  0.00244565  0.32973899  0.25243151  1
  Ir  Ir118  1  0.49585126  0.82969471  0.50557929  1
  Ir  Ir119  1  0.49334449  0.50194081  0.74805667  1
  Ir  Ir120  1  0.66932226  0.66552307  0.25404705  1
  Ir  Ir121  1  0.66171038  0.66687163  0.49852390  1
  Ir  Ir122  1  0.00263425  0.32896292  -0.00004139  1
  Ir  Ir123  1  0.33167373  0.00097442  -0.00353344  1
  Ir  Ir124  1  0.00484352  0.66439262  0.74421177  1
  Ir  Ir125  1  0.83861834  0.16716611  0.50132334  1
  Ir  Ir126  1  0.16741234  0.50088396  0.74849491  1
  Ir  Ir127  1  0.33387089  0.66579894  0.74788610  1
  Ir  Ir128  1  0.83281872  0.16439299  -0.00468072  1
  Ir  Ir129  1  0.49818794  0.50698862  0.49651040  1
  Ir  Ir130  1  0.16421177  0.16356949  0.25408639  1
  Ir  Ir131  1  0.50332568  0.50435526  0.25014430  1
  Ir  Ir132  1  0.66427028  -0.00035401  -0.00703945  1
  Ir  Ir133  1  0.16182429  0.16754420  0.75298777  1
  Ir  Ir134  1  0.17462279  0.83714167  -0.00248071  1
  Ir  Ir135  1  -0.00386109  0.33184368  0.49767892  1
  Ir  Ir136  1  0.00172764  0.33111288  0.75025676  1
  Ir  Ir137  1  0.49517537  0.83707209  -0.00426875  1
  Ir  Ir138  1  0.00154164  0.00512484  0.74850227  1
  Ir  Ir139  1  0.16380000  0.83322542  0.50536554  1
  Ir  Ir140  1  0.33812613  0.33303221  0.75017643  1
  Ir  Ir141  1  0.32888720  -0.00327368  0.50203485  1
  Ir  Ir142  1  0.83349318  0.49978953  0.25629438  1
  Ir  Ir143  1  0.00192922  0.00116835  0.25571734  1
  O  O144  1  0.28615249  0.31267266  0.12612347  1
  O  O145  1  0.31532323  0.33411501  0.62599085  1
  O  O146  1  0.31711944  0.65893619  0.11421817  1
  O  O147  1  0.30118155  0.66370678  0.62635627  1
  O  O148  1  0.29472333  1.00027782  0.11372627  1
  O  O149  1  0.31172568  0.98739209  0.62416773  1
  O  O150  1  0.63438131  0.32994430  0.12914960  1
  O  O151  1  0.64006063  0.31360676  0.62267358  1
  O  O152  1  0.63803806  0.66145774  0.13309841  1
  O  O153  1  0.63005688  0.66014500  0.61645993  1
  O  O154  1  0.64248292  0.99739976  0.11538061  1
  O  O155  1  0.63965483  0.99209307  0.63244282  1
  O  O156  1  0.98104979  0.32780501  0.12514872  1
  O  O157  1  0.96910987  0.32127370  0.62356239  1
  O  O158  1  0.98345291  0.66471512  0.12390857  1
  O  O159  1  0.98055224  0.65034255  0.62379622  1
  O  O160  1  0.98546635  0.99616180  0.13500516  1
  O  O161  1  0.97964906  0.99203486  0.62428423  1
  O  O162  1  0.19768861  0.15050629  0.13426172  1
  O  O163  1  0.18144097  0.16887538  0.63111795  1
  O  O164  1  0.20413071  0.48292402  0.12336083  1
  O  O165  1  0.18036842  0.50028632  0.62763493  1
  O  O166  1  0.18368773  0.84556110  0.11730318  1
  O  O167  1  0.19426075  0.82819066  0.62430459  1
  O  O168  1  0.51372951  0.13465857  0.12639618  1
  O  O169  1  0.52754792  0.16116187  0.63243123  1
  O  O170  1  0.52411272  0.49534169  0.13160171  1
  O  O171  1  0.51670321  0.51191533  0.62286732  1
  O  O172  1  0.51441342  0.83497748  0.11623189  1
  O  O173  1  0.52604454  0.82373712  0.62717524  1
  O  O174  1  0.84948906  0.16397153  0.11661482  1
  O  O175  1  0.87519582  0.15801328  0.61743798  1
  O  O176  1  0.85400471  0.49748714  0.13641945  1
  O  O177  1  0.87705389  0.48823089  0.62323877  1
  O  O178  1  0.84839428  0.83474428  0.13370263  1
  O  O179  1  0.87260015  0.83206071  0.62343229  1
  O  O180  1  0.13279883  0.17172305  0.37267889  1
  O  O181  1  0.12985748  0.16544769  0.87121465  1
  O  O182  1  0.13387085  0.50070022  0.37744356  1
  O  O183  1  0.14027003  0.49991413  0.86706471  1
  O  O184  1  0.14805555  0.84242510  0.38488126  1
  O  O185  1  0.15255501  0.84119278  0.87830164  1
  O  O186  1  0.46081317  0.17092143  0.37753354  1
  O  O187  1  0.46423331  0.17975775  0.87218839  1
  O  O188  1  0.46907597  0.50590916  0.37359208  1
  O  O189  1  0.46286719  0.50226965  0.86643621  1
  O  O190  1  0.47765513  0.83253638  0.38498962  1
  O  O191  1  0.46447547  0.84203789  0.87147572  1
  O  O192  1  0.80422523  0.17765674  0.38562366  1
  O  O193  1  0.81922976  0.16370112  0.87462878  1
  O  O194  1  0.80588502  0.50917263  0.37650876  1
  O  O195  1  0.80558694  0.49766992  0.87063519  1
  O  O196  1  0.81558986  0.83957291  0.37474405  1
  O  O197  1  0.82162058  0.85070034  0.86843079  1
  O  O198  1  0.03289619  0.00953537  0.37903618  1
  O  O199  1  0.03163960  0.01562194  0.86819143  1
  O  O200  1  0.02372165  0.34382536  0.37542044  1
  O  O201  1  0.02499871  0.34043390  0.87457499  1
  O  O202  1  0.02034258  0.66776246  0.38569248  1
  O  O203  1  0.02572864  0.67297941  0.86074874  1
  O  O204  1  0.34375832  0.00660771  0.38128848  1
  O  O205  1  0.36624288  0.00969172  0.87942970  1
  O  O206  1  0.35346946  0.34259602  0.38052635  1
  O  O207  1  0.36897812  0.33803632  0.87015956  1
  O  O208  1  0.35167331  0.67349317  0.38581975  1
  O  O209  1  0.35882585  0.68232198  0.86972073  1
  O  O210  1  0.70557586  0.00835055  0.38115496  1
  O  O211  1  0.69383155  0.00197414  0.87049076  1
  O  O212  1  0.70143012  0.35448278  0.37850266  1
  O  O213  1  0.67393258  0.35437710  0.87045388  1
  O  O214  1  0.69750119  0.67005789  0.37710103  1
  O  O215  1  0.67801235  0.66528244  0.86973717  1
  O  O216  1  0.08232328  0.08601217  0.02881403  1
  O  O217  1  0.06339624  0.09890576  0.51790834  1
  O  O218  1  0.07710285  0.41638785  0.01669364  1
  O  O219  1  0.05943455  0.42876757  0.51926481  1
  O  O220  1  0.08532826  0.76728770  0.01081477  1
  O  O221  1  0.06801417  0.76302847  0.53259086  1
  O  O222  1  0.38658190  0.09991972  0.01621282  1
  O  O223  1  0.40116131  0.08583609  0.51614703  1
  O  O224  1  0.40108434  0.43203915  0.03743966  1
  O  O225  1  0.40326436  0.43573237  0.50988413  1
  O  O226  1  0.40132295  0.76875989  0.01199034  1
  O  O227  1  0.40099274  0.75968642  0.53429876  1
  O  O228  1  0.73851779  0.09149313  0.01522689  1
  O  O229  1  0.74273582  0.10604274  0.52845408  1
  O  O230  1  0.74113091  0.42190960  0.01120650  1
  O  O231  1  0.75166566  0.41868905  0.53129983  1
  O  O232  1  0.73823176  0.76103085  0.00953098  1
  O  O233  1  0.72688097  0.75892280  0.52611468  1
  O  O234  1  0.09655715  0.26217964  0.02277916  1
  O  O235  1  0.08610055  0.26229707  0.52044338  1
  O  O236  1  0.10094141  0.59133800  0.01081344  1
  O  O237  1  0.09622964  0.60248539  0.52647271  1
  O  O238  1  0.11057530  0.93377460  0.00808738  1
  O  O239  1  0.08987974  0.92612245  0.52527448  1
  O  O240  1  0.42662272  0.26213779  0.03799641  1
  O  O241  1  0.42388835  0.26478659  0.51782094  1
  O  O242  1  0.43224543  0.60616182  0.02364017  1
  O  O243  1  0.42854762  0.60345998  0.52155024  1
  O  O244  1  0.43173056  0.93998710  0.01695971  1
  O  O245  1  0.41644059  0.91567199  0.52883216  1
  O  O246  1  0.75822315  0.25016824  0.00971679  1
  O  O247  1  0.77798919  0.26066321  0.52732191  1
  O  O248  1  0.76186447  0.59209716  0.01542445  1
  O  O249  1  0.75385954  0.59754213  0.50978133  1
  O  O250  1  0.75663651  0.93382402  0.00394480  1
  O  O251  1  0.75006768  0.91445991  0.52779243  1
  O  O252  1  0.22267541  0.06949150  0.27905194  1
  O  O253  1  0.23168836  0.07545628  0.77812959  1
  O  O254  1  0.24859091  0.41045410  0.27814017  1
  O  O255  1  0.24251770  0.40770835  0.77119166  1
  O  O256  1  0.24596135  0.74423998  0.25913359  1
  O  O257  1  0.24569903  0.73877098  0.76348448  1
  O  O258  1  0.57664306  0.07577040  0.27880430  1
  O  O259  1  0.56305331  0.07057093  0.77796256  1
  O  O260  1  0.57399702  0.41733285  0.27366693  1
  O  O261  1  0.55884616  0.40940181  0.76802339  1
  O  O262  1  0.57985206  0.73592728  0.25961190  1
  O  O263  1  0.56581146  0.74291861  0.75606144  1
  O  O264  1  0.91040552  0.07042848  0.28062487  1
  O  O265  1  0.90783656  0.06942562  0.77574921  1
  O  O266  1  0.90473833  0.40346280  0.27977703  1
  O  O267  1  0.91622560  0.40235284  0.77017777  1
  O  O268  1  0.89704546  0.73558502  0.27533066  1
  O  O269  1  0.91389706  0.73263555  0.76030202  1
  O  O270  1  0.25985331  0.22518647  0.27805470  1
  O  O271  1  0.26522283  0.23331442  0.77298323  1
  O  O272  1  0.27665015  0.56534789  0.26829801  1
  O  O273  1  0.26655483  0.56869114  0.77273322  1
  O  O274  1  0.25395251  0.91492110  0.27089097  1
  O  O275  1  0.25959432  0.90659077  0.77575895  1
  O  O276  1  0.59929801  0.23509705  0.28133298  1
  O  O277  1  0.58552189  0.23768020  0.77110209  1
  O  O278  1  0.60276444  0.57056371  0.27679396  1
  O  O279  1  0.58910175  0.56224128  0.76838132  1
  O  O280  1  0.59319344  0.90793999  0.26377789  1
  O  O281  1  0.58445055  0.90891983  0.77451702  1
  O  O282  1  0.93410095  0.23796768  0.27987886  1
  O  O283  1  0.93702896  0.23505758  0.76620258  1
  O  O284  1  0.92516322  0.56669842  0.28378530  1
  O  O285  1  0.94657346  0.56572244  0.76748098  1
  O  O286  1  0.92655701  0.90898390  0.27748423  1
  O  O287  1  0.93130672  0.91623182  0.76296036  1
  O  O288  1  0.26776393  0.24078024  0.48167173  1
  O  O289  1  0.26722001  0.22855516  0.97360291  1
  O  O290  1  0.26705804  0.57394467  0.47605705  1
  O  O291  1  0.28127158  0.57199476  0.97608743  1
  O  O292  1  0.25337979  0.90799937  0.48230654  1
  O  O293  1  0.27145085  0.90398702  0.96957447  1
  O  O294  1  0.60363326  0.23373823  0.47590997  1
  O  O295  1  0.58583642  0.23921680  0.97551165  1
  O  O296  1  0.59528864  0.57255621  0.47151002  1
  O  O297  1  0.59841312  0.56203584  0.97443654  1
  O  O298  1  0.58411272  0.90244230  0.49321635  1
  O  O299  1  0.58851787  0.90872197  0.97163632  1
  O  O300  1  0.93296821  0.23325086  0.47117093  1
  O  O301  1  0.93012520  0.23215908  0.97386188  1
  O  O302  1  0.93813098  0.56913765  0.47743113  1
  O  O303  1  0.93653010  0.56205165  0.96977382  1
  O  O304  1  0.92422873  0.91616380  0.48242715  1
  O  O305  1  0.92144254  0.91746884  0.98225376  1
  O  O306  1  0.23874638  0.07063986  0.47795589  1
  O  O307  1  0.23954339  0.06324890  0.96482080  1
  O  O308  1  0.24835958  0.40947955  0.48599727  1
  O  O309  1  0.24914147  0.41090548  0.96516049  1
  O  O310  1  0.23222104  0.73432125  0.49289261  1
  O  O311  1  0.24708650  0.74474698  0.97404040  1
  O  O312  1  0.58083095  0.07817272  0.48032748  1
  O  O313  1  0.56559664  0.06078093  0.97667928  1
  O  O314  1  0.57600100  0.42161854  0.48055596  1
  O  O315  1  0.55260775  0.39503891  0.98469929  1
  O  O316  1  0.56475059  0.73547748  0.48811094  1
  O  O317  1  0.56105612  0.74169839  0.99296370  1
  O  O318  1  0.90480288  0.07182808  0.46786687  1
  O  O319  1  0.90683600  0.07656884  0.97263868  1
  O  O320  1  0.90707306  0.39846491  0.46881249  1
  O  O321  1  0.91654169  0.40174049  0.98160557  1
  O  O322  1  0.90261838  0.72684396  0.47939175  1
  O  O323  1  0.91360687  0.74278160  0.98356754  1
  O  O324  1  0.09952464  0.26158494  0.22741462  1
  O  O325  1  0.09141983  0.25906646  0.72787656  1
  O  O326  1  0.09481259  0.58940284  0.23273533  1
  O  O327  1  0.10212961  0.59816073  0.72090179  1
  O  O328  1  0.09693778  0.93897695  0.23982840  1
  O  O329  1  0.09009185  0.93001896  0.73392845  1
  O  O330  1  0.43084078  0.26896839  0.21904745  1
  O  O331  1  0.43186963  0.26325003  0.72966681  1
  O  O332  1  0.43794284  0.59465916  0.22043924  1
  O  O333  1  0.42911417  0.60039693  0.72626266  1
  O  O334  1  0.43003274  0.93774394  0.22663523  1
  O  O335  1  0.42179300  0.91836933  0.73343267  1
  O  O336  1  0.77140109  0.26813223  0.24624951  1
  O  O337  1  0.75968407  0.25356543  0.72018272  1
  O  O338  1  0.76890094  0.59820977  0.24509259  1
  O  O339  1  0.75855791  0.58969869  0.72841306  1
  O  O340  1  0.76790064  0.92450064  0.24258809  1
  O  O341  1  0.74707679  0.92848424  0.73117015  1
  O  O342  1  0.06893251  0.09624753  0.23417333  1
  O  O343  1  0.06379065  0.10417917  0.72748154  1
  O  O344  1  0.07522096  0.41673007  0.23082047  1
  O  O345  1  0.06885750  0.43281936  0.72966148  1
  O  O346  1  0.07105090  0.76330673  0.24333330  1
  O  O347  1  0.07085843  0.75925895  0.71649191  1
  O  O348  1  0.38399552  0.10978942  0.23989684  1
  O  O349  1  0.40507429  0.09843312  0.73879164  1
  O  O350  1  0.41018877  0.43666156  0.22806054  1
  O  O351  1  0.39828348  0.43297784  0.73359077  1
  O  O352  1  0.41854250  0.75356748  0.22703996  1
  O  O353  1  0.40110386  0.76210631  0.71990479  1
  O  O354  1  0.74180198  0.09370479  0.23804618  1
  O  O355  1  0.72806252  0.09246984  0.72523658  1
  O  O356  1  0.74298764  0.43444533  0.24092918  1
  O  O357  1  0.75076834  0.41697652  0.72098891  1
  O  O358  1  0.73973616  0.76135366  0.23431710  1
  O  O359  1  0.73456067  0.76615046  0.71943260  1
