# generated using pymatgen
data_BaLaInIrO6
_symmetry_space_group_name_H-M   'P 1'
_cell_length_a   17.50889569
_cell_length_b   17.53251403
_cell_length_c   16.48393837
_cell_angle_alpha   89.98995039
_cell_angle_beta   89.99559799
_cell_angle_gamma   90.01712960
_symmetry_Int_Tables_number   1
_chemical_formula_structural   BaLaInIrO6
_chemical_formula_sum   'Ba36 La36 In36 Ir36 O216'
_cell_volume   5060.15599183
_cell_formula_units_Z   36
loop_
 _symmetry_equiv_pos_site_id
 _symmetry_equiv_pos_as_xyz
  1  'x, y, z'
loop_
 _atom_site_type_symbol
 _atom_site_label
 _atom_site_symmetry_multiplicity
 _atom_site_fract_x
 _atom_site_fract_y
 _atom_site_fract_z
 _atom_site_occupancy
  Ba  Ba0  1  0.16448498  0.01048000  0.13035688  1
  Ba  Ba1  1  0.66793934  0.17801227  0.12373701  1
  Ba  Ba2  1  0.34189915  0.51148218  0.12798920  1
  Ba  Ba3  1  0.83312803  0.98750926  0.37111562  1
  Ba  Ba4  1  0.33274881  0.51118185  0.62260718  1
  Ba  Ba5  1  0.83444498  0.65588625  0.87517285  1
  Ba  Ba6  1  -0.00066721  0.49322978  0.87848181  1
  Ba  Ba7  1  0.17164574  0.67310445  0.12557747  1
  Ba  Ba8  1  0.83661149  0.00855425  0.12545517  1
  Ba  Ba9  1  0.17069770  0.66060002  0.87503380  1
  Ba  Ba10  1  0.66628873  0.49257440  0.37671188  1
  Ba  Ba11  1  0.16969374  0.99395769  0.87791867  1
  Ba  Ba12  1  0.16608921  0.34511822  0.62251137  1
  Ba  Ba13  1  0.49949968  0.32818761  0.37681039  1
  Ba  Ba14  1  0.66405500  0.51041056  0.61977433  1
  Ba  Ba15  1  0.16417823  0.32746788  0.87584053  1
  Ba  Ba16  1  0.32993241  0.15914581  0.87492783  1
  Ba  Ba17  1  0.66084509  0.82401870  0.37538502  1
  Ba  Ba18  1  0.50228147  0.65304426  0.87809428  1
  Ba  Ba19  1  0.83220013  0.67008346  0.62844009  1
  Ba  Ba20  1  0.49768796  0.34673400  0.12487024  1
  Ba  Ba21  1  1.00087074  0.17332789  0.12994253  1
  Ba  Ba22  1  0.17141340  0.65655121  0.37211282  1
  Ba  Ba23  1  1.00169137  0.50545953  0.12546817  1
  Ba  Ba24  1  0.66511045  0.16177482  0.87311133  1
  Ba  Ba25  1  -0.00020155  0.82406513  0.37626216  1
  Ba  Ba26  1  0.49812218  0.00813268  0.62196401  1
  Ba  Ba27  1  -0.00127825  0.82433446  0.88086235  1
  Ba  Ba28  1  0.66765572  0.49509024  0.87079712  1
  Ba  Ba29  1  0.32994069  0.82201276  0.37983842  1
  Ba  Ba30  1  0.83229557  0.33988398  0.62274094  1
  Ba  Ba31  1  0.49727873  0.67447150  0.12708983  1
  Ba  Ba32  1  0.66136632  0.81921554  0.87581316  1
  Ba  Ba33  1  0.17263013  0.32326457  0.37588521  1
  Ba  Ba34  1  0.50347319  0.98778902  0.87468188  1
  Ba  Ba35  1  0.99474728  0.84021022  0.62833551  1
  La  La36  1  1.00572637  0.18027057  0.62048905  1
  La  La37  1  0.50258278  0.64856506  0.37548378  1
  La  La38  1  -0.00722842  0.15864443  0.87566973  1
  La  La39  1  0.83546808  0.65654733  0.37401523  1
  La  La40  1  0.33102486  0.82258085  0.87368538  1
  La  La41  1  0.32834300  0.48502445  0.87874169  1
  La  La42  1  0.67120210  0.17753832  0.62205484  1
  La  La43  1  0.83973312  0.98554062  0.87562853  1
  La  La44  1  0.33919365  0.84215234  0.12287647  1
  La  La45  1  0.15969850  0.68167485  0.62280283  1
  La  La46  1  0.66638086  0.84949273  0.12275925  1
  La  La47  1  0.49656514  0.35205430  0.62632749  1
  La  La48  1  0.67214724  0.84445975  0.62867150  1
  La  La49  1  0.82825360  0.34974412  0.12636934  1
  La  La50  1  0.66587524  0.51319010  0.12504061  1
  La  La51  1  0.49505665  0.01646295  0.12655602  1
  La  La52  1  -0.00001289  0.14897756  0.37094446  1
  La  La53  1  0.32599837  0.15271508  0.37258317  1
  La  La54  1  0.16910494  0.34528807  0.12669536  1
  La  La55  1  0.83136568  0.68053824  0.12159382  1
  La  La56  1  0.82246002  0.00694944  0.62115487  1
  La  La57  1  0.16447019  0.01550586  0.62245371  1
  La  La58  1  0.33458352  0.84635523  0.62692850  1
  La  La59  1  0.33204702  0.48539470  0.37269908  1
  La  La60  1  0.83808198  0.31603343  0.37404384  1
  La  La61  1  -0.00133471  0.48648995  0.37577254  1
  La  La62  1  0.33932875  0.18444629  0.12243726  1
  La  La63  1  0.83788715  0.32964754  0.88359872  1
  La  La64  1  0.50354699  0.32380059  0.87433776  1
  La  La65  1  0.67065646  0.16099508  0.37539010  1
  La  La66  1  0.16693143  0.98309383  0.37743309  1
  La  La67  1  0.49433825  0.68159594  0.62783295  1
  La  La68  1  1.00312449  0.84658696  0.12870782  1
  La  La69  1  1.00878836  0.51645569  0.62807586  1
  La  La70  1  0.33689813  0.18745613  0.62536002  1
  La  La71  1  0.50310195  0.98444906  0.36811907  1
  In  In72  1  0.16746804  0.16846357  0.74742516  1
  In  In73  1  0.66202545  0.00187662  0.49737111  1
  In  In74  1  0.66527426  0.00048588  0.75069608  1
  In  In75  1  0.16974684  0.83185378  0.24887944  1
  In  In76  1  0.33369595  -0.00047596  0.00100298  1
  In  In77  1  0.66572970  0.00227378  0.24697752  1
  In  In78  1  0.83196058  0.83180698  0.75158848  1
  In  In79  1  0.66551788  0.33481279  0.74912624  1
  In  In80  1  0.00012979  0.66511153  0.24949222  1
  In  In81  1  0.16798235  0.83799003  0.74850535  1
  In  In82  1  0.49758758  0.16762783  0.25563615  1
  In  In83  1  0.49839641  0.16739027  0.74770103  1
  In  In84  1  0.83460862  0.49464367  0.74719507  1
  In  In85  1  0.33773782  0.66664888  -0.00017716  1
  In  In86  1  0.17084706  0.50254623  0.74944065  1
  In  In87  1  0.00013702  0.33065138  0.00653121  1
  In  In88  1  0.33340147  0.00394521  0.50098670  1
  In  In89  1  0.49754717  0.83095056  0.49979448  1
  In  In90  1  0.00247565  0.66740354  0.75274610  1
  In  In91  1  0.16914252  0.50069739  0.49543535  1
  In  In92  1  0.00223226  0.00248111  -0.00051745  1
  In  In93  1  0.83582959  0.49847328  0.49931000  1
  In  In94  1  0.83156473  0.82883687  0.49735270  1
  In  In95  1  0.00088566  0.66597110  0.00428066  1
  In  In96  1  0.66450108  0.33283558  0.49890335  1
  In  In97  1  0.16655249  0.16906237  0.00316798  1
  In  In98  1  0.00270301  0.32981864  0.25095391  1
  In  In99  1  0.83338079  0.16580262  0.74708239  1
  In  In100  1  0.83055083  0.50118965  0.00179168  1
  In  In101  1  0.66621371  0.66978485  0.25143566  1
  In  In102  1  0.82951179  0.83379786  0.00180967  1
  In  In103  1  0.50118106  0.16844914  0.00013101  1
  In  In104  1  -0.00223485  -0.00154196  0.50187235  1
  In  In105  1  -0.00006348  0.33190679  0.74902792  1
  In  In106  1  -0.00140506  0.00354321  0.74646581  1
  In  In107  1  0.66794200  0.33429001  0.25090877  1
  Ir  Ir108  1  0.33547576  0.66853732  0.74723739  1
  Ir  Ir109  1  0.33316045  -0.00214691  0.74766405  1
  Ir  Ir110  1  0.50260438  0.83486850  0.00343345  1
  Ir  Ir111  1  0.17123054  0.83293133  0.00241204  1
  Ir  Ir112  1  0.16941561  0.83151453  0.50146181  1
  Ir  Ir113  1  0.82891023  0.16829589  0.00061137  1
  Ir  Ir114  1  0.83314337  0.50151658  0.25308178  1
  Ir  Ir115  1  0.33307273  -0.00003206  0.25117201  1
  Ir  Ir116  1  0.49346939  0.50243897  0.75079137  1
  Ir  Ir117  1  0.33372647  0.66661768  0.50274747  1
  Ir  Ir118  1  0.49729863  0.83087863  0.74979564  1
  Ir  Ir119  1  0.50195322  0.49797851  -0.00194094  1
  Ir  Ir120  1  0.49668917  0.16857422  0.49845439  1
  Ir  Ir121  1  0.83750646  0.16590774  0.49516942  1
  Ir  Ir122  1  0.66097255  0.66619568  0.00371603  1
  Ir  Ir123  1  0.33829311  0.33184376  0.49910366  1
  Ir  Ir124  1  0.49579103  0.50366520  0.50218255  1
  Ir  Ir125  1  0.66759285  0.33696704  0.00187016  1
  Ir  Ir126  1  0.83230282  0.83070481  0.24779783  1
  Ir  Ir127  1  0.66700719  0.00088011  0.00077137  1
  Ir  Ir128  1  0.00202490  0.00062549  0.25308910  1
  Ir  Ir129  1  0.33789356  0.33677166  0.74874308  1
  Ir  Ir130  1  0.83566681  0.16777968  0.24892698  1
  Ir  Ir131  1  0.66102958  0.66637384  0.50116601  1
  Ir  Ir132  1  0.17070567  0.49875661  0.24815859  1
  Ir  Ir133  1  0.17212736  0.16517334  0.25440988  1
  Ir  Ir134  1  0.00059178  0.33072522  0.49365473  1
  Ir  Ir135  1  0.33551087  0.33764735  0.00022588  1
  Ir  Ir136  1  0.00325935  0.66476484  0.49614426  1
  Ir  Ir137  1  0.16873187  0.16717917  0.49542052  1
  Ir  Ir138  1  0.17285266  0.49843336  0.00312017  1
  Ir  Ir139  1  0.33232719  0.33400585  0.25132972  1
  Ir  Ir140  1  0.65597468  0.66585845  0.74793631  1
  Ir  Ir141  1  0.33848990  0.66710097  0.25499896  1
  Ir  Ir142  1  0.49854800  0.50068960  0.25340580  1
  Ir  Ir143  1  0.49727205  0.83361649  0.24722808  1
  O  O144  1  0.30524077  0.32609653  0.12671794  1
  O  O145  1  0.31474228  0.32558229  0.62322812  1
  O  O146  1  0.32342190  0.66832135  0.13241284  1
  O  O147  1  0.30133792  0.66343294  0.62460338  1
  O  O148  1  0.31283515  0.98051222  0.13326897  1
  O  O149  1  0.30249065  0.98831924  0.62825429  1
  O  O150  1  0.64694129  0.33446216  0.12240720  1
  O  O151  1  0.62961131  0.31638393  0.62090226  1
  O  O152  1  0.64457640  0.65405940  0.12419421  1
  O  O153  1  0.62788969  0.66531008  0.62420784  1
  O  O154  1  0.63427201  0.99606057  0.12115114  1
  O  O155  1  0.64411087  0.98410127  0.62191864  1
  O  O156  1  0.96478612  0.33200359  0.13179091  1
  O  O157  1  0.98050710  0.31964117  0.61114581  1
  O  O158  1  0.96654471  0.66078556  0.12880691  1
  O  O159  1  0.98547608  0.65809227  0.61419781  1
  O  O160  1  0.98711975  0.98805392  0.13200586  1
  O  O161  1  0.95820364  1.00217559  0.62239060  1
  O  O162  1  0.20558085  0.16287169  0.13735155  1
  O  O163  1  0.20287751  0.15735348  0.61330138  1
  O  O164  1  0.19676090  0.48747006  0.12622280  1
  O  O165  1  0.18370694  0.49994373  0.62065461  1
  O  O166  1  0.20184525  0.83531684  0.12225292  1
  O  O167  1  0.19979912  0.82405533  0.61886605  1
  O  O168  1  0.51584795  0.16042643  0.12777938  1
  O  O169  1  0.53127160  0.16495629  0.61534509  1
  O  O170  1  0.52966466  0.49841621  0.12649208  1
  O  O171  1  0.51591451  0.49156962  0.62716375  1
  O  O172  1  0.53076583  0.82920513  0.12498970  1
  O  O173  1  0.52946759  0.82356855  0.62906555  1
  O  O174  1  0.85318583  0.16200181  0.12553280  1
  O  O175  1  0.86809342  0.15480724  0.61217268  1
  O  O176  1  0.85092549  0.48935709  0.13501251  1
  O  O177  1  0.87165725  0.49778451  0.61992304  1
  O  O178  1  0.86387204  0.82603246  0.13103146  1
  O  O179  1  0.84232373  0.82577161  0.62331274  1
  O  O180  1  0.13785961  0.16972130  0.37544150  1
  O  O181  1  0.13624957  0.17119720  0.87351668  1
  O  O182  1  0.13887374  0.49962796  0.36847792  1
  O  O183  1  0.15508205  0.49909061  0.88259030  1
  O  O184  1  0.15060692  0.83910229  0.38048032  1
  O  O185  1  0.15297102  0.83271560  0.88160473  1
  O  O186  1  0.46019036  0.17308878  0.38135593  1
  O  O187  1  0.47635904  0.18148288  0.87601278  1
  O  O188  1  0.46789427  0.50974868  0.37836359  1
  O  O189  1  0.46650755  0.49963366  0.87423891  1
  O  O190  1  0.47619867  0.84437255  0.36657987  1
  O  O191  1  0.46815150  0.83506946  0.87638373  1
  O  O192  1  0.80534452  0.17754728  0.37183677  1
  O  O193  1  0.81262159  0.18865657  0.88202882  1
  O  O194  1  0.81414172  0.51756108  0.37153097  1
  O  O195  1  0.81753743  0.49278476  0.87545356  1
  O  O196  1  0.80992583  0.82505029  0.36649644  1
  O  O197  1  0.80793904  0.84642481  0.87757972  1
  O  O198  1  0.03023723  0.00854090  0.37447830  1
  O  O199  1  0.02269904  0.02209445  0.87345444  1
  O  O200  1  0.02384149  0.34460548  0.37567127  1
  O  O201  1  0.01148777  0.32633987  0.87986455  1
  O  O202  1  0.02094534  0.66778618  0.37732705  1
  O  O203  1  0.02190472  0.66818231  0.87974373  1
  O  O204  1  0.36605743  0.01247861  0.37095297  1
  O  O205  1  0.35386943  0.00044395  0.86743982  1
  O  O206  1  0.35520767  0.34598678  0.37553817  1
  O  O207  1  0.36626552  0.34508539  0.87357273  1
  O  O208  1  0.36738222  0.67034698  0.38102177  1
  O  O209  1  0.35545967  0.68398782  0.86831512  1
  O  O210  1  0.68153680  0.02025971  0.37229686  1
  O  O211  1  0.69934383  0.00167260  0.88116815  1
  O  O212  1  0.69989017  0.32912672  0.37496066  1
  O  O213  1  0.69870168  0.33825812  0.88298972  1
  O  O214  1  0.69377949  0.66897969  0.38003541  1
  O  O215  1  0.68041929  0.66480673  0.87438699  1
  O  O216  1  0.07104318  0.09673341  0.02061948  1
  O  O217  1  0.07729123  0.09796750  0.51966953  1
  O  O218  1  0.08592801  0.42417263  0.02137882  1
  O  O219  1  0.06164175  0.42916892  0.51359305  1
  O  O220  1  0.07653294  0.76713094  0.02979824  1
  O  O221  1  0.07642514  0.75802729  0.52315627  1
  O  O222  1  0.40751751  0.09162227  0.03096999  1
  O  O223  1  0.39944629  0.10730003  0.52382159  1
  O  O224  1  0.40578546  0.43178799  0.01095016  1
  O  O225  1  0.40805666  0.42566994  0.52173745  1
  O  O226  1  0.40683615  0.77063415  0.01940973  1
  O  O227  1  0.39969055  0.75781448  0.53205054  1
  O  O228  1  0.73570184  0.09497599  0.01791107  1
  O  O229  1  0.74354039  0.09768964  0.52120224  1
  O  O230  1  0.73125929  0.42975386  0.02968895  1
  O  O231  1  0.74325737  0.42288563  0.51445471  1
  O  O232  1  0.72830034  0.75850448  0.03006506  1
  O  O233  1  0.72313254  0.76010441  0.52310328  1
  O  O234  1  0.10084925  0.26656436  0.03574175  1
  O  O235  1  0.09361001  0.25651066  0.51913767  1
  O  O236  1  0.10259634  0.58566425  0.02000105  1
  O  O237  1  0.09690278  0.59948146  0.51977347  1
  O  O238  1  0.09628160  0.91795246  0.02028052  1
  O  O239  1  0.10375914  0.92869179  0.51919689  1
  O  O240  1  0.42068272  0.26377409  0.01910106  1
  O  O241  1  0.43303669  0.26390355  0.52918789  1
  O  O242  1  0.43259739  0.58943848  0.01421316  1
  O  O243  1  0.43235236  0.60423038  0.52072761  1
  O  O244  1  0.43572606  0.92649628  0.02863510  1
  O  O245  1  0.41538536  0.91878866  0.52081906  1
  O  O246  1  0.76474197  0.27047040  0.02629787  1
  O  O247  1  0.76004944  0.24785190  0.51678908  1
  O  O248  1  0.75404666  0.59910486  0.02739908  1
  O  O249  1  0.75420169  0.59890675  0.51220661  1
  O  O250  1  0.74936332  0.92573982  0.02942776  1
  O  O251  1  0.75703880  0.92620196  0.51745995  1
  O  O252  1  0.23892331  0.06823368  0.28366507  1
  O  O253  1  0.24033587  0.06497171  0.75801326  1
  O  O254  1  0.24491632  0.41032523  0.27195422  1
  O  O255  1  0.25010048  0.40880484  0.77184061  1
  O  O256  1  0.24808386  0.73686080  0.26559794  1
  O  O257  1  0.24921259  0.74003727  0.76257096  1
  O  O258  1  0.55683950  0.06107067  0.26342661  1
  O  O259  1  0.57329080  0.07538640  0.76462091  1
  O  O260  1  0.57000460  0.41158151  0.26667788  1
  O  O261  1  0.55698347  0.40713789  0.76804572  1
  O  O262  1  0.56225072  0.73875149  0.27341843  1
  O  O263  1  0.55879068  0.73401619  0.76205412  1
  O  O264  1  0.90952847  0.07535219  0.27108211  1
  O  O265  1  0.89732554  0.07023289  0.78330826  1
  O  O266  1  0.89841957  0.40623571  0.27860023  1
  O  O267  1  0.89419475  0.38690950  0.76921010  1
  O  O268  1  0.89298487  0.73238053  0.26662311  1
  O  O269  1  0.90645882  0.73890526  0.76497354  1
  O  O270  1  0.26958892  0.23276624  0.27177961  1
  O  O271  1  0.26993612  0.24341531  0.75775149  1
  O  O272  1  0.27049792  0.56964375  0.27504810  1
  O  O273  1  0.27488151  0.57383991  0.77556193  1
  O  O274  1  0.25984230  0.91459212  0.27718938  1
  O  O275  1  0.27409817  0.89935131  0.76700421  1
  O  O276  1  0.60005781  0.23301768  0.27614194  1
  O  O277  1  0.58318229  0.25176042  0.77640416  1
  O  O278  1  0.58850647  0.57330394  0.26869057  1
  O  O279  1  0.58543524  0.56989613  0.76343799  1
  O  O280  1  0.58923115  0.90165245  0.26121808  1
  O  O281  1  0.58831447  0.89871578  0.76517974  1
  O  O282  1  0.92883458  0.23312993  0.28005998  1
  O  O283  1  0.94026068  0.22210793  0.75722940  1
  O  O284  1  0.92817279  0.56508067  0.27821078  1
  O  O285  1  0.93417519  0.56580202  0.75373523  1
  O  O286  1  0.93138127  0.90124538  0.26299305  1
  O  O287  1  0.92495362  0.91069818  0.77525070  1
  O  O288  1  0.27076442  0.23351848  0.47673621  1
  O  O289  1  0.26574891  0.24750866  0.98910770  1
  O  O290  1  0.27145002  0.57283674  0.47244844  1
  O  O291  1  0.26540398  0.56856484  0.98133672  1
  O  O292  1  0.25260115  0.90952369  0.48186791  1
  O  O293  1  0.26910109  0.89634946  0.98071581  1
  O  O294  1  0.59373065  0.22863739  0.47322429  1
  O  O295  1  0.59455088  0.25068377  0.98111261  1
  O  O296  1  0.58596737  0.57572651  0.47499649  1
  O  O297  1  0.59795946  0.56431946  0.99116909  1
  O  O298  1  0.58029217  0.91431133  0.47208091  1
  O  O299  1  0.59865139  0.90394298  0.98861415  1
  O  O300  1  0.93233685  0.23577306  0.46684146  1
  O  O301  1  0.92402306  0.22963368  0.98263247  1
  O  O302  1  0.93946615  0.56966950  0.47349436  1
  O  O303  1  0.92600350  0.57043874  0.99097390  1
  O  O304  1  0.92486010  0.90551927  0.48035178  1
  O  O305  1  0.92062337  0.91531261  0.98744450  1
  O  O306  1  0.23422079  0.07319263  0.46940115  1
  O  O307  1  0.24328480  0.07646347  0.98886510  1
  O  O308  1  0.25049769  0.40707280  0.47969846  1
  O  O309  1  0.24578582  0.40953819  0.98067327  1
  O  O310  1  0.23667866  0.73243383  0.48709874  1
  O  O311  1  0.24420515  0.74552598  0.98519087  1
  O  O312  1  0.55782414  0.07595366  0.46912619  1
  O  O313  1  0.57828570  0.07093953  0.98413792  1
  O  O314  1  0.56570245  0.41169102  0.48997421  1
  O  O315  1  0.57064425  0.40189010  0.97430686  1
  O  O316  1  0.56486684  0.72956113  0.47917122  1
  O  O317  1  0.56955887  0.73937989  0.98571555  1
  O  O318  1  0.91074243  0.08310697  0.46606764  1
  O  O319  1  0.89436792  0.07643747  0.97460066  1
  O  O320  1  0.90919678  0.39823678  0.46598438  1
  O  O321  1  0.89471281  0.39479906  0.99539241  1
  O  O322  1  0.90382939  0.72597038  0.47672996  1
  O  O323  1  0.89843720  0.73664632  0.99507270  1
  O  O324  1  0.10703806  0.25949726  0.22912461  1
  O  O325  1  0.09370062  0.25884257  0.72124409  1
  O  O326  1  0.09817721  0.58574916  0.23166346  1
  O  O327  1  0.10165742  0.59845790  0.72373044  1
  O  O328  1  0.09216487  0.92910361  0.24268008  1
  O  O329  1  0.10260425  0.93606100  0.72093088  1
  O  O330  1  0.41780588  0.26007890  0.22903335  1
  O  O331  1  0.42738645  0.26798052  0.72119655  1
  O  O332  1  0.43246863  0.59852805  0.24595849  1
  O  O333  1  0.42999188  0.60191653  0.72597957  1
  O  O334  1  0.43118515  0.93271322  0.22432708  1
  O  O335  1  0.42516952  0.92255420  0.72629534  1
  O  O336  1  0.77538628  0.26605173  0.23235540  1
  O  O337  1  0.74939266  0.24898438  0.72078625  1
  O  O338  1  0.76835552  0.59691755  0.22859209  1
  O  O339  1  0.74608854  0.59711404  0.73662435  1
  O  O340  1  0.75845629  0.92032383  0.22850224  1
  O  O341  1  0.75953848  0.92789799  0.72318888  1
  O  O342  1  0.07165403  0.09839882  0.24322674  1
  O  O343  1  0.07580528  0.09458540  0.70692010  1
  O  O344  1  0.08545642  0.42247208  0.22934472  1
  O  O345  1  0.06817175  0.43345817  0.72940027  1
  O  O346  1  0.06971558  0.76528442  0.22564752  1
  O  O347  1  0.08311901  0.75734850  0.72516844  1
  O  O348  1  0.39503568  0.09346702  0.22448473  1
  O  O349  1  0.39551889  0.09554764  0.72309926  1
  O  O350  1  0.40182097  0.43052255  0.24148150  1
  O  O351  1  0.40386642  0.43252500  0.73375859  1
  O  O352  1  0.40104511  0.76845174  0.22976479  1
  O  O353  1  0.40171327  0.76404072  0.72085822  1
  O  O354  1  0.74088392  0.10204513  0.23798988  1
  O  O355  1  0.74156543  0.09108868  0.70995385  1
  O  O356  1  0.73855096  0.43550412  0.22816592  1
  O  O357  1  0.73497944  0.42762365  0.72476621  1
  O  O358  1  0.73953930  0.76540670  0.21866068  1
  O  O359  1  0.72129103  0.75913051  0.73005671  1
