# generated using pymatgen
data_BaLaInIrO6
_symmetry_space_group_name_H-M   'P 1'
_cell_length_a   17.50724828
_cell_length_b   17.53346612
_cell_length_c   16.48043269
_cell_angle_alpha   90.01390215
_cell_angle_beta   90.00633493
_cell_angle_gamma   89.95439575
_symmetry_Int_Tables_number   1
_chemical_formula_structural   BaLaInIrO6
_chemical_formula_sum   'Ba36 La36 In36 Ir36 O216'
_cell_volume   5058.87706918
_cell_formula_units_Z   36
loop_
 _symmetry_equiv_pos_site_id
 _symmetry_equiv_pos_as_xyz
  1  'x, y, z'
loop_
 _atom_site_type_symbol
 _atom_site_label
 _atom_site_symmetry_multiplicity
 _atom_site_fract_x
 _atom_site_fract_y
 _atom_site_fract_z
 _atom_site_occupancy
  Ba  Ba0  1  1.00129512  0.83939198  0.62695636  1
  Ba  Ba1  1  0.16504328  0.65879510  0.37267950  1
  Ba  Ba2  1  0.66981686  0.17530777  0.62234945  1
  Ba  Ba3  1  0.66678797  0.15517508  0.37094064  1
  Ba  Ba4  1  0.49861358  0.99248317  0.87679709  1
  Ba  Ba5  1  0.33605899  0.82906419  0.37287938  1
  Ba  Ba6  1  0.49954524  0.01018991  0.12527318  1
  Ba  Ba7  1  0.33333709  0.48839913  0.87680442  1
  Ba  Ba8  1  0.16612754  0.00531058  0.12311022  1
  Ba  Ba9  1  -0.00543388  0.15356736  0.37570490  1
  Ba  Ba10  1  0.66954734  0.84556477  0.62711935  1
  Ba  Ba11  1  0.83499228  0.32344737  0.87327351  1
  Ba  Ba12  1  0.32888413  0.16083221  0.37442490  1
  Ba  Ba13  1  0.33171923  0.17349097  0.62857785  1
  Ba  Ba14  1  0.16891534  0.33798052  0.62646875  1
  Ba  Ba15  1  0.16354296  0.32612986  0.37773068  1
  Ba  Ba16  1  -0.00363709  0.15476766  0.87496614  1
  Ba  Ba17  1  1.00337143  0.50524812  0.62550237  1
  Ba  Ba18  1  0.83880417  0.32138869  0.36710365  1
  Ba  Ba19  1  0.33301710  0.51236018  0.62341020  1
  Ba  Ba20  1  0.67058828  0.51419577  0.62530278  1
  Ba  Ba21  1  0.16709251  0.99750338  0.87361265  1
  Ba  Ba22  1  0.83370166  0.98991462  0.37615176  1
  Ba  Ba23  1  0.16608772  0.67628947  0.12742168  1
  Ba  Ba24  1  0.33557877  0.15884752  0.87656958  1
  Ba  Ba25  1  0.67309710  0.51391790  0.13040446  1
  Ba  Ba26  1  0.33197775  0.49216387  0.37628445  1
  Ba  Ba27  1  0.00330013  0.82771192  0.87707935  1
  Ba  Ba28  1  0.83573858  0.65812881  0.87474029  1
  Ba  Ba29  1  0.83133596  0.67727173  0.12787663  1
  Ba  Ba30  1  0.66538980  0.48949736  0.87919599  1
  Ba  Ba31  1  0.16593873  0.67042506  0.62250485  1
  Ba  Ba32  1  1.00040639  0.50738074  0.12827305  1
  Ba  Ba33  1  0.33488567  0.17424520  0.12397720  1
  Ba  Ba34  1  0.50132186  0.34040200  0.12749105  1
  Ba  Ba35  1  0.99877099  0.17341301  0.62308945  1
  La  La36  1  0.50526192  0.98789550  0.37062889  1
  La  La37  1  0.49655954  0.68211392  0.63121091  1
  La  La38  1  0.66136494  0.48312749  0.37889921  1
  La  La39  1  0.33708294  0.84355893  0.62716031  1
  La  La40  1  0.48797084  0.35082775  0.62525411  1
  La  La41  1  0.66273571  0.15168544  0.87410244  1
  La  La42  1  1.00091071  0.84690078  0.12671414  1
  La  La43  1  0.82854213  0.68439511  0.62585890  1
  La  La44  1  0.16291005  0.01408734  0.62355842  1
  La  La45  1  0.49732188  0.01493003  0.62140905  1
  La  La46  1  0.83284361  0.01547511  0.62607856  1
  La  La47  1  -0.00864741  0.48553077  0.87037526  1
  La  La48  1  0.32524056  0.82493269  0.88011027  1
  La  La49  1  0.33570354  0.51373707  0.12917874  1
  La  La50  1  0.83766727  0.65389697  0.37440061  1
  La  La51  1  0.16658068  0.34226935  0.12542705  1
  La  La52  1  0.82416542  0.34971827  0.12028268  1
  La  La53  1  0.49340844  0.68432624  0.12605907  1
  La  La54  1  0.16831617  0.98798868  0.37373796  1
  La  La55  1  0.50486952  0.65508578  0.37547127  1
  La  La56  1  0.50786920  0.31764124  0.87208622  1
  La  La57  1  0.16607375  0.31503591  0.87454925  1
  La  La58  1  0.83788854  0.98856894  0.87391247  1
  La  La59  1  0.82961288  0.34793731  0.61932341  1
  La  La60  1  0.50247630  0.31726399  0.37620792  1
  La  La61  1  0.66724921  0.84685901  0.12267755  1
  La  La62  1  0.50791273  0.65362955  0.87767886  1
  La  La63  1  0.66119571  0.82372806  0.37103749  1
  La  La64  1  0.33561684  0.85271739  0.12881111  1
  La  La65  1  0.66056744  0.81930618  0.87520920  1
  La  La66  1  0.67188627  0.18209337  0.12024206  1
  La  La67  1  0.82968811  0.01195526  0.12093655  1
  La  La68  1  -0.00095302  0.48380828  0.38015626  1
  La  La69  1  -0.00144112  0.82222467  0.36878110  1
  La  La70  1  1.00450186  0.17567446  0.12319194  1
  La  La71  1  0.16670189  0.65199242  0.87284052  1
  In  In72  1  0.50113682  0.50156332  0.75141551  1
  In  In73  1  0.33618687  0.66964635  0.75620437  1
  In  In74  1  0.33327850  0.67117756  0.25345782  1
  In  In75  1  0.50290413  0.16594090  0.00458719  1
  In  In76  1  0.83251919  0.83307124  0.00131703  1
  In  In77  1  0.33370249  0.66862717  -0.00004834  1
  In  In78  1  0.16516858  0.49638720  0.75365852  1
  In  In79  1  0.16702009  0.50052297  0.49864057  1
  In  In80  1  0.33292576  0.00178678  0.49789983  1
  In  In81  1  0.33414112  -0.00252261  0.74919757  1
  In  In82  1  0.83198648  0.50241667  0.74744661  1
  In  In83  1  0.16841111  0.83371349  0.74986541  1
  In  In84  1  -0.00141462  0.66719022  0.75010533  1
  In  In85  1  0.16591688  0.16428043  0.24906410  1
  In  In86  1  0.50431061  0.16635924  0.74680992  1
  In  In87  1  0.66728969  -0.00273091  0.50049678  1
  In  In88  1  0.33281864  0.33207959  0.49817454  1
  In  In89  1  0.50187851  0.50493535  0.50170803  1
  In  In90  1  -0.00378462  0.66668556  0.49820892  1
  In  In91  1  0.33405313  0.33326112  0.75284074  1
  In  In92  1  -0.00211744  0.32971485  0.00138453  1
  In  In93  1  -0.00111242  -0.00719563  0.49817567  1
  In  In94  1  0.16368485  0.83264781  0.00266637  1
  In  In95  1  0.66576839  0.66877059  0.00511766  1
  In  In96  1  0.33488446  0.33472071  0.00119891  1
  In  In97  1  0.83141063  0.83707527  0.75035682  1
  In  In98  1  0.66746030  0.33121640  0.74572944  1
  In  In99  1  0.50162518  0.50108218  0.25169227  1
  In  In100  1  0.83109206  0.16689936  0.49739336  1
  In  In101  1  0.66894624  0.00076835  0.24565774  1
  In  In102  1  0.16407234  0.49588592  -0.00055748  1
  In  In103  1  -0.00144327  0.33087136  0.24600336  1
  In  In104  1  0.50303915  0.83324630  0.50102938  1
  In  In105  1  0.50111924  0.49992935  0.00513235  1
  In  In106  1  0.83410308  0.50394884  0.25314543  1
  In  In107  1  0.66769776  0.33052197  0.25208654  1
  Ir  Ir108  1  0.67202739  0.66942012  0.49682650  1
  Ir  Ir109  1  0.83149549  0.16318024  -0.00082691  1
  Ir  Ir110  1  0.66427440  0.67229867  0.74732413  1
  Ir  Ir111  1  0.33619431  -0.00009446  0.25175130  1
  Ir  Ir112  1  0.49827509  0.16545156  0.25331551  1
  Ir  Ir113  1  0.16925204  0.83464014  0.49725248  1
  Ir  Ir114  1  0.16424426  0.83847321  0.25141265  1
  Ir  Ir115  1  0.49738318  0.83710830  -0.00182367  1
  Ir  Ir116  1  0.16138447  0.16355565  0.75074487  1
  Ir  Ir117  1  0.50218786  0.83605710  0.75219125  1
  Ir  Ir118  1  0.66994402  -0.00101560  -0.00210769  1
  Ir  Ir119  1  0.16666371  0.16161588  0.00045252  1
  Ir  Ir120  1  -0.00028379  0.66996164  0.24981608  1
  Ir  Ir121  1  0.16067803  0.16489299  0.49969356  1
  Ir  Ir122  1  -0.00201428  0.00159019  0.75175400  1
  Ir  Ir123  1  0.83032151  0.83058387  0.49473559  1
  Ir  Ir124  1  -0.00362836  -0.00381633  0.24548886  1
  Ir  Ir125  1  0.33225678  0.33455377  0.24953424  1
  Ir  Ir126  1  0.50184917  0.16640781  0.49652672  1
  Ir  Ir127  1  0.67206338  0.32957078  -0.00090348  1
  Ir  Ir128  1  0.33589367  0.67594925  0.50177157  1
  Ir  Ir129  1  0.83157371  0.16530661  0.75234672  1
  Ir  Ir130  1  -0.00292699  0.32710075  0.74872796  1
  Ir  Ir131  1  0.16841612  0.49764299  0.24800745  1
  Ir  Ir132  1  0.50233186  0.83377037  0.24641085  1
  Ir  Ir133  1  0.82961872  0.49995145  0.49695473  1
  Ir  Ir134  1  -0.00478386  0.33143453  0.50113978  1
  Ir  Ir135  1  0.66763683  0.67392271  0.25671784  1
  Ir  Ir136  1  -0.00043171  0.66648420  0.00536428  1
  Ir  Ir137  1  0.83542566  0.50094367  -0.00094623  1
  Ir  Ir138  1  0.66428666  0.33252703  0.49899965  1
  Ir  Ir139  1  0.66880146  0.00009597  0.75320709  1
  Ir  Ir140  1  -0.00575552  0.00081744  0.00012744  1
  Ir  Ir141  1  0.33444057  -0.00202775  0.00294804  1
  Ir  Ir142  1  0.83328573  0.83336925  0.25009033  1
  Ir  Ir143  1  0.83718768  0.16070591  0.23995165  1
  O  O144  1  0.30287678  0.33235167  0.13091511  1
  O  O145  1  0.32073622  0.32587450  0.62519922  1
  O  O146  1  0.31559401  0.65600883  0.12822365  1
  O  O147  1  0.31764816  0.68074806  0.62193788  1
  O  O148  1  0.31458137  0.99207633  0.12824640  1
  O  O149  1  0.30111378  0.98682313  0.62177660  1
  O  O150  1  0.65572902  0.32452337  0.12058206  1
  O  O151  1  0.62968739  0.33172367  0.61578659  1
  O  O152  1  0.63429850  0.67176855  0.13750557  1
  O  O153  1  0.63615237  0.66851096  0.62065406  1
  O  O154  1  0.64674067  0.98600301  0.11819139  1
  O  O155  1  0.63485412  0.99785494  0.63255141  1
  O  O156  1  0.95762765  0.32031683  0.12370938  1
  O  O157  1  0.96569031  0.32926952  0.62548980  1
  O  O158  1  0.97702472  0.66224139  0.12931759  1
  O  O159  1  0.96197005  0.66339369  0.62045690  1
  O  O160  1  0.96431904  0.98964987  0.12265778  1
  O  O161  1  0.96918508  0.99716029  0.63169384  1
  O  O162  1  0.18603514  0.15772561  0.11907372  1
  O  O163  1  0.18157949  0.15261252  0.62505950  1
  O  O164  1  0.20123759  0.48931814  0.12873950  1
  O  O165  1  0.18115079  0.49546428  0.62593653  1
  O  O166  1  0.19552622  0.83644599  0.13140137  1
  O  O167  1  0.20087420  0.82995280  0.61598108  1
  O  O168  1  0.53228670  0.16296143  0.13355473  1
  O  O169  1  0.52298613  0.15177002  0.61537988  1
  O  O170  1  0.52833422  0.49406208  0.12968318  1
  O  O171  1  0.52430131  0.49127334  0.62442650  1
  O  O172  1  0.53221110  0.82538259  0.12161613  1
  O  O173  1  0.52466195  0.81976665  0.63178699  1
  O  O174  1  0.86697058  0.14974464  0.11837023  1
  O  O175  1  0.84908631  0.15175644  0.63250077  1
  O  O176  1  0.84774631  0.49530736  0.12147621  1
  O  O177  1  0.85226245  0.49067688  0.61626774  1
  O  O178  1  0.86434398  0.83125321  0.13083017  1
  O  O179  1  0.85006582  0.82210182  0.61605227  1
  O  O180  1  0.14304530  0.16675245  0.37857291  1
  O  O181  1  0.14290741  0.17274564  0.87516512  1
  O  O182  1  0.13557082  0.49894148  0.36629108  1
  O  O183  1  0.12393074  0.50792984  0.87814140  1
  O  O184  1  0.13357814  0.84793084  0.37466572  1
  O  O185  1  0.15188013  0.84895331  0.87764375  1
  O  O186  1  0.47705626  0.17912121  0.37538744  1
  O  O187  1  0.49205204  0.17656157  0.87696630  1
  O  O188  1  0.48232130  0.52052913  0.37708545  1
  O  O189  1  0.48312060  0.51651361  0.87824552  1
  O  O190  1  0.48662627  0.84693376  0.36822261  1
  O  O191  1  0.46625656  0.84239472  0.87507473  1
  O  O192  1  0.81763185  0.16306523  0.36204333  1
  O  O193  1  0.79986234  0.16882973  0.87707189  1
  O  O194  1  0.79614730  0.51031082  0.38005367  1
  O  O195  1  0.81797953  0.49845109  0.87939702  1
  O  O196  1  0.79882455  0.83627961  0.37208156  1
  O  O197  1  0.79786303  0.84794254  0.87622765  1
  O  O198  1  0.02753964  -0.00416111  0.36635155  1
  O  O199  1  0.01890490  0.00213551  0.87730883  1
  O  O200  1  0.01193463  0.33512593  0.37815850  1
  O  O201  1  0.02396331  0.33553500  0.87175925  1
  O  O202  1  0.01634339  0.68500015  0.36893677  1
  O  O203  1  0.02780260  0.67278513  0.88726103  1
  O  O204  1  0.36783847  0.00012060  0.37087301  1
  O  O205  1  0.34607805  -0.00550149  0.88157892  1
  O  O206  1  0.36402882  0.33323142  0.36894423  1
  O  O207  1  0.37227070  0.32948622  0.87642201  1
  O  O208  1  0.36637547  0.67364587  0.38062902  1
  O  O209  1  0.37658840  0.69065905  0.87957731  1
  O  O210  1  0.68186145  -0.00522740  0.37072627  1
  O  O211  1  0.70172332  0.01011813  0.87586546  1
  O  O212  1  0.69164344  0.33437826  0.38093214  1
  O  O213  1  0.68641168  0.32846536  0.88084084  1
  O  O214  1  0.70287643  0.68556529  0.37714496  1
  O  O215  1  0.68327275  0.68085674  0.86938916  1
  O  O216  1  0.06609924  0.09297916  0.02339967  1
  O  O217  1  0.07784988  0.08764136  0.51638978  1
  O  O218  1  0.07931506  0.41343570  0.03412603  1
  O  O219  1  0.06341213  0.42208499  0.50471139  1
  O  O220  1  0.06264807  0.76137604  0.03069188  1
  O  O221  1  0.07868129  0.76478164  0.51014968  1
  O  O222  1  0.40777501  0.08562773  0.01297281  1
  O  O223  1  0.41063992  0.09731477  0.51744423  1
  O  O224  1  0.39645545  0.43842682  0.02880072  1
  O  O225  1  0.41443350  0.42287356  0.51731151  1
  O  O226  1  0.40470004  0.77439488  0.03089427  1
  O  O227  1  0.40333987  0.76756095  0.52236099  1
  O  O228  1  0.73540960  0.09616452  0.02563790  1
  O  O229  1  0.74249674  0.08802905  0.51637519  1
  O  O230  1  0.74350528  0.42428516  0.02238985  1
  O  O231  1  0.73616869  0.42506677  0.52102945  1
  O  O232  1  0.73017974  0.76898096  0.02160183  1
  O  O233  1  0.73685747  0.76345929  0.51703057  1
  O  O234  1  0.09500873  0.25039072  0.02339398  1
  O  O235  1  0.08873585  0.26037264  0.52088999  1
  O  O236  1  0.08744877  0.59751999  0.02068903  1
  O  O237  1  0.08532641  0.58859667  0.50528055  1
  O  O238  1  0.07858136  0.92413478  0.02436197  1
  O  O239  1  0.10166942  0.92725797  0.52159563  1
  O  O240  1  0.42876788  0.25897159  0.01890060  1
  O  O241  1  0.44171541  0.26290635  0.51470387  1
  O  O242  1  0.43448353  0.60461548  0.02896530  1
  O  O243  1  0.43425019  0.61310674  0.52192815  1
  O  O244  1  0.42435561  0.92583065  0.02448035  1
  O  O245  1  0.43129042  0.93045991  0.52508520  1
  O  O246  1  0.76757329  0.26000386  0.02787114  1
  O  O247  1  0.75912762  0.26663544  0.52388464  1
  O  O248  1  0.76306207  0.59051291  0.01402353  1
  O  O249  1  0.77047896  0.60324275  0.51923290  1
  O  O250  1  0.76081768  0.93261911  0.02414146  1
  O  O251  1  0.77168034  0.92687645  0.52317418  1
  O  O252  1  0.23967845  0.06624702  0.27403310  1
  O  O253  1  0.23460881  0.07450452  0.75532957  1
  O  O254  1  0.23772808  0.40339729  0.26791872  1
  O  O255  1  0.23196728  0.39718342  0.78227823  1
  O  O256  1  0.23791585  0.75138317  0.26914146  1
  O  O257  1  0.24092531  0.73866138  0.78746915  1
  O  O258  1  0.56436832  0.07038925  0.27335278  1
  O  O259  1  0.58086806  0.06884396  0.77124235  1
  O  O260  1  0.57433510  0.40493838  0.28296305  1
  O  O261  1  0.56885138  0.39858226  0.77413024  1
  O  O262  1  0.56975235  0.73929663  0.27815927  1
  O  O263  1  0.56828506  0.74042333  0.77753154  1
  O  O264  1  0.89921181  0.06044163  0.25587206  1
  O  O265  1  0.89607099  0.06646629  0.77270697  1
  O  O266  1  0.91999207  0.42000335  0.27203830  1
  O  O267  1  0.91177387  0.40159956  0.76313417  1
  O  O268  1  0.90311668  0.73957086  0.27737877  1
  O  O269  1  0.90157882  0.74143582  0.76011599  1
  O  O270  1  0.26081378  0.24492511  0.26394072  1
  O  O271  1  0.24916733  0.23638377  0.76999281  1
  O  O272  1  0.25672504  0.57086396  0.26502511  1
  O  O273  1  0.25773435  0.57790549  0.77640632  1
  O  O274  1  0.25613119  0.91309461  0.27503495  1
  O  O275  1  0.27757716  0.89190877  0.76165476  1
  O  O276  1  0.58859683  0.23716733  0.26633316  1
  O  O277  1  0.60631694  0.23052756  0.77242554  1
  O  O278  1  0.60620979  0.57930813  0.28512610  1
  O  O279  1  0.59795604  0.58299288  0.76783013  1
  O  O280  1  0.59804233  0.89830758  0.26308579  1
  O  O281  1  0.60251076  0.90243264  0.77752927  1
  O  O282  1  0.92887436  0.22624611  0.25658160  1
  O  O283  1  0.92497399  0.23295139  0.76581649  1
  O  O284  1  0.93068309  0.57954343  0.27991394  1
  O  O285  1  0.93016723  0.56627561  0.77395510  1
  O  O286  1  0.93280083  0.89598702  0.26849240  1
  O  O287  1  0.92499710  0.91583942  0.77283982  1
  O  O288  1  0.25007792  0.23528118  0.48929306  1
  O  O289  1  0.25139435  0.23544944  0.98092217  1
  O  O290  1  0.26506488  0.58718310  0.48540939  1
  O  O291  1  0.25431859  0.57575746  0.97757104  1
  O  O292  1  0.25152621  0.91038597  0.47147683  1
  O  O293  1  0.26916499  0.90365143  0.99402610  1
  O  O294  1  0.59368308  0.24065282  0.47150920  1
  O  O295  1  0.61119088  0.23175025  0.98667562  1
  O  O296  1  0.60833520  0.57561491  0.47282633  1
  O  O297  1  0.59284510  0.58002647  0.98199716  1
  O  O298  1  0.59933350  0.90032645  0.47590040  1
  O  O299  1  0.60325030  0.90150362  0.97584522  1
  O  O300  1  0.92419874  0.24342489  0.48781305  1
  O  O301  1  0.92280518  0.23095710  0.98425150  1
  O  O302  1  0.92011959  0.56678102  0.46436909  1
  O  O303  1  0.93221220  0.56845527  0.97648932  1
  O  O304  1  0.92829407  0.89130026  0.47338472  1
  O  O305  1  0.92183650  0.91392988  0.97979411  1
  O  O306  1  0.22909145  0.07109582  0.47934363  1
  O  O307  1  0.24276168  0.07131202  0.98310119  1
  O  O308  1  0.24293285  0.41041349  0.48023481  1
  O  O309  1  0.23059945  0.39344459  0.97541627  1
  O  O310  1  0.24137891  0.74420675  0.47536339  1
  O  O311  1  0.23607423  0.73863551  0.97342615  1
  O  O312  1  0.56117949  0.06606662  0.47701720  1
  O  O313  1  0.58383523  0.07234652  0.97984946  1
  O  O314  1  0.57636172  0.40362954  0.46882422  1
  O  O315  1  0.57450892  0.39236574  0.97827017  1
  O  O316  1  0.57636229  0.73358213  0.47247523  1
  O  O317  1  0.56450500  0.74572762  0.97550453  1
  O  O318  1  0.90656670  0.06946372  0.49216208  1
  O  O319  1  0.89415851  0.06592199  0.97796115  1
  O  O320  1  0.89989298  0.40386234  0.47950186  1
  O  O321  1  0.90807399  0.41279535  0.98266489  1
  O  O322  1  0.89392311  0.73672721  0.47299814  1
  O  O323  1  0.90983380  0.73717638  0.98706872  1
  O  O324  1  0.09140341  0.25626063  0.21580988  1
  O  O325  1  0.09106707  0.25664925  0.73716059  1
  O  O326  1  0.09436832  0.59120699  0.22992921  1
  O  O327  1  0.09337608  0.59473433  0.73956365  1
  O  O328  1  0.08821545  0.92655341  0.22745566  1
  O  O329  1  0.09428310  0.93711576  0.72534587  1
  O  O330  1  0.42902741  0.26473966  0.23734731  1
  O  O331  1  0.44035946  0.26682875  0.73017679  1
  O  O332  1  0.43893617  0.60680626  0.23413247  1
  O  O333  1  0.43834323  0.60840946  0.73202866  1
  O  O334  1  0.42845307  0.92535049  0.22717302  1
  O  O335  1  0.44011468  0.92759418  0.71987682  1
  O  O336  1  0.76798408  0.25359069  0.21828673  1
  O  O337  1  0.77163640  0.26114542  0.72356163  1
  O  O338  1  0.76165286  0.60621839  0.24378234  1
  O  O339  1  0.76021868  0.60632852  0.72460441  1
  O  O340  1  0.76755980  0.92538058  0.22003039  1
  O  O341  1  0.76418058  0.93876733  0.72734935  1
  O  O342  1  0.06106616  0.09128214  0.22484765  1
  O  O343  1  0.07207752  0.08792079  0.72894055  1
  O  O344  1  0.08606717  0.41950047  0.22651587  1
  O  O345  1  0.06518032  0.41542067  0.73728923  1
  O  O346  1  0.06637821  0.77120416  0.22917042  1
  O  O347  1  0.07579263  0.76015213  0.73315870  1
  O  O348  1  0.40639184  0.09299770  0.23361247  1
  O  O349  1  0.41489936  0.08482638  0.73052614  1
  O  O350  1  0.39658884  0.43100029  0.23014499  1
  O  O351  1  0.40661261  0.42944159  0.72838359  1
  O  O352  1  0.40907475  0.76879353  0.22139598  1
  O  O353  1  0.40903519  0.77348602  0.72713647  1
  O  O354  1  0.74107155  0.09676987  0.21493244  1
  O  O355  1  0.73772246  0.09552464  0.73576476  1
  O  O356  1  0.74735578  0.42032303  0.23663395  1
  O  O357  1  0.74590650  0.42114690  0.72822596  1
  O  O358  1  0.73102921  0.77333191  0.23000590  1
  O  O359  1  0.73416568  0.76109959  0.73434661  1
