# generated using pymatgen
data_BaLaInIrO6
_symmetry_space_group_name_H-M   'P 1'
_cell_length_a   17.51009512
_cell_length_b   17.53849435
_cell_length_c   16.48360020
_cell_angle_alpha   90.00477990
_cell_angle_beta   90.01018967
_cell_angle_gamma   90.01687904
_symmetry_Int_Tables_number   1
_chemical_formula_structural   BaLaInIrO6
_chemical_formula_sum   'Ba36 La36 In36 Ir36 O216'
_cell_volume   5062.12491568
_cell_formula_units_Z   36
loop_
 _symmetry_equiv_pos_site_id
 _symmetry_equiv_pos_as_xyz
  1  'x, y, z'
loop_
 _atom_site_type_symbol
 _atom_site_label
 _atom_site_symmetry_multiplicity
 _atom_site_fract_x
 _atom_site_fract_y
 _atom_site_fract_z
 _atom_site_occupancy
  Ba  Ba0  1  0.66214943  0.49054038  0.37704039  1
  Ba  Ba1  1  0.33325328  0.81724988  0.37654343  1
  Ba  Ba2  1  0.33418922  0.49373434  0.37839481  1
  Ba  Ba3  1  0.49836411  0.34102357  0.12346584  1
  Ba  Ba4  1  1.00310877  0.83939819  0.11907644  1
  Ba  Ba5  1  0.00114160  0.82194136  0.87212354  1
  Ba  Ba6  1  0.33542143  0.84116545  0.62195795  1
  Ba  Ba7  1  0.16384710  0.34341164  0.62278839  1
  Ba  Ba8  1  1.00190653  0.84569051  0.62550808  1
  Ba  Ba9  1  0.16388151  0.32826546  0.87291604  1
  Ba  Ba10  1  0.32785129  0.49313456  0.87450784  1
  Ba  Ba11  1  0.33101939  0.17809091  0.12660946  1
  Ba  Ba12  1  0.50626464  0.67408699  0.62626045  1
  Ba  Ba13  1  0.67202771  0.17658798  0.62740312  1
  Ba  Ba14  1  0.16459570  0.65522054  0.87557969  1
  Ba  Ba15  1  0.66718225  0.15827719  0.87474414  1
  Ba  Ba16  1  0.16077632  0.33640205  0.12711347  1
  Ba  Ba17  1  0.83109862  0.34448152  0.62621174  1
  Ba  Ba18  1  1.00077510  0.50432541  0.12718327  1
  Ba  Ba19  1  0.33253381  0.16136335  0.37459119  1
  Ba  Ba20  1  1.00233500  0.50854890  0.62694343  1
  Ba  Ba21  1  -0.00370552  0.15821843  0.87152674  1
  Ba  Ba22  1  0.16282599  0.99335838  0.37249768  1
  Ba  Ba23  1  0.16590808  0.00866981  0.62138185  1
  Ba  Ba24  1  0.50114585  0.34137133  0.62602340  1
  Ba  Ba25  1  0.49620822  0.32584630  0.87308944  1
  Ba  Ba26  1  0.16737880  0.00623694  0.12264948  1
  Ba  Ba27  1  1.00116718  0.17822659  0.62274007  1
  Ba  Ba28  1  0.67090793  0.17931416  0.12482871  1
  Ba  Ba29  1  0.66953157  0.84481919  0.62101602  1
  Ba  Ba30  1  1.00247075  0.17503501  0.12531447  1
  Ba  Ba31  1  0.16934675  0.66846942  0.12337830  1
  Ba  Ba32  1  0.82885773  0.34419746  0.12140159  1
  Ba  Ba33  1  -0.00275883  0.49099543  0.37872682  1
  Ba  Ba34  1  0.50190064  0.65670890  0.38424666  1
  Ba  Ba35  1  0.83457353  0.99063017  0.37324908  1
  La  La36  1  0.83084172  0.01412682  0.62872431  1
  La  La37  1  0.83776624  0.98799691  0.87244119  1
  La  La38  1  0.83345138  0.01554708  0.12393339  1
  La  La39  1  0.67420137  0.51388086  0.62178853  1
  La  La40  1  0.83656453  0.65131163  0.37646916  1
  La  La41  1  0.32694461  0.16006681  0.87573304  1
  La  La42  1  0.49481865  0.67333299  0.13396822  1
  La  La43  1  0.84398110  0.65014986  0.87366773  1
  La  La44  1  -0.00552765  0.81993737  0.37139578  1
  La  La45  1  0.66200619  0.48558617  0.87398738  1
  La  La46  1  0.50168897  0.98630601  0.87590473  1
  La  La47  1  0.49475567  0.01537309  0.62498011  1
  La  La48  1  0.50905667  0.98335640  0.37943605  1
  La  La49  1  0.33545924  0.84599875  0.13367425  1
  La  La50  1  0.67317862  0.84895563  0.12514269  1
  La  La51  1  0.33433793  0.51850958  0.63111852  1
  La  La52  1  0.50453754  0.31425569  0.37675748  1
  La  La53  1  0.67388176  0.51613693  0.12438718  1
  La  La54  1  0.66599045  0.82257325  0.87508911  1
  La  La55  1  0.16044946  0.66176626  0.37611415  1
  La  La56  1  0.00116086  0.48799585  0.87802418  1
  La  La57  1  0.33405660  0.17527916  0.62209909  1
  La  La58  1  0.16302038  0.68002605  0.62588760  1
  La  La59  1  0.50117006  0.65292577  0.87388935  1
  La  La60  1  0.82920931  0.68350779  0.12469820  1
  La  La61  1  0.82623838  0.68410621  0.62220681  1
  La  La62  1  0.66487257  0.15214852  0.37730670  1
  La  La63  1  0.32255383  0.81500276  0.86803035  1
  La  La64  1  0.83789612  0.31517452  0.37816128  1
  La  La65  1  0.49146470  0.01981728  0.12272932  1
  La  La66  1  0.00211149  0.15419837  0.37567744  1
  La  La67  1  0.32412675  0.50140068  0.12589924  1
  La  La68  1  0.16746289  0.98663679  0.87222272  1
  La  La69  1  0.16309724  0.31935718  0.37441458  1
  La  La70  1  0.66239022  0.81421029  0.37681053  1
  La  La71  1  0.83973103  0.31911331  0.87224515  1
  In  In72  1  0.83474769  0.83488975  0.74896769  1
  In  In73  1  0.50159979  0.83196422  0.50492381  1
  In  In74  1  0.66879266  0.33534278  0.25197159  1
  In  In75  1  0.16981761  0.83044828  -0.00176107  1
  In  In76  1  0.66669087  0.33315394  0.75159770  1
  In  In77  1  0.16405588  0.83436798  0.49903326  1
  In  In78  1  0.33714187  -0.00145195  0.25268777  1
  In  In79  1  0.66610979  -0.00174700  0.24768031  1
  In  In80  1  0.33440789  -0.00012639  0.74961318  1
  In  In81  1  -0.00425623  0.33565918  0.25228851  1
  In  In82  1  -0.00212935  0.66686970  0.50502926  1
  In  In83  1  -0.00018518  0.33512431  0.74685468  1
  In  In84  1  0.16635914  0.83012395  0.24901992  1
  In  In85  1  -0.00287923  0.66358624  0.00052957  1
  In  In86  1  0.50562018  0.83113067  0.24829961  1
  In  In87  1  0.66446299  -0.00106098  0.75045131  1
  In  In88  1  0.50209649  0.83061991  0.00174247  1
  In  In89  1  0.33350566  0.33745196  0.50083429  1
  In  In90  1  0.49958486  0.50069679  0.74920347  1
  In  In91  1  0.50076136  0.17009704  -0.00378913  1
  In  In92  1  0.83265593  0.16535789  -0.00299382  1
  In  In93  1  0.50163723  0.49730096  0.25168431  1
  In  In94  1  0.33715117  -0.00090359  -0.00550770  1
  In  In95  1  0.50262825  0.50176004  0.00232609  1
  In  In96  1  -0.00334387  -0.00417430  0.24643894  1
  In  In97  1  0.16289143  0.16482637  -0.00516988  1
  In  In98  1  0.33798520  0.66714501  0.00320522  1
  In  In99  1  0.33518665  0.00064614  0.49729027  1
  In  In100  1  0.67127473  0.66851794  0.75438199  1
  In  In101  1  0.66818681  0.33438405  0.49988254  1
  In  In102  1  0.33465115  0.33638370  0.25374202  1
  In  In103  1  0.32953807  0.33385936  0.74787454  1
  In  In104  1  -0.00328997  0.66459049  0.24793494  1
  In  In105  1  0.83256935  0.16566076  0.25138639  1
  In  In106  1  0.16540219  0.16618706  0.24990479  1
  In  In107  1  0.66882303  0.66861256  -0.00221236  1
  Ir  Ir108  1  0.16582653  0.49590828  0.00147961  1
  Ir  Ir109  1  0.50047974  0.50037376  0.50460828  1
  Ir  Ir110  1  0.33008983  0.33598944  -0.00020486  1
  Ir  Ir111  1  0.16774894  0.50077353  0.50116060  1
  Ir  Ir112  1  0.82982763  0.50137003  -0.00105809  1
  Ir  Ir113  1  -0.00126457  0.33458264  0.49814204  1
  Ir  Ir114  1  0.16247940  0.16788813  0.50213201  1
  Ir  Ir115  1  0.49647612  0.16530143  0.74704069  1
  Ir  Ir116  1  0.49702781  0.83328086  0.75537842  1
  Ir  Ir117  1  0.16536775  0.83173599  0.74935534  1
  Ir  Ir118  1  0.67327914  0.66532254  0.49835386  1
  Ir  Ir119  1  0.83434592  0.16419393  0.50253583  1
  Ir  Ir120  1  0.82954772  0.83664411  0.00285924  1
  Ir  Ir121  1  0.83474171  0.16536553  0.74866608  1
  Ir  Ir122  1  0.66794941  -0.00466146  -0.00147420  1
  Ir  Ir123  1  -0.00476376  0.33757146  -0.00249275  1
  Ir  Ir124  1  0.83223639  0.83584635  0.49343028  1
  Ir  Ir125  1  0.50324789  0.16379064  0.50138502  1
  Ir  Ir126  1  0.33289028  0.67069294  0.74649446  1
  Ir  Ir127  1  0.00120729  0.00078263  0.74963261  1
  Ir  Ir128  1  0.33296176  0.65926793  0.25342239  1
  Ir  Ir129  1  -0.00545749  0.00162504  0.50150507  1
  Ir  Ir130  1  0.33090829  0.65997312  0.50124530  1
  Ir  Ir131  1  0.66953676  0.00091321  0.50056807  1
  Ir  Ir132  1  -0.00208077  0.66299798  0.74967053  1
  Ir  Ir133  1  0.16544907  0.16268663  0.74891177  1
  Ir  Ir134  1  0.16601125  0.50456844  0.74814936  1
  Ir  Ir135  1  0.66884821  0.66619543  0.24914944  1
  Ir  Ir136  1  0.50275250  0.16394262  0.25512493  1
  Ir  Ir137  1  0.83265335  0.50442007  0.75026688  1
  Ir  Ir138  1  0.66925821  0.33774122  -0.00232780  1
  Ir  Ir139  1  -0.00412090  -0.00411416  -0.00742768  1
  Ir  Ir140  1  0.83285612  0.50184200  0.50083151  1
  Ir  Ir141  1  0.16683335  0.50093654  0.25596666  1
  Ir  Ir142  1  0.82858979  0.50322605  0.24976212  1
  Ir  Ir143  1  0.82891609  0.83058724  0.24925000  1
  O  O144  1  0.31343641  0.33660314  0.12020678  1
  O  O145  1  0.31274072  0.31284453  0.62257665  1
  O  O146  1  0.32044609  0.64831619  0.13360845  1
  O  O147  1  0.30089681  0.66418886  0.62345156  1
  O  O148  1  0.31873886  0.98344985  0.12104745  1
  O  O149  1  0.31843470  1.00221154  0.62460702  1
  O  O150  1  0.65039407  0.33576575  0.11865027  1
  O  O151  1  0.65477389  0.33557690  0.62526614  1
  O  O152  1  0.63734734  0.65810180  0.12828387  1
  O  O153  1  0.65861397  0.65593220  0.62119392  1
  O  O154  1  0.63153332  0.98844026  0.11794693  1
  O  O155  1  0.63595277  0.99869375  0.62023604  1
  O  O156  1  0.98194364  0.33726688  0.11985287  1
  O  O157  1  0.98183037  0.33964554  0.61937319  1
  O  O158  1  0.96239044  0.65951077  0.12382291  1
  O  O159  1  0.96367709  0.66569165  0.63142830  1
  O  O160  1  0.96627225  0.99317863  0.11203359  1
  O  O161  1  0.96789715  0.99982812  0.62645640  1
  O  O162  1  0.17612179  0.16593977  0.12055565  1
  O  O163  1  0.19486419  0.16293788  0.62552613  1
  O  O164  1  0.19061972  0.48824747  0.12981948  1
  O  O165  1  0.19603719  0.49744697  0.62509227  1
  O  O166  1  0.20165931  0.82792561  0.12240021  1
  O  O167  1  0.18531043  0.82434555  0.62950671  1
  O  O168  1  0.52382320  0.15983203  0.13301522  1
  O  O169  1  0.52662946  0.15306732  0.62394227  1
  O  O170  1  0.53704029  0.50171882  0.12610852  1
  O  O171  1  0.53522929  0.50139060  0.62181689  1
  O  O172  1  0.54204822  0.80864803  0.12559335  1
  O  O173  1  0.52038372  0.82834184  0.63577917  1
  O  O174  1  0.84948846  0.15672783  0.12120172  1
  O  O175  1  0.85474199  0.15287522  0.62627285  1
  O  O176  1  0.85310524  0.49555542  0.12499235  1
  O  O177  1  0.85602569  0.49687998  0.62661298  1
  O  O178  1  0.85535587  0.81981074  0.12654685  1
  O  O179  1  0.85365502  0.82325526  0.61440200  1
  O  O180  1  0.13516835  0.17585908  0.38409593  1
  O  O181  1  0.14412946  0.16871207  0.86644174  1
  O  O182  1  0.14888230  0.52403641  0.37860226  1
  O  O183  1  0.13861911  0.50356796  0.87589881  1
  O  O184  1  0.13207584  0.82423169  0.37573579  1
  O  O185  1  0.14909520  0.83889210  0.86759179  1
  O  O186  1  0.48101135  0.17424358  0.37939788  1
  O  O187  1  0.46624358  0.16891876  0.86626941  1
  O  O188  1  0.48456123  0.50411760  0.38477952  1
  O  O189  1  0.47744696  0.51512513  0.87592668  1
  O  O190  1  0.48613756  0.84253473  0.37634018  1
  O  O191  1  0.46375880  0.84473589  0.87239512  1
  O  O192  1  0.80365210  0.16850100  0.38400911  1
  O  O193  1  0.81903304  0.17283879  0.86954111  1
  O  O194  1  0.80787221  0.51664234  0.37605496  1
  O  O195  1  0.79977656  0.51491191  0.87405524  1
  O  O196  1  0.79709239  0.83935364  0.37117385  1
  O  O197  1  0.80155965  0.84929028  0.88141639  1
  O  O198  1  0.00902028  0.00937921  0.38168745  1
  O  O199  1  0.03023000  0.00071911  0.87105920  1
  O  O200  1  0.02470124  0.33629274  0.38114900  1
  O  O201  1  0.00807989  0.34369001  0.87611631  1
  O  O202  1  0.02216026  0.67695762  0.37717077  1
  O  O203  1  0.01356705  0.65883269  0.86927054  1
  O  O204  1  0.37553287  0.00259606  0.37593923  1
  O  O205  1  0.37093741  0.02115808  0.86963987  1
  O  O206  1  0.37077820  0.33826829  0.38022885  1
  O  O207  1  0.34544261  0.33474909  0.87807094  1
  O  O208  1  0.35315853  0.65667411  0.37773993  1
  O  O209  1  0.36451175  0.67372269  0.86830880  1
  O  O210  1  0.68609621  0.01331161  0.38126443  1
  O  O211  1  0.69981356  -0.00294271  0.87927408  1
  O  O212  1  0.70324261  0.33861342  0.37876284  1
  O  O213  1  0.70173779  0.34633389  0.87735534  1
  O  O214  1  0.70161208  0.67576809  0.37225247  1
  O  O215  1  0.71218735  0.68665773  0.87678352  1
  O  O216  1  0.06394207  0.08521789  0.01075794  1
  O  O217  1  0.06373116  0.09661838  0.51278044  1
  O  O218  1  0.06407908  0.43119424  0.00470236  1
  O  O219  1  0.07189137  0.43305408  0.51379006  1
  O  O220  1  0.07621986  0.75294776  0.00969145  1
  O  O221  1  0.07726573  0.75353014  0.52673097  1
  O  O222  1  0.41067513  0.09586815  0.02223054  1
  O  O223  1  0.41108333  0.09848969  0.52668133  1
  O  O224  1  0.39827141  0.43155118  0.02060499  1
  O  O225  1  0.40654321  0.43745160  0.53099153  1
  O  O226  1  0.40468765  0.76646536  0.03819199  1
  O  O227  1  0.40510148  0.74933934  0.51318753  1
  O  O228  1  0.73701324  0.08428389  0.01947931  1
  O  O229  1  0.74379078  0.09076586  0.52700601  1
  O  O230  1  0.73108075  0.43855224  0.01715358  1
  O  O231  1  0.73843380  0.43865043  0.52298663  1
  O  O232  1  0.73716244  0.76947779  0.02974527  1
  O  O233  1  0.74255856  0.76050867  0.51472475  1
  O  O234  1  0.08272685  0.26370381  0.00706513  1
  O  O235  1  0.09312055  0.26433139  0.51513422  1
  O  O236  1  0.09309360  0.58269424  0.01638703  1
  O  O237  1  0.10345182  0.59595643  0.52260037  1
  O  O238  1  0.08981803  0.92879350  0.00595849  1
  O  O239  1  0.08266335  0.93092873  0.51383729  1
  O  O240  1  0.42044039  0.26632888  0.01215908  1
  O  O241  1  0.43172411  0.25242282  0.51836662  1
  O  O242  1  0.44428610  0.60973816  0.01722947  1
  O  O243  1  0.42547342  0.59022943  0.52939662  1
  O  O244  1  0.44664727  0.93746895  0.01465499  1
  O  O245  1  0.44173028  0.93555212  0.52081601  1
  O  O246  1  0.75694876  0.26467203  0.00509743  1
  O  O247  1  0.76821725  0.25601334  0.51466345  1
  O  O248  1  0.76835306  0.59724384  0.02732642  1
  O  O249  1  0.76896821  0.59867854  0.52387053  1
  O  O250  1  0.76364859  0.93111643  0.02989238  1
  O  O251  1  0.76623928  0.93398486  0.52419722  1
  O  O252  1  0.24338019  0.07453151  0.26561939  1
  O  O253  1  0.23358497  0.07131638  0.77487810  1
  O  O254  1  0.22980189  0.40786489  0.27898666  1
  O  O255  1  0.23482167  0.41377420  0.76301968  1
  O  O256  1  0.23748298  0.72194140  0.27378950  1
  O  O257  1  0.23738058  0.74012172  0.76874140  1
  O  O258  1  0.56500354  0.06794396  0.27535637  1
  O  O259  1  0.56280374  0.06918091  0.77025921  1
  O  O260  1  0.56540901  0.39482348  0.27695320  1
  O  O261  1  0.57898625  0.41232978  0.77578833  1
  O  O262  1  0.57995729  0.73339612  0.27572456  1
  O  O263  1  0.56583745  0.74073613  0.77891994  1
  O  O264  1  0.89760400  0.06328781  0.25161235  1
  O  O265  1  0.90140481  0.06504847  0.76779228  1
  O  O266  1  0.89182920  0.40663895  0.27503694  1
  O  O267  1  0.89687651  0.41045837  0.77532687  1
  O  O268  1  0.89189376  0.73637033  0.27518826  1
  O  O269  1  0.90291343  0.73096762  0.77141122  1
  O  O270  1  0.25390401  0.24994142  0.27404776  1
  O  O271  1  0.26197284  0.22620865  0.76643968  1
  O  O272  1  0.26784734  0.56224065  0.25790083  1
  O  O273  1  0.26447332  0.57303748  0.75665421  1
  O  O274  1  0.26897384  0.89611996  0.26230348  1
  O  O275  1  0.25789645  0.90209203  0.77259766  1
  O  O276  1  0.59701519  0.22996102  0.28040688  1
  O  O277  1  0.58614359  0.23600775  0.76620680  1
  O  O278  1  0.60279427  0.57513355  0.26434766  1
  O  O279  1  0.59720611  0.57751105  0.77706518  1
  O  O280  1  0.60797468  0.89719164  0.27481346  1
  O  O281  1  0.59194876  0.89898718  0.78144447  1
  O  O282  1  0.92697660  0.23706603  0.28454110  1
  O  O283  1  0.91946259  0.24343438  0.76387443  1
  O  O284  1  0.91698505  0.57353709  0.27262605  1
  O  O285  1  0.93078557  0.56745979  0.77673680  1
  O  O286  1  0.92553668  0.89142898  0.27242642  1
  O  O287  1  0.92755555  0.91324284  0.77030130  1
  O  O288  1  0.24836420  0.24115981  0.48161791  1
  O  O289  1  0.26414569  0.24088100  0.97832612  1
  O  O290  1  0.26609192  0.56249922  0.49770176  1
  O  O291  1  0.26036118  0.56511054  0.99797564  1
  O  O292  1  0.25726482  0.90777835  0.48164077  1
  O  O293  1  0.26384471  0.90586805  0.96217720  1
  O  O294  1  0.59558687  0.23279055  0.47591810  1
  O  O295  1  0.59710919  0.24578189  0.98129444  1
  O  O296  1  0.60171831  0.57127798  0.49010955  1
  O  O297  1  0.60535641  0.57010055  0.97037330  1
  O  O298  1  0.60386231  0.90876961  0.47302559  1
  O  O299  1  0.60763389  0.89954803  0.97578743  1
  O  O300  1  0.92806450  0.23751257  0.47306613  1
  O  O301  1  0.92216409  0.25041716  0.98054506  1
  O  O302  1  0.91979070  0.57590492  0.48202595  1
  O  O303  1  0.92337686  0.56611614  0.97168013  1
  O  O304  1  0.92954137  0.90181837  0.47523281  1
  O  O305  1  0.92090113  0.90719818  0.97090884  1
  O  O306  1  0.23593465  0.08268865  0.48319548  1
  O  O307  1  0.23938946  0.07228380  0.96582001  1
  O  O308  1  0.22954386  0.40560003  0.47475932  1
  O  O309  1  0.23627852  0.40490612  0.98592717  1
  O  O310  1  0.23664947  0.72501890  0.48107391  1
  O  O311  1  0.24977734  0.74085156  0.97113194  1
  O  O312  1  0.57220986  0.06868828  0.47574439  1
  O  O313  1  0.57411050  0.06199854  0.97439556  1
  O  O314  1  0.56291302  0.40341123  0.48061926  1
  O  O315  1  0.58103853  0.40693941  0.97639251  1
  O  O316  1  0.58634547  0.74249768  0.48383550  1
  O  O317  1  0.57383874  0.73918737  0.95992189  1
  O  O318  1  0.90422017  0.07417829  0.48434955  1
  O  O319  1  0.90064605  0.06217233  0.97497591  1
  O  O320  1  0.89844954  0.40128833  0.47613701  1
  O  O321  1  0.89777093  0.40744453  0.97115670  1
  O  O322  1  0.90072112  0.74453716  0.46794156  1
  O  O323  1  0.89163914  0.73835913  0.98024081  1
  O  O324  1  0.09203994  0.26474613  0.24782166  1
  O  O325  1  0.09495717  0.25469834  0.73358632  1
  O  O326  1  0.09977003  0.59261419  0.24065136  1
  O  O327  1  0.09720573  0.59984378  0.72486565  1
  O  O328  1  0.09146081  0.92600153  0.23201470  1
  O  O329  1  0.09891621  0.93079781  0.73630117  1
  O  O330  1  0.43659127  0.25784412  0.24334699  1
  O  O331  1  0.42517733  0.25235934  0.72762819  1
  O  O332  1  0.43197891  0.59967021  0.23619617  1
  O  O333  1  0.42160098  0.59838646  0.72771826  1
  O  O334  1  0.43815291  0.92688862  0.21716330  1
  O  O335  1  0.44017246  0.93242712  0.73259901  1
  O  O336  1  0.76528499  0.26547238  0.24111567  1
  O  O337  1  0.76532393  0.25869827  0.74261087  1
  O  O338  1  0.76439355  0.60156178  0.22258977  1
  O  O339  1  0.77450454  0.60058312  0.72741718  1
  O  O340  1  0.76672082  0.92524587  0.21739071  1
  O  O341  1  0.76498662  0.93315690  0.72616965  1
  O  O342  1  0.06315564  0.09795280  0.25089568  1
  O  O343  1  0.07220000  0.09227118  0.72964498  1
  O  O344  1  0.07438405  0.43435677  0.24631303  1
  O  O345  1  0.07216510  0.43612686  0.74610936  1
  O  O346  1  0.06861724  0.75811457  0.23313725  1
  O  O347  1  0.07367834  0.75404012  0.72562289  1
  O  O348  1  0.41501111  0.09517792  0.22855433  1
  O  O349  1  0.40651429  0.09973534  0.71894747  1
  O  O350  1  0.39973593  0.43467086  0.22527281  1
  O  O351  1  0.40175773  0.43044119  0.72536386  1
  O  O352  1  0.40119802  0.75465031  0.23054861  1
  O  O353  1  0.39863934  0.76944764  0.73882128  1
  O  O354  1  0.73380539  0.09393335  0.23872211  1
  O  O355  1  0.74702826  0.09139620  0.73459519  1
  O  O356  1  0.73324283  0.44194550  0.22687947  1
  O  O357  1  0.73532704  0.44510948  0.73358193  1
  O  O358  1  0.73272360  0.76416181  0.22407688  1
  O  O359  1  0.74169618  0.76227946  0.72755876  1
