# generated using pymatgen
data_BaLaInIrO6
_symmetry_space_group_name_H-M   'P 1'
_cell_length_a   17.51659742
_cell_length_b   17.54430022
_cell_length_c   16.49601325
_cell_angle_alpha   90.02086331
_cell_angle_beta   90.01331789
_cell_angle_gamma   89.98503966
_symmetry_Int_Tables_number   1
_chemical_formula_structural   BaLaInIrO6
_chemical_formula_sum   'Ba36 La36 In36 Ir36 O216'
_cell_volume   5069.49548824
_cell_formula_units_Z   36
loop_
 _symmetry_equiv_pos_site_id
 _symmetry_equiv_pos_as_xyz
  1  'x, y, z'
loop_
 _atom_site_type_symbol
 _atom_site_label
 _atom_site_symmetry_multiplicity
 _atom_site_fract_x
 _atom_site_fract_y
 _atom_site_fract_z
 _atom_site_occupancy
  Ba  Ba0  1  0.00118107  0.82379992  0.37408218  1
  Ba  Ba1  1  0.66625283  0.17564967  0.12550303  1
  Ba  Ba2  1  0.33336996  0.17519013  0.12951428  1
  Ba  Ba3  1  0.83101938  0.34159410  0.12254807  1
  Ba  Ba4  1  0.83277075  0.65389522  0.87181992  1
  Ba  Ba5  1  0.83374023  0.67022505  0.12161252  1
  Ba  Ba6  1  0.99952835  0.17841945  0.62448844  1
  Ba  Ba7  1  0.66967967  0.16971127  0.62756369  1
  Ba  Ba8  1  0.49691241  0.00975558  0.62435583  1
  Ba  Ba9  1  0.49768171  0.65408481  0.37680824  1
  Ba  Ba10  1  0.66494513  0.15915977  0.87618712  1
  Ba  Ba11  1  0.66550249  0.50328840  0.12543854  1
  Ba  Ba12  1  0.33081424  0.15650954  0.88029835  1
  Ba  Ba13  1  0.83179051  0.99311551  0.37513577  1
  Ba  Ba14  1  0.66770351  0.49611685  0.37725644  1
  Ba  Ba15  1  0.16943253  0.65969249  0.87616076  1
  Ba  Ba16  1  0.16919949  0.32877463  0.87723312  1
  Ba  Ba17  1  0.33041960  0.49088589  0.37783554  1
  Ba  Ba18  1  0.17117051  0.98971667  0.37531584  1
  Ba  Ba19  1  0.16841827  0.32694986  0.37502497  1
  Ba  Ba20  1  1.00018038  0.50621888  0.12284712  1
  Ba  Ba21  1  0.83300843  0.67140801  0.62393415  1
  Ba  Ba22  1  0.16676061  0.67484664  0.12598449  1
  Ba  Ba23  1  0.83340640  0.32327376  0.88182238  1
  Ba  Ba24  1  -0.00167635  0.49410146  0.37068393  1
  Ba  Ba25  1  0.16988575  0.65575073  0.36950032  1
  Ba  Ba26  1  0.50281116  0.99007044  0.87889081  1
  Ba  Ba27  1  0.83043679  0.00760613  0.62063699  1
  Ba  Ba28  1  0.83305548  0.32771214  0.37160111  1
  Ba  Ba29  1  0.66699286  0.84125782  0.62467996  1
  Ba  Ba30  1  0.50131395  0.98512558  0.37272509  1
  Ba  Ba31  1  0.33429772  0.51270581  0.62512406  1
  Ba  Ba32  1  0.50030408  0.32478340  0.87852652  1
  Ba  Ba33  1  0.00056365  0.49001311  0.87965300  1
  Ba  Ba34  1  0.82993402  0.33990761  0.63017915  1
  Ba  Ba35  1  0.99990902  0.83953603  0.12162531  1
  La  La36  1  0.66831823  0.50938311  0.62971235  1
  La  La37  1  0.66649427  0.48310760  0.87711942  1
  La  La38  1  0.17339022  0.99119868  0.87693946  1
  La  La39  1  -0.00478160  0.81791421  0.87764584  1
  La  La40  1  0.50853015  0.32147816  0.37445329  1
  La  La41  1  0.33407723  0.82441765  0.87291485  1
  La  La42  1  0.16448338  0.01643033  0.12331011  1
  La  La43  1  0.33915153  0.85339210  0.12557985  1
  La  La44  1  0.16075002  0.35360332  0.62506073  1
  La  La45  1  1.00168355  0.18045195  0.12989894  1
  La  La46  1  0.33897497  0.51525149  0.12715205  1
  La  La47  1  0.83142111  0.99370945  0.86445943  1
  La  La48  1  0.34016168  0.18303456  0.62460796  1
  La  La49  1  0.99925715  0.50823792  0.62353574  1
  La  La50  1  0.33044041  0.14883057  0.37601692  1
  La  La51  1  0.66992819  0.84546804  0.12319307  1
  La  La52  1  -0.00417447  0.16069628  0.87485709  1
  La  La53  1  0.32663659  0.81277977  0.37456535  1
  La  La54  1  -0.00520335  0.14961445  0.37313936  1
  La  La55  1  0.49700368  0.68226301  0.61949352  1
  La  La56  1  0.82875093  0.00557408  0.12612568  1
  La  La57  1  0.49593398  0.34432308  0.62698055  1
  La  La58  1  0.15971794  0.68252449  0.61857859  1
  La  La59  1  0.33787951  0.84575572  0.62286725  1
  La  La60  1  0.50847647  0.65088109  0.86974427  1
  La  La61  1  0.16552790  0.34671625  0.12317365  1
  La  La62  1  0.32552516  0.48435843  0.87436195  1
  La  La63  1  0.83319753  0.65350937  0.37165446  1
  La  La64  1  0.48954017  0.68811723  0.12861559  1
  La  La65  1  0.66262901  0.81945338  0.37562946  1
  La  La66  1  0.66448271  0.15144701  0.37926118  1
  La  La67  1  0.16218697  0.01802737  0.62658569  1
  La  La68  1  0.66267398  0.81922353  0.87401777  1
  La  La69  1  1.00557978  0.85000793  0.62176750  1
  La  La70  1  0.49663992  0.34965939  0.12674028  1
  La  La71  1  0.49402872  0.01755064  0.12616790  1
  In  In72  1  0.00153013  0.33332586  0.49599407  1
  In  In73  1  0.66271179  -0.00388335  0.49854221  1
  In  In74  1  0.16754017  0.16996994  0.25182567  1
  In  In75  1  0.66064338  0.66455511  0.00103379  1
  In  In76  1  0.83402704  0.16882331  0.75193237  1
  In  In77  1  0.66478542  0.33402953  0.50221103  1
  In  In78  1  0.83211400  0.16721119  0.24722712  1
  In  In79  1  0.49839483  0.16671056  0.75251482  1
  In  In80  1  0.16897977  0.50718657  0.74803879  1
  In  In81  1  0.17122661  0.50041481  0.00169486  1
  In  In82  1  0.49807369  0.16655338  0.49890304  1
  In  In83  1  0.16881419  0.83531806  0.74893753  1
  In  In84  1  0.66432237  -0.00258118  0.75185333  1
  In  In85  1  0.83455058  0.83269307  0.74947072  1
  In  In86  1  0.33387152  0.32966747  0.00395743  1
  In  In87  1  0.83316382  0.16908830  0.49800976  1
  In  In88  1  0.00505078  0.00149638  0.75467354  1
  In  In89  1  0.66437716  0.66573061  0.50185549  1
  In  In90  1  0.49816649  0.50325477  -0.00162804  1
  In  In91  1  0.34031441  0.67034559  -0.00532071  1
  In  In92  1  0.33408121  0.33433109  0.49652438  1
  In  In93  1  0.16736095  0.17195845  0.75145990  1
  In  In94  1  0.00086578  0.66606916  -0.00086228  1
  In  In95  1  0.16908848  0.17011083  0.50079327  1
  In  In96  1  0.00029645  -0.00136129  0.24556285  1
  In  In97  1  0.16933024  0.83760005  -0.00106266  1
  In  In98  1  0.83246666  0.49706318  0.50298708  1
  In  In99  1  0.83399266  0.83063537  0.49905158  1
  In  In100  1  0.82995581  0.83567206  -0.00237437  1
  In  In101  1  0.33222153  0.00033229  0.75004108  1
  In  In102  1  0.17114112  0.83647891  0.24661491  1
  In  In103  1  0.00102699  0.66791611  0.74690067  1
  In  In104  1  0.66059788  0.66531854  0.24548602  1
  In  In105  1  0.66571041  0.33280713  0.24917252  1
  In  In106  1  0.00039333  0.66717182  0.24972032  1
  In  In107  1  0.82995525  0.83088968  0.24915640  1
  Ir  Ir108  1  0.33652147  0.66535423  0.24972393  1
  Ir  Ir109  1  0.49501453  0.49765688  0.25276817  1
  Ir  Ir110  1  0.50090010  0.83765146  0.00015271  1
  Ir  Ir111  1  0.00599636  -0.00215770  0.50109532  1
  Ir  Ir112  1  0.33474069  0.00142556  0.00271037  1
  Ir  Ir113  1  0.65990962  -0.00107353  0.24431166  1
  Ir  Ir114  1  0.49807593  0.49846532  0.50295582  1
  Ir  Ir115  1  0.17169983  0.83205226  0.50135712  1
  Ir  Ir116  1  0.33755968  0.33341849  0.25085836  1
  Ir  Ir117  1  0.33312192  0.33564864  0.74699711  1
  Ir  Ir118  1  0.82994993  0.49523408  -0.00110647  1
  Ir  Ir119  1  0.66350734  0.33026690  0.00031480  1
  Ir  Ir120  1  0.66076431  0.33785584  0.75348670  1
  Ir  Ir121  1  0.34041046  0.66872472  0.74718228  1
  Ir  Ir122  1  0.33032119  -0.00493172  0.49858164  1
  Ir  Ir123  1  0.83501189  0.15955477  0.00102050  1
  Ir  Ir124  1  0.16105269  0.16533387  0.00230436  1
  Ir  Ir125  1  0.49656621  0.16826744  0.25055996  1
  Ir  Ir126  1  0.49739478  0.82825707  0.75034336  1
  Ir  Ir127  1  0.16721759  0.50369881  0.49955392  1
  Ir  Ir128  1  0.66537190  0.00048043  0.00556027  1
  Ir  Ir129  1  0.00075902  0.00632266  -0.00207820  1
  Ir  Ir130  1  0.49815709  0.50138241  0.74748520  1
  Ir  Ir131  1  0.32979034  0.66668850  0.50482901  1
  Ir  Ir132  1  0.66188590  0.66180990  0.75113647  1
  Ir  Ir133  1  0.00029431  0.33871472  0.75212076  1
  Ir  Ir134  1  0.00156924  0.66470113  0.49863566  1
  Ir  Ir135  1  0.83409393  0.49998950  0.24565725  1
  Ir  Ir136  1  0.00488057  0.33612863  0.24397432  1
  Ir  Ir137  1  0.49227701  0.83009822  0.49771062  1
  Ir  Ir138  1  0.49820378  0.83477020  0.24951291  1
  Ir  Ir139  1  0.83277371  0.49674738  0.75307338  1
  Ir  Ir140  1  0.17513415  0.49558089  0.25076609  1
  Ir  Ir141  1  0.00083004  0.32779757  0.00163226  1
  Ir  Ir142  1  0.33731993  -0.00110141  0.25149801  1
  Ir  Ir143  1  0.50133677  0.16651702  0.00727722  1
  O  O144  1  0.30441262  0.32908656  0.13359149  1
  O  O145  1  0.30086968  0.32328802  0.62780482  1
  O  O146  1  0.32224610  0.65738226  0.12852141  1
  O  O147  1  0.30023414  0.66561441  0.62726106  1
  O  O148  1  0.30476438  0.99185936  0.12776288  1
  O  O149  1  0.30053569  0.98259182  0.61829446  1
  O  O150  1  0.63369416  0.33380855  0.12145037  1
  O  O151  1  0.63228065  0.33616958  0.63492847  1
  O  O152  1  0.62165071  0.65744285  0.12264355  1
  O  O153  1  0.63260163  0.65047290  0.63231176  1
  O  O154  1  0.62887878  0.98864106  0.12522692  1
  O  O155  1  0.64331801  0.99696028  0.62522962  1
  O  O156  1  0.97928185  0.32104420  0.12278600  1
  O  O157  1  0.98330589  0.34472848  0.63373541  1
  O  O158  1  0.98267343  0.66759215  0.12478356  1
  O  O159  1  0.98423931  0.65604397  0.61728719  1
  O  O160  1  0.96626571  0.99861471  0.11351121  1
  O  O161  1  0.98391958  0.98942789  0.62116689  1
  O  O162  1  0.18544882  0.15609103  0.12124447  1
  O  O163  1  0.20452863  0.15601689  0.62551635  1
  O  O164  1  0.20390191  0.48914070  0.13195516  1
  O  O165  1  0.18440560  0.49524564  0.61905213  1
  O  O166  1  0.20603834  0.83383573  0.12217826  1
  O  O167  1  0.20166318  0.82280738  0.61968218  1
  O  O168  1  0.51970265  0.15549550  0.12930128  1
  O  O169  1  0.51657095  0.17000610  0.62566268  1
  O  O170  1  0.51239684  0.49137212  0.13253128  1
  O  O171  1  0.53003736  0.48973909  0.62487690  1
  O  O172  1  0.53157018  0.82768958  0.12515739  1
  O  O173  1  0.51845476  0.82013508  0.62453153  1
  O  O174  1  0.86501459  0.14968065  0.11927514  1
  O  O175  1  0.85055568  0.16694893  0.62622593  1
  O  O176  1  0.85121278  0.49807375  0.12137059  1
  O  O177  1  0.86196225  0.49751462  0.63439019  1
  O  O178  1  0.84887908  0.84119012  0.12220051  1
  O  O179  1  0.87127764  0.82851354  0.62393692  1
  O  O180  1  0.13251888  0.16833662  0.37589078  1
  O  O181  1  0.13447235  0.17231283  0.88307103  1
  O  O182  1  0.15026429  0.49960186  0.37651803  1
  O  O183  1  0.15857706  0.49879632  0.87319981  1
  O  O184  1  0.15562911  0.83442596  0.38108384  1
  O  O185  1  0.13329701  0.85356139  0.87322182  1
  O  O186  1  0.46253052  0.18111451  0.36784981  1
  O  O187  1  0.48084279  0.16891834  0.88757491  1
  O  O188  1  0.47602868  0.49888704  0.37939549  1
  O  O189  1  0.46093370  0.51052110  0.86644506  1
  O  O190  1  0.46223709  0.83252116  0.37321068  1
  O  O191  1  0.46816314  0.83678376  0.87606782  1
  O  O192  1  0.80128983  0.16853261  0.37051691  1
  O  O193  1  0.81594800  0.16644934  0.88401635  1
  O  O194  1  0.82144903  0.50992782  0.36803759  1
  O  O195  1  0.80216550  0.49493997  0.87628920  1
  O  O196  1  0.79623011  0.83367687  0.37268140  1
  O  O197  1  0.79620145  0.85179442  0.87669256  1
  O  O198  1  0.02445247  0.00836026  0.38012338  1
  O  O199  1  0.03993659  0.02104001  0.88412376  1
  O  O200  1  0.02247449  0.34153309  0.36266412  1
  O  O201  1  0.02085403  0.32601139  0.87894974  1
  O  O202  1  0.01982303  0.66118066  0.38057054  1
  O  O203  1  0.02210404  0.67343153  0.87209678  1
  O  O204  1  0.35683959  0.01154770  0.37512156  1
  O  O205  1  0.35429789  0.00410272  0.88276004  1
  O  O206  1  0.37091864  0.33826243  0.36841043  1
  O  O207  1  0.35174789  0.34681339  0.87001197  1
  O  O208  1  0.35226713  0.67588018  0.37823661  1
  O  O209  1  0.37541565  0.68197770  0.86430073  1
  O  O210  1  0.67985593  0.00511603  0.36173512  1
  O  O211  1  0.69465096  0.00198677  0.88841544  1
  O  O212  1  0.67670272  0.34578766  0.37371070  1
  O  O213  1  0.68456943  0.34476662  0.87602642  1
  O  O214  1  0.69045348  0.67684522  0.37199261  1
  O  O215  1  0.67943620  0.67761659  0.87008666  1
  O  O216  1  0.06407108  0.10127652  0.02801459  1
  O  O217  1  0.07976285  0.08453070  0.52425516  1
  O  O218  1  0.07756393  0.41241695  0.02123629  1
  O  O219  1  0.07461141  0.43717763  0.52270762  1
  O  O220  1  0.07610306  0.76511158  0.00798972  1
  O  O221  1  0.07287215  0.76403676  0.52536991  1
  O  O222  1  0.41101287  0.09110931  0.02837144  1
  O  O223  1  0.39264848  0.09337615  0.51845654  1
  O  O224  1  0.40526000  0.43016694  0.02413246  1
  O  O225  1  0.40968019  0.42954715  0.52299615  1
  O  O226  1  0.40795333  0.77443774  0.02751091  1
  O  O227  1  0.39677654  0.76145173  0.52545072  1
  O  O228  1  0.74516762  0.08606962  0.03177648  1
  O  O229  1  0.73644082  0.09354662  0.50063210  1
  O  O230  1  0.73421347  0.42310851  0.01237362  1
  O  O231  1  0.73001338  0.43391634  0.53042106  1
  O  O232  1  0.72601668  0.76555316  0.01581362  1
  O  O233  1  0.73747382  0.75764518  0.51786369  1
  O  O234  1  0.09364991  0.25754106  0.03215564  1
  O  O235  1  0.10292372  0.27142315  0.52837173  1
  O  O236  1  0.09475926  0.58859650  0.01626814  1
  O  O237  1  0.09981180  0.59946697  0.52269897  1
  O  O238  1  0.09786905  0.94571008  0.02327975  1
  O  O239  1  0.10227099  0.92521418  0.52920768  1
  O  O240  1  0.43484973  0.26127501  0.02760283  1
  O  O241  1  0.42883510  0.26544233  0.52870204  1
  O  O242  1  0.44359039  0.61048760  0.01921506  1
  O  O243  1  0.42971697  0.60028578  0.52535312  1
  O  O244  1  0.43073882  0.93295483  0.03012993  1
  O  O245  1  0.42081844  0.92107736  0.52107847  1
  O  O246  1  0.76057666  0.25202490  0.02007656  1
  O  O247  1  0.75898618  0.26321627  0.51715311  1
  O  O248  1  0.75609082  0.58258731  0.01154356  1
  O  O249  1  0.75629811  0.58897532  0.51520794  1
  O  O250  1  0.75429316  0.93402206  0.03068874  1
  O  O251  1  0.75779124  0.92360339  0.51147537  1
  O  O252  1  0.24860454  0.07377516  0.26692106  1
  O  O253  1  0.23033175  0.06484049  0.77278410  1
  O  O254  1  0.24405937  0.40094385  0.26843298  1
  O  O255  1  0.24856284  0.41140169  0.76064256  1
  O  O256  1  0.25147068  0.73998593  0.26709420  1
  O  O257  1  0.25172409  0.73860489  0.77036683  1
  O  O258  1  0.56990999  0.07627262  0.26953854  1
  O  O259  1  0.57183027  0.07324436  0.77002012  1
  O  O260  1  0.55579827  0.39941407  0.26323127  1
  O  O261  1  0.57222135  0.41420250  0.77689377  1
  O  O262  1  0.56572800  0.74603559  0.27207746  1
  O  O263  1  0.56571932  0.73130187  0.77074188  1
  O  O264  1  0.91383654  0.08135068  0.27055797  1
  O  O265  1  0.91307623  0.07709701  0.78339783  1
  O  O266  1  0.90987106  0.40604459  0.25952959  1
  O  O267  1  0.90451035  0.40600029  0.77518003  1
  O  O268  1  0.89659508  0.73012096  0.27615587  1
  O  O269  1  0.91130006  0.74442794  0.77498916  1
  O  O270  1  0.27198386  0.23880924  0.27659125  1
  O  O271  1  0.26567529  0.24518123  0.76876413  1
  O  O272  1  0.27227504  0.56612774  0.26047230  1
  O  O273  1  0.27776957  0.57556682  0.77536450  1
  O  O274  1  0.27744578  0.90211773  0.27149727  1
  O  O275  1  0.26831603  0.90004334  0.77612662  1
  O  O276  1  0.58694868  0.23486067  0.27684387  1
  O  O277  1  0.58975518  0.25094308  0.76973212  1
  O  O278  1  0.58519840  0.56647629  0.26849379  1
  O  O279  1  0.59267753  0.56784738  0.77784572  1
  O  O280  1  0.59584374  0.89916055  0.27000224  1
  O  O281  1  0.59130263  0.89219574  0.77629892  1
  O  O282  1  0.94078215  0.24043787  0.26224611  1
  O  O283  1  0.93539082  0.24330516  0.77155787  1
  O  O284  1  0.92036049  0.57174576  0.25991374  1
  O  O285  1  0.92485470  0.56572599  0.76307251  1
  O  O286  1  0.92383395  0.90818408  0.26482360  1
  O  O287  1  0.93408517  0.90687689  0.78241679  1
  O  O288  1  0.27209873  0.23115377  0.47354098  1
  O  O289  1  0.25284578  0.23476989  0.98732163  1
  O  O290  1  0.26036838  0.57521471  0.48421884  1
  O  O291  1  0.27910872  0.56600313  0.98391317  1
  O  O292  1  0.27094438  0.89373221  0.47846159  1
  O  O293  1  0.26879263  0.91106067  0.97488131  1
  O  O294  1  0.59120612  0.23993137  0.46536544  1
  O  O295  1  0.59268935  0.23876071  0.98591863  1
  O  O296  1  0.58665250  0.56814540  0.49047559  1
  O  O297  1  0.59318147  0.56956720  0.96192833  1
  O  O298  1  0.58781920  0.89278213  0.47271730  1
  O  O299  1  0.60145035  0.90243732  0.97905580  1
  O  O300  1  0.93770457  0.23256475  0.46965679  1
  O  O301  1  0.93287543  0.22691945  0.98317216  1
  O  O302  1  0.93341107  0.57316790  0.49048591  1
  O  O303  1  0.91578754  0.56846428  0.98385122  1
  O  O304  1  0.93787728  0.90723882  0.48641810  1
  O  O305  1  0.93596836  0.91560199  0.96669183  1
  O  O306  1  0.24448848  0.06723328  0.48115689  1
  O  O307  1  0.23042089  0.06619266  0.98305305  1
  O  O308  1  0.23412649  0.40831700  0.49138636  1
  O  O309  1  0.24295676  0.40486374  0.98991126  1
  O  O310  1  0.23741850  0.73627021  0.48120000  1
  O  O311  1  0.25368333  0.74944553  0.96804031  1
  O  O312  1  0.57290005  0.07591264  0.47283194  1
  O  O313  1  0.57088151  0.06993413  0.99304290  1
  O  O314  1  0.55653783  0.40079819  0.48717691  1
  O  O315  1  0.57676830  0.40702759  0.98542905  1
  O  O316  1  0.56310362  0.73934055  0.48714804  1
  O  O317  1  0.56251590  0.74398346  0.97080265  1
  O  O318  1  0.92031115  0.07225394  0.48098600  1
  O  O319  1  0.90272311  0.06766164  0.97075696  1
  O  O320  1  0.90769766  0.40619459  0.48705379  1
  O  O321  1  0.91044930  0.40301700  0.98411597  1
  O  O322  1  0.90694232  0.72801609  0.47331160  1
  O  O323  1  0.90983081  0.74837034  0.97362538  1
  O  O324  1  0.09670107  0.26819892  0.22122052  1
  O  O325  1  0.09594898  0.27516637  0.72845860  1
  O  O326  1  0.10154326  0.58140403  0.23503959  1
  O  O327  1  0.10114050  0.60153479  0.72021548  1
  O  O328  1  0.10354502  0.93566575  0.22319007  1
  O  O329  1  0.10372032  0.93511763  0.72118779  1
  O  O330  1  0.43452460  0.26849758  0.22542415  1
  O  O331  1  0.42135413  0.26510415  0.72582833  1
  O  O332  1  0.43031782  0.59501558  0.22554267  1
  O  O333  1  0.43735514  0.60173084  0.72251854  1
  O  O334  1  0.43008286  0.92818705  0.22093344  1
  O  O335  1  0.42660395  0.91723091  0.72958913  1
  O  O336  1  0.75711452  0.25777970  0.22830047  1
  O  O337  1  0.74832965  0.26526776  0.74175318  1
  O  O338  1  0.76218788  0.58983587  0.23728086  1
  O  O339  1  0.75267845  0.58612215  0.72683810  1
  O  O340  1  0.74740775  0.92949589  0.21849258  1
  O  O341  1  0.76205028  0.92650541  0.73656481  1
  O  O342  1  0.07282798  0.09708004  0.22170789  1
  O  O343  1  0.07481981  0.09836709  0.72893752  1
  O  O344  1  0.08595994  0.42245887  0.22036141  1
  O  O345  1  0.06899369  0.43194540  0.72854943  1
  O  O346  1  0.08043633  0.75843086  0.23768298  1
  O  O347  1  0.07542627  0.76507805  0.71521658  1
  O  O348  1  0.40808087  0.09061910  0.22992637  1
  O  O349  1  0.39596838  0.09951722  0.72645408  1
  O  O350  1  0.40155139  0.42852349  0.22159722  1
  O  O351  1  0.41233466  0.42280521  0.72091566  1
  O  O352  1  0.40278903  0.76564608  0.22415402  1
  O  O353  1  0.40487458  0.76063641  0.71764027  1
  O  O354  1  0.73726483  0.08162071  0.22475430  1
  O  O355  1  0.74723171  0.08696296  0.74782294  1
  O  O356  1  0.74602731  0.42859659  0.23624587  1
  O  O357  1  0.73014865  0.43325484  0.73528643  1
  O  O358  1  0.72683969  0.76475133  0.22088087  1
  O  O359  1  0.73216061  0.75133859  0.73631376  1
