# generated using pymatgen
data_BaLaInIrO6
_symmetry_space_group_name_H-M   'P 1'
_cell_length_a   17.54397652
_cell_length_b   17.57653837
_cell_length_c   16.51348460
_cell_angle_alpha   90.00256350
_cell_angle_beta   90.00651766
_cell_angle_gamma   90.04258883
_symmetry_Int_Tables_number   1
_chemical_formula_structural   BaLaInIrO6
_chemical_formula_sum   'Ba36 La36 In36 Ir36 O216'
_cell_volume   5092.13591020
_cell_formula_units_Z   36
loop_
 _symmetry_equiv_pos_site_id
 _symmetry_equiv_pos_as_xyz
  1  'x, y, z'
loop_
 _atom_site_type_symbol
 _atom_site_label
 _atom_site_symmetry_multiplicity
 _atom_site_fract_x
 _atom_site_fract_y
 _atom_site_fract_z
 _atom_site_occupancy
  Ba  Ba0  1  1.00258719  0.17943409  0.62808248  1
  Ba  Ba1  1  0.33580758  0.82451820  0.87968090  1
  Ba  Ba2  1  0.49909760  0.00728092  0.11771521  1
  Ba  Ba3  1  0.16828588  0.32659795  0.87523293  1
  Ba  Ba4  1  0.49962636  0.99054188  0.37274246  1
  Ba  Ba5  1  0.99591551  0.50596677  0.12251490  1
  Ba  Ba6  1  0.66374336  0.82646526  0.87283585  1
  Ba  Ba7  1  0.16724804  0.66339252  0.37247741  1
  Ba  Ba8  1  0.99362387  0.83817095  0.12228722  1
  Ba  Ba9  1  0.33056732  0.50738194  0.63243850  1
  Ba  Ba10  1  1.00406479  0.84172050  0.62226140  1
  Ba  Ba11  1  0.49713864  0.33933979  0.12568526  1
  Ba  Ba12  1  0.33466332  0.17292464  0.12365413  1
  Ba  Ba13  1  0.50191492  0.01024382  0.62234901  1
  Ba  Ba14  1  0.82940495  0.67396933  0.12168222  1
  Ba  Ba15  1  0.16212647  0.00904299  0.12026971  1
  Ba  Ba16  1  0.50092447  0.32131534  0.86913961  1
  Ba  Ba17  1  0.83378648  0.01325359  0.63046576  1
  Ba  Ba18  1  0.16523207  0.32503408  0.37485006  1
  Ba  Ba19  1  0.83498895  0.32800073  0.37487825  1
  Ba  Ba20  1  0.66811538  0.49169719  0.37651597  1
  Ba  Ba21  1  0.33002366  0.15748591  0.37055176  1
  Ba  Ba22  1  0.83896354  0.32491790  0.87359881  1
  Ba  Ba23  1  0.16785993  0.67674296  0.62346307  1
  Ba  Ba24  1  0.33440523  0.15806516  0.87297947  1
  Ba  Ba25  1  0.83118154  0.34351707  0.13073922  1
  Ba  Ba26  1  0.00066052  0.82231229  0.37081930  1
  Ba  Ba27  1  0.67389405  0.17618851  0.62518162  1
  Ba  Ba28  1  0.99956519  0.17738686  0.12990242  1
  Ba  Ba29  1  -0.00057648  0.15923890  0.37493710  1
  Ba  Ba30  1  0.16699386  0.99366334  0.37125701  1
  Ba  Ba31  1  -0.00467535  0.82060298  0.87346894  1
  Ba  Ba32  1  0.66975342  0.17463707  0.12410169  1
  Ba  Ba33  1  0.50213592  0.65631322  0.38086796  1
  Ba  Ba34  1  0.33512751  0.83981067  0.62335538  1
  Ba  Ba35  1  0.83743709  0.65607219  0.37350889  1
  La  La36  1  0.33051948  0.17538536  0.62214102  1
  La  La37  1  0.49204664  0.68238386  0.63427123  1
  La  La38  1  0.33611281  0.84555999  0.12792130  1
  La  La39  1  0.50395589  0.98995763  0.86678581  1
  La  La40  1  0.32773892  0.48484286  0.87922490  1
  La  La41  1  0.15969227  0.34376040  0.12894854  1
  La  La42  1  0.16713947  0.00661015  0.61925350  1
  La  La43  1  0.15928569  0.35421567  0.62704100  1
  La  La44  1  0.83693155  0.98582431  0.87500336  1
  La  La45  1  0.49746112  0.34528883  0.62186848  1
  La  La46  1  -0.00311963  0.48907319  0.87074794  1
  La  La47  1  0.66255733  0.15370875  0.37656732  1
  La  La48  1  0.82497195  0.01372880  0.12780167  1
  La  La49  1  1.00832240  0.52177244  0.62297578  1
  La  La50  1  0.50168037  0.64926263  0.87334667  1
  La  La51  1  0.66569044  0.81569459  0.37563711  1
  La  La52  1  0.67013671  0.51101381  0.62652054  1
  La  La53  1  0.83984759  0.65236672  0.87250813  1
  La  La54  1  0.15680834  0.67778353  0.12302028  1
  La  La55  1  0.67584354  0.84828142  0.12359567  1
  La  La56  1  0.33422660  0.50930700  0.12713655  1
  La  La57  1  -0.00280978  0.15011963  0.87708529  1
  La  La58  1  0.67381574  0.51088022  0.13014493  1
  La  La59  1  0.83243436  0.68804037  0.62419501  1
  La  La60  1  0.49935950  0.67491506  0.12671452  1
  La  La61  1  0.16967059  0.65481087  0.87100475  1
  La  La62  1  0.33073891  0.48787080  0.37601370  1
  La  La63  1  0.66280275  0.48607001  0.88004047  1
  La  La64  1  0.84409180  0.98794377  0.38129791  1
  La  La65  1  0.67146542  0.85343035  0.62375741  1
  La  La66  1  -0.00814354  0.49276494  0.37473476  1
  La  La67  1  0.16821447  0.98632093  0.87305346  1
  La  La68  1  0.50407589  0.31615880  0.37551644  1
  La  La69  1  0.32503774  0.82012268  0.37254853  1
  La  La70  1  0.66136661  0.14809581  0.86954436  1
  La  La71  1  0.83340597  0.34859037  0.62462093  1
  In  In72  1  0.16451962  0.50316553  0.49391952  1
  In  In73  1  0.50174221  0.16436318  0.24972519  1
  In  In74  1  0.33272391  0.00008662  -0.00376199  1
  In  In75  1  0.50183290  0.16733925  -0.00354026  1
  In  In76  1  0.33196751  0.33172667  0.74873405  1
  In  In77  1  0.83239242  0.16835749  -0.00263939  1
  In  In78  1  0.00024029  0.00089820  0.75001883  1
  In  In79  1  0.49794091  0.49724177  0.00367890  1
  In  In80  1  0.66874088  -0.00366002  0.25546864  1
  In  In81  1  0.16626772  0.50296027  0.00363724  1
  In  In82  1  0.50108405  0.82901186  0.25021014  1
  In  In83  1  0.50146391  0.49896112  0.75154872  1
  In  In84  1  -0.00368910  -0.00057866  0.24614790  1
  In  In85  1  0.33851335  0.66202145  0.50077452  1
  In  In86  1  0.83056561  0.83002146  0.25095559  1
  In  In87  1  0.33547832  -0.00139010  0.49893913  1
  In  In88  1  0.66846410  0.33108719  0.75095349  1
  In  In89  1  0.66577745  0.66728268  -0.00432582  1
  In  In90  1  0.83583792  0.17101634  0.50184811  1
  In  In91  1  0.33439373  0.33553419  0.24984355  1
  In  In92  1  0.66727615  0.33550812  0.50301037  1
  In  In93  1  0.66549641  0.33434149  0.25214698  1
  In  In94  1  0.33310850  0.33338391  0.50064985  1
  In  In95  1  0.50095155  0.82902840  0.00119122  1
  In  In96  1  0.16720157  0.16632590  0.50201874  1
  In  In97  1  0.16767180  0.83266297  0.49656094  1
  In  In98  1  0.83080279  0.49915714  -0.00292231  1
  In  In99  1  0.66819677  0.66769330  0.75054626  1
  In  In100  1  0.16647626  0.83322937  0.24380246  1
  In  In101  1  0.16840492  0.83316518  0.74923355  1
  In  In102  1  0.00163705  0.33236034  -0.00117026  1
  In  In103  1  0.66655869  0.66435076  0.50388113  1
  In  In104  1  0.16518937  0.83088145  -0.00297725  1
  In  In105  1  0.16554454  0.16618222  0.75355095  1
  In  In106  1  0.50183891  0.83355771  0.49852575  1
  In  In107  1  0.16596470  0.16646505  0.24867249  1
  Ir  Ir108  1  0.49790724  0.50279848  0.25161637  1
  Ir  Ir109  1  0.83649433  0.50340246  0.74275637  1
  Ir  Ir110  1  0.83866857  0.50269567  0.50652628  1
  Ir  Ir111  1  0.33268942  0.66216717  0.24242995  1
  Ir  Ir112  1  0.16247883  0.50531945  0.75209853  1
  Ir  Ir113  1  0.66659230  0.33371597  -0.00094328  1
  Ir  Ir114  1  0.50388788  0.16690094  0.50493029  1
  Ir  Ir115  1  0.83045414  0.83339249  0.75032986  1
  Ir  Ir116  1  0.50158512  0.83391502  0.75108366  1
  Ir  Ir117  1  0.83068595  0.83533986  -0.00287145  1
  Ir  Ir118  1  0.16673696  0.50208920  0.25073740  1
  Ir  Ir119  1  -0.00555783  0.66638037  0.49923126  1
  Ir  Ir120  1  0.33657838  0.66659410  0.75905445  1
  Ir  Ir121  1  -0.00436968  0.00074516  -0.00241757  1
  Ir  Ir122  1  0.00016548  0.66120791  0.24569197  1
  Ir  Ir123  1  -0.00049840  0.33975808  0.25198822  1
  Ir  Ir124  1  -0.00337924  0.66525469  0.75186172  1
  Ir  Ir125  1  0.66228748  0.66154946  0.24981370  1
  Ir  Ir126  1  -0.00029984  0.66615117  -0.00315018  1
  Ir  Ir127  1  0.66948595  -0.00015533  0.74970747  1
  Ir  Ir128  1  -0.00136525  0.34022227  0.50433645  1
  Ir  Ir129  1  0.32741549  0.33413647  0.00119911  1
  Ir  Ir130  1  0.16300527  0.16884496  -0.00108607  1
  Ir  Ir131  1  0.67004557  -0.00233216  -0.00412697  1
  Ir  Ir132  1  0.83287512  0.50299219  0.25272315  1
  Ir  Ir133  1  0.33624588  -0.00119996  0.75084631  1
  Ir  Ir134  1  -0.00121172  0.33983669  0.74600521  1
  Ir  Ir135  1  0.33157567  0.66189774  0.00310710  1
  Ir  Ir136  1  0.83379016  0.17012124  0.75436072  1
  Ir  Ir137  1  0.83114732  0.16737972  0.25232751  1
  Ir  Ir138  1  0.50138555  0.16214996  0.74343442  1
  Ir  Ir139  1  0.83127094  0.83569885  0.50515250  1
  Ir  Ir140  1  0.33552121  -0.00431235  0.24651740  1
  Ir  Ir141  1  -0.00156479  -0.00017500  0.50095720  1
  Ir  Ir142  1  0.67324939  0.00100493  0.50029921  1
  Ir  Ir143  1  0.50108885  0.49681719  0.50166691  1
  O  O144  1  0.30009885  0.33646437  0.12081159  1
  O  O145  1  0.29701320  0.32909864  0.62561898  1
  O  O146  1  0.29525667  0.64655545  0.12179346  1
  O  O147  1  0.31778673  0.66301121  0.63914095  1
  O  O148  1  0.31400043  0.98815243  0.12800450  1
  O  O149  1  0.30481679  0.99781112  0.63409907  1
  O  O150  1  0.64676440  0.33244010  0.11999140  1
  O  O151  1  0.63266640  0.33623483  0.62659702  1
  O  O152  1  0.63679379  0.65012768  0.12730905  1
  O  O153  1  0.63108818  0.65024704  0.62797758  1
  O  O154  1  0.65102959  0.99178797  0.11749082  1
  O  O155  1  0.64856361  0.99031915  0.62472547  1
  O  O156  1  0.98103127  0.33673306  0.13203644  1
  O  O157  1  0.96814502  0.33384012  0.62498822  1
  O  O158  1  0.97603140  0.66208545  0.12201739  1
  O  O159  1  0.96588546  0.65936365  0.62584055  1
  O  O160  1  0.95969994  0.99919878  0.11578754  1
  O  O161  1  0.98268739  0.99915276  0.62083067  1
  O  O162  1  0.18360287  0.16426480  0.11664827  1
  O  O163  1  0.19203009  0.14629946  0.62954803  1
  O  O164  1  0.19823956  0.49224207  0.13196089  1
  O  O165  1  0.17875315  0.49805834  0.62992874  1
  O  O166  1  0.19950963  0.81719381  0.11940735  1
  O  O167  1  0.18183100  0.83533778  0.62411182  1
  O  O168  1  0.52034442  0.16814902  0.12205440  1
  O  O169  1  0.52658978  0.16528047  0.62456103  1
  O  O170  1  0.53165078  0.49941461  0.13233738  1
  O  O171  1  0.53403565  0.48619758  0.62087860  1
  O  O172  1  0.53897723  0.81715533  0.12516239  1
  O  O173  1  0.53332424  0.82130386  0.63196807  1
  O  O174  1  0.84930110  0.15497159  0.12854951  1
  O  O175  1  0.85360204  0.16597607  0.63493936  1
  O  O176  1  0.84455150  0.50275549  0.13139416  1
  O  O177  1  0.87345922  0.49236048  0.62454224  1
  O  O178  1  0.84494829  0.82993346  0.11704452  1
  O  O179  1  0.85751349  0.82530574  0.62866337  1
  O  O180  1  0.15013104  0.16864764  0.37663119  1
  O  O181  1  0.13241954  0.17644585  0.88143490  1
  O  O182  1  0.12974331  0.50690050  0.36712586  1
  O  O183  1  0.13477385  0.51345867  0.87286223  1
  O  O184  1  0.15318206  0.82780074  0.36956472  1
  O  O185  1  0.14482303  0.84277558  0.87278171  1
  O  O186  1  0.48149791  0.17188093  0.38708172  1
  O  O187  1  0.48590970  0.15883550  0.86311779  1
  O  O188  1  0.46563419  0.50597702  0.37821071  1
  O  O189  1  0.46131137  0.50933070  0.87832392  1
  O  O190  1  0.46278629  0.82858787  0.37233749  1
  O  O191  1  0.48572959  0.85064386  0.87143339  1
  O  O192  1  0.80305574  0.17156246  0.37271408  1
  O  O193  1  0.79894169  0.17261641  0.87050655  1
  O  O194  1  0.81633531  0.50358277  0.38146996  1
  O  O195  1  0.80110230  0.51155635  0.86247211  1
  O  O196  1  0.80045599  0.84180152  0.38352005  1
  O  O197  1  0.81071745  0.84652389  0.87362154  1
  O  O198  1  0.01175210  -0.00126470  0.38214192  1
  O  O199  1  0.02880005  0.00622115  0.88031234  1
  O  O200  1  0.01978869  0.35535423  0.38052665  1
  O  O201  1  0.01991921  0.35187163  0.86575239  1
  O  O202  1  0.01815470  0.65922327  0.37129004  1
  O  O203  1  0.03074693  0.66501079  0.87430333  1
  O  O204  1  0.35127707  -0.00015209  0.36495175  1
  O  O205  1  0.36941855  0.00140574  0.86757575  1
  O  O206  1  0.36696258  0.35020697  0.37701347  1
  O  O207  1  0.34960330  0.34522979  0.87885049  1
  O  O208  1  0.35538191  0.67612928  0.36150351  1
  O  O209  1  0.36747225  0.66817564  0.88366157  1
  O  O210  1  0.70556701  0.00711341  0.38217149  1
  O  O211  1  0.69913874  0.00513169  0.87244608  1
  O  O212  1  0.68514876  0.34035223  0.37850041  1
  O  O213  1  0.69075782  0.34652044  0.88013685  1
  O  O214  1  0.68687753  0.67168987  0.37149305  1
  O  O215  1  0.70697802  0.67538983  0.87185665  1
  O  O216  1  0.06303892  0.10025003  0.01262149  1
  O  O217  1  0.06899227  0.08816382  0.51982282  1
  O  O218  1  0.08115879  0.42203447  0.02012587  1
  O  O219  1  0.06566287  0.43190531  0.52750186  1
  O  O220  1  0.07187437  0.75280151  0.01974174  1
  O  O221  1  0.06625096  0.75446186  0.50975481  1
  O  O222  1  0.41071278  0.08917992  0.01042133  1
  O  O223  1  0.40651531  0.10383465  0.52490946  1
  O  O224  1  0.39415001  0.42894685  0.02291997  1
  O  O225  1  0.41193115  0.42902206  0.52533996  1
  O  O226  1  0.39670523  0.75197117  0.03154322  1
  O  O227  1  0.42101779  0.74647365  0.52819539  1
  O  O228  1  0.74188368  0.08491698  0.01300567  1
  O  O229  1  0.73874472  0.09355510  0.51379136  1
  O  O230  1  0.72768127  0.43187533  0.01825624  1
  O  O231  1  0.74389245  0.43726446  0.53242378  1
  O  O232  1  0.73357164  0.77086533  0.02192957  1
  O  O233  1  0.74084327  0.76530350  0.53032358  1
  O  O234  1  0.10199431  0.26439861  0.02476982  1
  O  O235  1  0.09498041  0.27546285  0.52671033  1
  O  O236  1  0.09636408  0.60258397  0.01912594  1
  O  O237  1  0.08496918  0.59548777  0.51872107  1
  O  O238  1  0.08167183  0.92784059  0.01555692  1
  O  O239  1  0.09312526  0.93306930  0.51866397  1
  O  O240  1  0.41729396  0.26361541  0.00949201  1
  O  O241  1  0.43982972  0.26206804  0.52485038  1
  O  O242  1  0.42419785  0.59624719  0.03283361  1
  O  O243  1  0.43902064  0.58964826  0.53043630  1
  O  O244  1  0.41648141  0.91094431  0.02216830  1
  O  O245  1  0.43111566  0.92769750  0.51695092  1
  O  O246  1  0.75862338  0.26666158  0.01582751  1
  O  O247  1  0.76886541  0.27042080  0.52846141  1
  O  O248  1  0.75502426  0.58926685  0.01514122  1
  O  O249  1  0.76934775  0.59455253  0.53080850  1
  O  O250  1  0.76612327  0.93147881  0.02262395  1
  O  O251  1  0.76277798  0.92860972  0.52680603  1
  O  O252  1  0.24736811  0.06798294  0.25763566  1
  O  O253  1  0.24015957  0.06118469  0.77601557  1
  O  O254  1  0.24105504  0.41890872  0.27676846  1
  O  O255  1  0.23910281  0.42017530  0.76878445  1
  O  O256  1  0.24809753  0.73511925  0.25840317  1
  O  O257  1  0.24077851  0.73115204  0.77708174  1
  O  O258  1  0.58416962  0.07750027  0.27487441  1
  O  O259  1  0.57443841  0.06716939  0.77278717  1
  O  O260  1  0.55840949  0.40712098  0.27501992  1
  O  O261  1  0.58467971  0.41394728  0.77797073  1
  O  O262  1  0.57251386  0.72801645  0.26586919  1
  O  O263  1  0.56207329  0.73537865  0.77380942  1
  O  O264  1  0.89654275  0.07491506  0.27255862  1
  O  O265  1  0.89943828  0.07591119  0.78166553  1
  O  O266  1  0.91152442  0.41814686  0.27595876  1
  O  O267  1  0.90708400  0.41396108  0.76977245  1
  O  O268  1  0.91124478  0.73589897  0.26125439  1
  O  O269  1  0.89527674  0.73129926  0.76938698  1
  O  O270  1  0.25516655  0.24675915  0.26054167  1
  O  O271  1  0.26099391  0.23700617  0.76309997  1
  O  O272  1  0.26477454  0.56857861  0.27366863  1
  O  O273  1  0.26170907  0.57438722  0.78552617  1
  O  O274  1  0.27201604  0.89822325  0.26163908  1
  O  O275  1  0.26876530  0.90932200  0.77218120  1
  O  O276  1  0.59463998  0.24003262  0.28281254  1
  O  O277  1  0.59753815  0.22782653  0.76956575  1
  O  O278  1  0.59489086  0.56616651  0.26670179  1
  O  O279  1  0.59780303  0.57142310  0.78238999  1
  O  O280  1  0.60189598  0.89535467  0.27761906  1
  O  O281  1  0.59816689  0.90556235  0.76274505  1
  O  O282  1  0.92573401  0.24767874  0.27105770  1
  O  O283  1  0.93236518  0.23667880  0.77473794  1
  O  O284  1  0.93004546  0.56939892  0.27129277  1
  O  O285  1  0.92904724  0.57139933  0.77607457  1
  O  O286  1  0.91410058  0.91323682  0.27361387  1
  O  O287  1  0.91800226  0.90958783  0.77019920  1
  O  O288  1  0.27143758  0.23035003  0.49511572  1
  O  O289  1  0.25828492  0.23666186  0.98068020  1
  O  O290  1  0.26724719  0.56772260  0.47731418  1
  O  O291  1  0.26775680  0.56905749  0.97485525  1
  O  O292  1  0.26871349  0.89907524  0.47358484  1
  O  O293  1  0.24953020  0.91572457  0.97581040  1
  O  O294  1  0.59720721  0.23249550  0.47792328  1
  O  O295  1  0.60368978  0.23757282  0.97162361  1
  O  O296  1  0.59468245  0.56275508  0.48898081  1
  O  O297  1  0.59085255  0.56985361  0.96732734  1
  O  O298  1  0.60945023  0.90585636  0.48139571  1
  O  O299  1  0.59622123  0.91134207  0.98530737  1
  O  O300  1  0.93248873  0.24855298  0.48512224  1
  O  O301  1  0.93306842  0.23485395  0.97662835  1
  O  O302  1  0.93428858  0.56621346  0.48400730  1
  O  O303  1  0.92895637  0.57746933  0.96733365  1
  O  O304  1  0.92241455  0.90804989  0.47798826  1
  O  O305  1  0.92280332  0.91158454  0.97132128  1
  O  O306  1  0.23492892  0.06276635  0.49514429  1
  O  O307  1  0.22788172  0.07499487  0.97251069  1
  O  O308  1  0.23968607  0.41045697  0.48115038  1
  O  O309  1  0.24404390  0.40950446  0.98175171  1
  O  O310  1  0.25054971  0.74131970  0.48288947  1
  O  O311  1  0.23637552  0.72398994  0.97562567  1
  O  O312  1  0.58064289  0.07422963  0.47589156  1
  O  O313  1  0.58060573  0.06739502  0.96665393  1
  O  O314  1  0.56002868  0.40025595  0.47873528  1
  O  O315  1  0.57503273  0.40228328  0.97996091  1
  O  O316  1  0.58602123  0.74906291  0.47496168  1
  O  O317  1  0.56056275  0.72702344  0.97622904  1
  O  O318  1  0.90465326  0.06915905  0.48141884  1
  O  O319  1  0.90612060  0.06983749  0.96870022  1
  O  O320  1  0.90476719  0.40922555  0.48486880  1
  O  O321  1  0.91419481  0.41689574  0.97898987  1
  O  O322  1  0.89744066  0.73734859  0.49020914  1
  O  O323  1  0.89834165  0.73440325  0.97362368  1
  O  O324  1  0.08990036  0.27059949  0.23059561  1
  O  O325  1  0.09478022  0.27679714  0.72375954  1
  O  O326  1  0.09640090  0.59205669  0.22038914  1
  O  O327  1  0.08876911  0.59553659  0.72825123  1
  O  O328  1  0.08588210  0.91992634  0.22726294  1
  O  O329  1  0.10365225  0.93900019  0.73471512  1
  O  O330  1  0.43095947  0.26324995  0.24653803  1
  O  O331  1  0.43224357  0.25320334  0.71890435  1
  O  O332  1  0.42814161  0.59528579  0.21994571  1
  O  O333  1  0.43361360  0.60272941  0.73725548  1
  O  O334  1  0.42345046  0.92142897  0.22451944  1
  O  O335  1  0.43510867  0.93234918  0.73391351  1
  O  O336  1  0.76132581  0.25492962  0.23436608  1
  O  O337  1  0.77190729  0.26769888  0.72853729  1
  O  O338  1  0.75305292  0.58982303  0.22865927  1
  O  O339  1  0.76904725  0.59412183  0.71559260  1
  O  O340  1  0.75876298  0.92460905  0.21869204  1
  O  O341  1  0.75997070  0.92530111  0.72848687  1
  O  O342  1  0.07224602  0.09144827  0.23538162  1
  O  O343  1  0.06296614  0.10436227  0.74929855  1
  O  O344  1  0.08005020  0.42646669  0.22377760  1
  O  O345  1  0.06557645  0.43665110  0.72287459  1
  O  O346  1  0.07647759  0.74519470  0.22370908  1
  O  O347  1  0.06767363  0.75307931  0.73457512  1
  O  O348  1  0.40774165  0.08421452  0.23294180  1
  O  O349  1  0.40232837  0.09663633  0.72241482  1
  O  O350  1  0.40159474  0.44239970  0.22958569  1
  O  O351  1  0.41699502  0.41591061  0.72712753  1
  O  O352  1  0.40342282  0.75080773  0.21142539  1
  O  O353  1  0.40935834  0.76034141  0.73289151  1
  O  O354  1  0.74695077  0.09264912  0.23378303  1
  O  O355  1  0.73485988  0.09918673  0.74082762  1
  O  O356  1  0.73811590  0.43419782  0.23110902  1
  O  O357  1  0.74766495  0.43246656  0.71657923  1
  O  O358  1  0.72631077  0.76054166  0.23309571  1
  O  O359  1  0.73912677  0.76555449  0.71833140  1
