# generated using pymatgen
data_BaLaInIrO6
_symmetry_space_group_name_H-M   'P 1'
_cell_length_a   17.50842497
_cell_length_b   17.53482947
_cell_length_c   16.47808153
_cell_angle_alpha   90.03481350
_cell_angle_beta   89.99674629
_cell_angle_gamma   89.99632344
_symmetry_Int_Tables_number   1
_chemical_formula_structural   BaLaInIrO6
_chemical_formula_sum   'Ba36 La36 In36 Ir36 O216'
_cell_volume   5058.88947853
_cell_formula_units_Z   36
loop_
 _symmetry_equiv_pos_site_id
 _symmetry_equiv_pos_as_xyz
  1  'x, y, z'
loop_
 _atom_site_type_symbol
 _atom_site_label
 _atom_site_symmetry_multiplicity
 _atom_site_fract_x
 _atom_site_fract_y
 _atom_site_fract_z
 _atom_site_occupancy
  Ba  Ba0  1  0.66987851  0.51547256  0.12511422  1
  Ba  Ba1  1  0.33790053  0.83893235  0.62184192  1
  Ba  Ba2  1  0.83361707  0.01179268  0.62371135  1
  Ba  Ba3  1  0.00072352  0.82702479  0.37695710  1
  Ba  Ba4  1  0.16581168  0.32175431  0.87381698  1
  Ba  Ba5  1  1.00242832  0.50595560  0.62510919  1
  Ba  Ba6  1  0.66625857  0.17246451  0.63073705  1
  Ba  Ba7  1  0.49895980  0.99058790  0.87474998  1
  Ba  Ba8  1  0.33694830  0.17421400  0.62547445  1
  Ba  Ba9  1  0.99976760  0.50742467  0.12228203  1
  Ba  Ba10  1  0.49879202  0.66181351  0.87525485  1
  Ba  Ba11  1  0.50002604  0.65109828  0.37823510  1
  Ba  Ba12  1  0.50177630  0.00660041  0.12254655  1
  Ba  Ba13  1  0.99872929  0.17399084  0.62278364  1
  Ba  Ba14  1  0.16424234  0.99156755  0.87588969  1
  Ba  Ba15  1  0.16920704  0.32737605  0.37723477  1
  Ba  Ba16  1  0.66464796  0.82702042  0.87038688  1
  Ba  Ba17  1  0.66546408  0.84451912  0.62384312  1
  Ba  Ba18  1  0.33179125  0.49083983  0.37659225  1
  Ba  Ba19  1  0.83118509  0.32814569  0.37162712  1
  Ba  Ba20  1  0.16517901  0.33908348  0.62556701  1
  Ba  Ba21  1  0.83814503  0.65899626  0.37476358  1
  Ba  Ba22  1  0.83310223  0.34951122  0.12678444  1
  Ba  Ba23  1  0.49792274  0.00456943  0.62795049  1
  Ba  Ba24  1  0.99839220  0.83979603  0.12637698  1
  Ba  Ba25  1  0.00269660  0.48917901  0.87668388  1
  Ba  Ba26  1  0.16718768  0.99266907  0.37525596  1
  Ba  Ba27  1  0.66390871  0.48979774  0.37520981  1
  Ba  Ba28  1  0.33773806  0.84216724  0.12071140  1
  Ba  Ba29  1  0.49525782  0.33767329  0.62998399  1
  Ba  Ba30  1  0.33460796  0.16017047  0.37593538  1
  Ba  Ba31  1  0.16806164  0.68162511  0.12526202  1
  Ba  Ba32  1  1.00126101  0.17542296  0.12603192  1
  Ba  Ba33  1  0.16760084  0.66022535  0.37259231  1
  Ba  Ba34  1  0.32991852  0.15348277  0.87356843  1
  Ba  Ba35  1  0.17134074  0.65896067  0.87763237  1
  La  La36  1  0.16826805  0.00730696  0.12457417  1
  La  La37  1  0.50123795  0.31607319  0.87549699  1
  La  La38  1  0.16597739  0.68295454  0.62598123  1
  La  La39  1  0.65861472  0.15412939  0.37804129  1
  La  La40  1  0.67468629  0.18330953  0.12772676  1
  La  La41  1  -0.00204444  0.15696548  0.37540314  1
  La  La42  1  -0.00791636  0.48556512  0.37171843  1
  La  La43  1  0.84013808  0.98576024  0.86662244  1
  La  La44  1  0.84080463  0.31684736  0.87888872  1
  La  La45  1  -0.00173250  0.82042353  0.87604106  1
  La  La46  1  0.81866882  0.01344281  0.12057799  1
  La  La47  1  0.32981108  0.82573064  0.87266127  1
  La  La48  1  0.34014055  0.51901895  0.13095587  1
  La  La49  1  -0.00088442  0.15429767  0.86975440  1
  La  La50  1  0.33086824  0.17944090  0.12275390  1
  La  La51  1  0.33395192  0.50796125  0.62496782  1
  La  La52  1  0.66890771  0.51474539  0.62436840  1
  La  La53  1  0.49516110  0.67702298  0.63007330  1
  La  La54  1  0.32572267  0.48067797  0.87681807  1
  La  La55  1  0.66998013  0.84555779  0.12052208  1
  La  La56  1  0.84165290  0.99043379  0.37973653  1
  La  La57  1  1.00778857  0.84615597  0.62676897  1
  La  La58  1  0.66377914  0.81516315  0.37117888  1
  La  La59  1  0.66216718  0.48461288  0.87534162  1
  La  La60  1  0.83908448  0.65636206  0.87328523  1
  La  La61  1  0.82737822  0.34371640  0.62387271  1
  La  La62  1  0.49535629  0.35166801  0.12786666  1
  La  La63  1  0.16215153  0.34912613  0.12584538  1
  La  La64  1  0.49598801  0.68339066  0.12640856  1
  La  La65  1  0.16433745  0.01860144  0.62490389  1
  La  La66  1  0.83482536  0.67834937  0.12441135  1
  La  La67  1  0.32465421  0.82227391  0.36662195  1
  La  La68  1  0.83026822  0.68709203  0.62487810  1
  La  La69  1  0.49961079  0.97989907  0.37757006  1
  La  La70  1  0.49960849  0.32521283  0.37971948  1
  La  La71  1  0.66116154  0.14795522  0.87729098  1
  In  In72  1  0.33374613  -0.00149074  0.49959467  1
  In  In73  1  -0.00321869  0.33128530  0.49970215  1
  In  In74  1  0.49781602  0.49769945  0.75297611  1
  In  In75  1  0.50175439  0.82964353  0.49766944  1
  In  In76  1  0.66445412  -0.00139204  0.25231733  1
  In  In77  1  0.16577263  0.50218677  0.50098811  1
  In  In78  1  0.49887008  0.16356221  0.75237444  1
  In  In79  1  0.00136525  0.33055861  0.00134670  1
  In  In80  1  0.50051255  0.16503835  0.00394861  1
  In  In81  1  0.82969575  0.83437000  0.25039168  1
  In  In82  1  0.83055900  0.49994592  0.75141600  1
  In  In83  1  0.33607192  0.00275464  0.24623054  1
  In  In84  1  0.50124121  0.16474958  0.50060642  1
  In  In85  1  -0.00573395  -0.00104134  0.00263648  1
  In  In86  1  0.00141671  0.66718150  0.50150726  1
  In  In87  1  0.00205185  0.00097296  0.50166806  1
  In  In88  1  0.16665875  0.16660907  0.00071338  1
  In  In89  1  0.66506560  0.33237074  -0.00251918  1
  In  In90  1  0.33304648  0.33545110  0.25007893  1
  In  In91  1  0.82899522  0.50241394  -0.00384129  1
  In  In92  1  0.33411281  0.66347760  0.50078779  1
  In  In93  1  0.50191546  0.16639222  0.24733741  1
  In  In94  1  0.83112685  0.16733570  0.74957188  1
  In  In95  1  0.83227269  0.16865617  0.25121862  1
  In  In96  1  0.83457313  0.50088869  0.50096887  1
  In  In97  1  0.00391938  0.66501114  -0.00154492  1
  In  In98  1  0.66740137  0.66505424  0.75257019  1
  In  In99  1  0.66635317  0.66410994  0.49944883  1
  In  In100  1  0.33510258  0.66766967  -0.00142277  1
  In  In101  1  0.49853965  0.83315202  0.75278877  1
  In  In102  1  0.66461119  0.33392524  0.25136567  1
  In  In103  1  0.00101442  0.66693646  0.24910608  1
  In  In104  1  0.00230524  0.66511606  0.74846419  1
  In  In105  1  -0.00281607  0.00084247  0.24866632  1
  In  In106  1  0.49893130  0.50303363  -0.00177065  1
  In  In107  1  -0.00209606  0.33201353  0.75101075  1
  Ir  Ir108  1  0.16719661  0.16660257  0.25042711  1
  Ir  Ir109  1  0.82697471  0.16882549  0.49696355  1
  Ir  Ir110  1  0.66783011  0.33484647  0.75136430  1
  Ir  Ir111  1  0.66793952  0.67299068  0.00049571  1
  Ir  Ir112  1  0.32961379  0.66528113  0.74991982  1
  Ir  Ir113  1  0.50249663  0.49234925  0.50459239  1
  Ir  Ir114  1  0.00571779  0.33467705  0.24956245  1
  Ir  Ir115  1  0.16981906  0.83428839  0.50174910  1
  Ir  Ir116  1  0.16743846  0.16854558  0.49900858  1
  Ir  Ir117  1  0.83650557  0.83654970  0.74999634  1
  Ir  Ir118  1  0.50304417  0.83434154  0.00172689  1
  Ir  Ir119  1  0.33527650  0.66798073  0.24854679  1
  Ir  Ir120  1  0.17002118  0.83662667  0.24772044  1
  Ir  Ir121  1  0.17472495  0.49749792  0.00090806  1
  Ir  Ir122  1  0.17378617  0.50086983  0.75322937  1
  Ir  Ir123  1  0.83109396  0.83715909  0.50309218  1
  Ir  Ir124  1  0.50003702  0.50044700  0.25113401  1
  Ir  Ir125  1  0.00370897  -0.00265947  0.75069830  1
  Ir  Ir126  1  0.32625052  -0.00372178  0.75227608  1
  Ir  Ir127  1  0.33263506  0.33445376  0.00410720  1
  Ir  Ir128  1  0.67304013  0.00009561  0.49609432  1
  Ir  Ir129  1  0.67151256  -0.00116214  0.74918419  1
  Ir  Ir130  1  0.16643083  0.16431436  0.74710693  1
  Ir  Ir131  1  0.66931664  -0.00308269  -0.00356165  1
  Ir  Ir132  1  0.16778745  0.50117122  0.24639535  1
  Ir  Ir133  1  0.50086905  0.82885537  0.24953932  1
  Ir  Ir134  1  0.66203235  0.66717579  0.24470703  1
  Ir  Ir135  1  0.83318499  0.50436654  0.24876344  1
  Ir  Ir136  1  0.33156341  0.33500038  0.75197274  1
  Ir  Ir137  1  0.83003755  0.83306076  -0.00653217  1
  Ir  Ir138  1  0.16676670  0.83832536  -0.00066373  1
  Ir  Ir139  1  0.33082789  -0.00346099  -0.00118027  1
  Ir  Ir140  1  0.66478999  0.33191199  0.50528966  1
  Ir  Ir141  1  0.82791414  0.16208046  -0.00294378  1
  Ir  Ir142  1  0.33494421  0.33456789  0.50411498  1
  Ir  Ir143  1  0.16672120  0.83543880  0.74854440  1
  O  O144  1  0.30047071  0.32299364  0.12175798  1
  O  O145  1  0.31150749  0.33265778  0.62828306  1
  O  O146  1  0.31651919  0.66109617  0.12809571  1
  O  O147  1  0.30049410  0.65432915  0.63214783  1
  O  O148  1  0.30349737  0.99370065  0.11868152  1
  O  O149  1  0.29997458  0.99241645  0.63164609  1
  O  O150  1  0.63099913  0.32372885  0.12360673  1
  O  O151  1  0.64368358  0.32706924  0.62878253  1
  O  O152  1  0.63320109  0.67015383  0.12204962  1
  O  O153  1  0.63002655  0.65631827  0.62417667  1
  O  O154  1  0.65045713  0.98693469  0.11755998  1
  O  O155  1  0.64691679  0.99937744  0.62341933  1
  O  O156  1  0.98312400  0.33374250  0.13027816  1
  O  O157  1  0.96603451  0.32857718  0.62688336  1
  O  O158  1  0.97301097  0.66783019  0.12170328  1
  O  O159  1  0.96609992  0.66731658  0.62627982  1
  O  O160  1  0.95616873  0.99734024  0.12538250  1
  O  O161  1  0.98434294  0.98789053  0.62933711  1
  O  O162  1  0.19542644  0.15274403  0.13017525  1
  O  O163  1  0.19034508  0.15664317  0.62275227  1
  O  O164  1  0.20367214  0.49062110  0.12266128  1
  O  O165  1  0.19937434  0.49646807  0.63521064  1
  O  O166  1  0.19228036  0.84435606  0.12345304  1
  O  O167  1  0.19239541  0.82369612  0.62535666  1
  O  O168  1  0.54112533  0.16030049  0.12342901  1
  O  O169  1  0.51509791  0.16749110  0.62824390  1
  O  O170  1  0.51985169  0.49086218  0.13012152  1
  O  O171  1  0.53111273  0.49093421  0.62435468  1
  O  O172  1  0.53399414  0.82605991  0.12599962  1
  O  O173  1  0.51572401  0.82238894  0.62605661  1
  O  O174  1  0.85153155  0.14966316  0.11673939  1
  O  O175  1  0.84769189  0.17232108  0.61760642  1
  O  O176  1  0.84802686  0.51045282  0.12833686  1
  O  O177  1  0.85315279  0.47789882  0.62725619  1
  O  O178  1  0.84601785  0.82068143  0.11362475  1
  O  O179  1  0.86813988  0.82909344  0.62732280  1
  O  O180  1  0.13613391  0.17213230  0.37417965  1
  O  O181  1  0.13789774  0.16375009  0.86886624  1
  O  O182  1  0.13585121  0.50371129  0.36589643  1
  O  O183  1  0.15239316  0.50168889  0.87747513  1
  O  O184  1  0.14915933  0.83346593  0.37548843  1
  O  O185  1  0.13498143  0.83750451  0.87353721  1
  O  O186  1  0.48542150  0.18798810  0.37449954  1
  O  O187  1  0.47959293  0.17340676  0.87768024  1
  O  O188  1  0.48015363  0.49289424  0.37980365  1
  O  O189  1  0.45914574  0.50859817  0.87558675  1
  O  O190  1  0.46678121  0.83525719  0.36779504  1
  O  O191  1  0.47083421  0.83322446  0.88113640  1
  O  O192  1  0.79516565  0.16971293  0.38018549  1
  O  O193  1  0.79714776  0.17663031  0.87890576  1
  O  O194  1  0.81492606  0.50210029  0.36828885  1
  O  O195  1  0.79117725  0.52223587  0.87270330  1
  O  O196  1  0.79830411  0.84368127  0.38306885  1
  O  O197  1  0.81001198  0.84961067  0.87130208  1
  O  O198  1  0.01797106  0.01279253  0.37678908  1
  O  O199  1  0.01485265  0.01039600  0.87177712  1
  O  O200  1  0.02105151  0.34296041  0.36841692  1
  O  O201  1  0.01679109  0.32393436  0.87655053  1
  O  O202  1  0.01754556  0.67494152  0.37493118  1
  O  O203  1  0.02258622  0.68493791  0.87333913  1
  O  O204  1  0.36361792  0.00213525  0.37092177  1
  O  O205  1  0.35098813  -0.00557976  0.87625591  1
  O  O206  1  0.36043920  0.33579931  0.38104186  1
  O  O207  1  0.36357863  0.34391974  0.87910982  1
  O  O208  1  0.35012087  0.67898299  0.37019657  1
  O  O209  1  0.34916455  0.68103162  0.86999755  1
  O  O210  1  0.70552111  0.00948378  0.37836728  1
  O  O211  1  0.70159416  0.00441562  0.87299531  1
  O  O212  1  0.67910026  0.33535639  0.38476384  1
  O  O213  1  0.70229576  0.34588331  0.86787090  1
  O  O214  1  0.68626958  0.67116035  0.36572118  1
  O  O215  1  0.70159060  0.67575370  0.88169530  1
  O  O216  1  0.07237685  0.09026621  0.01651945  1
  O  O217  1  0.07969923  0.09493299  0.51683831  1
  O  O218  1  0.08531792  0.42598227  0.01814824  1
  O  O219  1  0.07468222  0.42581053  0.51143763  1
  O  O220  1  0.07531971  0.76876155  0.01214418  1
  O  O221  1  0.07509459  0.76946312  0.52939447  1
  O  O222  1  0.39730502  0.09293155  0.02349423  1
  O  O223  1  0.40991903  0.08950798  0.51583337  1
  O  O224  1  0.39692553  0.42818745  0.03009243  1
  O  O225  1  0.40266554  0.42932740  0.52680808  1
  O  O226  1  0.41764710  0.75901577  0.01850625  1
  O  O227  1  0.41905746  0.74230674  0.52339840  1
  O  O228  1  0.73165348  0.09568713  0.02190713  1
  O  O229  1  0.73586157  0.09773005  0.51796869  1
  O  O230  1  0.73179708  0.43174388  0.00913744  1
  O  O231  1  0.72925336  0.42640664  0.52707105  1
  O  O232  1  0.73305596  0.76862601  0.02352265  1
  O  O233  1  0.74744758  0.75984940  0.52251446  1
  O  O234  1  0.10121281  0.26409509  0.02849180  1
  O  O235  1  0.09250577  0.25325962  0.51269682  1
  O  O236  1  0.10279014  0.58736698  0.01638962  1
  O  O237  1  0.10448468  0.60508776  0.52982280  1
  O  O238  1  0.09747170  0.92923086  0.02319585  1
  O  O239  1  0.10094312  0.92578187  0.52545303  1
  O  O240  1  0.42685525  0.26877605  0.02849968  1
  O  O241  1  0.42549257  0.26685458  0.51107168  1
  O  O242  1  0.43133430  0.59785266  0.03157623  1
  O  O243  1  0.43480193  0.58366703  0.52987518  1
  O  O244  1  0.42977571  0.92691401  0.01513988  1
  O  O245  1  0.43257396  0.92612685  0.50768877  1
  O  O246  1  0.76162418  0.25337254  0.02251035  1
  O  O247  1  0.76353474  0.26866022  0.52176100  1
  O  O248  1  0.76190212  0.61270309  0.02228198  1
  O  O249  1  0.76320884  0.59643791  0.52815062  1
  O  O250  1  0.76636091  0.93030073  0.01806006  1
  O  O251  1  0.76362499  0.93015845  0.51811802  1
  O  O252  1  0.23278957  0.07362182  0.26327712  1
  O  O253  1  0.23377774  0.06782501  0.76079271  1
  O  O254  1  0.23730787  0.41094859  0.26227492  1
  O  O255  1  0.24278550  0.40862875  0.77536537  1
  O  O256  1  0.24618364  0.74557875  0.27146925  1
  O  O257  1  0.24070031  0.74402761  0.77240423  1
  O  O258  1  0.56562329  0.06174172  0.28227593  1
  O  O259  1  0.58636293  0.07550937  0.77226273  1
  O  O260  1  0.55877267  0.39937488  0.26814981  1
  O  O261  1  0.56994793  0.39568045  0.78104128  1
  O  O262  1  0.56608346  0.73206799  0.26563122  1
  O  O263  1  0.57253634  0.73788931  0.76310004  1
  O  O264  1  0.90607189  0.08017528  0.28455389  1
  O  O265  1  0.91079874  0.06865630  0.77228352  1
  O  O266  1  0.91275472  0.41141508  0.27072874  1
  O  O267  1  0.89437432  0.39768398  0.77948236  1
  O  O268  1  0.89906337  0.73824353  0.25312467  1
  O  O269  1  0.90424366  0.74732107  0.77541926  1
  O  O270  1  0.25927033  0.23448700  0.25976142  1
  O  O271  1  0.25837410  0.23758980  0.76845402  1
  O  O272  1  0.26445551  0.57110890  0.26227977  1
  O  O273  1  0.26982591  0.56736701  0.77557731  1
  O  O274  1  0.26313185  0.90291411  0.26810001  1
  O  O275  1  0.26028980  0.90111973  0.77572043  1
  O  O276  1  0.60793785  0.22683752  0.26846751  1
  O  O277  1  0.60386382  0.24112970  0.77984058  1
  O  O278  1  0.59390515  0.57162544  0.26532584  1
  O  O279  1  0.59977059  0.56220869  0.77378281  1
  O  O280  1  0.59459888  0.89458778  0.27652555  1
  O  O281  1  0.59335723  0.91537385  0.76123337  1
  O  O282  1  0.93848356  0.24073644  0.27255028  1
  O  O283  1  0.92707212  0.23117214  0.77998847  1
  O  O284  1  0.92868199  0.56644252  0.26964837  1
  O  O285  1  0.92251148  0.57836563  0.77701625  1
  O  O286  1  0.91692070  0.91337996  0.27874448  1
  O  O287  1  0.93463586  0.90361817  0.77589524  1
  O  O288  1  0.26281360  0.24191479  0.48357119  1
  O  O289  1  0.26908093  0.23888324  0.98781134  1
  O  O290  1  0.26632673  0.56771519  0.49147324  1
  O  O291  1  0.27009159  0.56318887  0.98465510  1
  O  O292  1  0.26395632  0.89781957  0.47393535  1
  O  O293  1  0.26468736  0.90166802  0.97432084  1
  O  O294  1  0.60272451  0.23691343  0.48210998  1
  O  O295  1  0.59581409  0.23798287  0.96606911  1
  O  O296  1  0.59334942  0.56075590  0.49013569  1
  O  O297  1  0.60424978  0.57607336  0.97578106  1
  O  O298  1  0.60379014  0.90905355  0.46697429  1
  O  O299  1  0.59987997  0.90177120  0.98624366  1
  O  O300  1  0.92354789  0.23016710  0.47150959  1
  O  O301  1  0.92364872  0.22626834  0.97347525  1
  O  O302  1  0.93594320  0.56632943  0.47557934  1
  O  O303  1  0.91996721  0.57994496  0.97296073  1
  O  O304  1  0.91815795  0.91196468  0.48268000  1
  O  O305  1  0.92493464  0.89953967  0.96928274  1
  O  O306  1  0.23644876  0.07680364  0.48859150  1
  O  O307  1  0.23950872  0.06528279  0.98949551  1
  O  O308  1  0.24685177  0.40524827  0.49027078  1
  O  O309  1  0.24218862  0.40319183  0.97951369  1
  O  O310  1  0.23915016  0.74393952  0.48807966  1
  O  O311  1  0.24389084  0.75125261  0.98242355  1
  O  O312  1  0.58011775  0.06629698  0.46887057  1
  O  O313  1  0.58146873  0.06930711  0.97588567  1
  O  O314  1  0.56527347  0.39394156  0.48307547  1
  O  O315  1  0.56348845  0.40326565  0.97135553  1
  O  O316  1  0.58532718  0.74732499  0.46948252  1
  O  O317  1  0.57200896  0.73901882  0.98626112  1
  O  O318  1  0.89874435  0.07766720  0.47729380  1
  O  O319  1  0.89172893  0.06884619  0.97061437  1
  O  O320  1  0.90543946  0.40578214  0.47800284  1
  O  O321  1  0.90180608  0.40202994  0.97916790  1
  O  O322  1  0.90208506  0.74942344  0.48888148  1
  O  O323  1  0.89733166  0.74188924  0.97177101  1
  O  O324  1  0.10126997  0.26673380  0.22670760  1
  O  O325  1  0.09336652  0.24999532  0.73189627  1
  O  O326  1  0.09801181  0.58876005  0.22707868  1
  O  O327  1  0.10826531  0.59638516  0.72942608  1
  O  O328  1  0.09978908  0.92953403  0.22598559  1
  O  O329  1  0.09761301  0.92735151  0.72030086  1
  O  O330  1  0.43261335  0.26990670  0.22220900  1
  O  O331  1  0.42323066  0.26572322  0.74856994  1
  O  O332  1  0.43049288  0.59702295  0.22430803  1
  O  O333  1  0.42076351  0.59563315  0.72029126  1
  O  O334  1  0.43653016  0.92325084  0.23558448  1
  O  O335  1  0.41387214  0.92351376  0.73925237  1
  O  O336  1  0.76037968  0.26041357  0.22471537  1
  O  O337  1  0.76586663  0.27455707  0.73207285  1
  O  O338  1  0.76410330  0.60449245  0.22513468  1
  O  O339  1  0.76249042  0.59925450  0.71397357  1
  O  O340  1  0.75758047  0.92627947  0.21856309  1
  O  O341  1  0.76695999  0.92857272  0.73279936  1
  O  O342  1  0.07806140  0.09654019  0.23346249  1
  O  O343  1  0.07545814  0.08919923  0.72489295  1
  O  O344  1  0.07913304  0.42689696  0.22325994  1
  O  O345  1  0.08142375  0.43019680  0.73828931  1
  O  O346  1  0.08134399  0.76496824  0.23447490  1
  O  O347  1  0.07379990  0.76786440  0.72393106  1
  O  O348  1  0.39933333  0.10375317  0.21922070  1
  O  O349  1  0.40153826  0.08268987  0.73857797  1
  O  O350  1  0.40526949  0.43539092  0.22595806  1
  O  O351  1  0.39539967  0.42988239  0.73229685  1
  O  O352  1  0.40893744  0.75758122  0.22499663  1
  O  O353  1  0.40297428  0.75123005  0.73176791  1
  O  O354  1  0.73470653  0.09472976  0.22187766  1
  O  O355  1  0.74219140  0.08824484  0.74046429  1
  O  O356  1  0.74244624  0.43119684  0.23465999  1
  O  O357  1  0.72228977  0.43289898  0.72854180  1
  O  O358  1  0.72384908  0.76449345  0.22948421  1
  O  O359  1  0.75042584  0.76244727  0.72651970  1
