# generated using pymatgen
data_BaLaInIrO6
_symmetry_space_group_name_H-M   'P 1'
_cell_length_a   17.52982477
_cell_length_b   17.54931085
_cell_length_c   16.50485912
_cell_angle_alpha   89.99186332
_cell_angle_beta   90.01618680
_cell_angle_gamma   89.92787255
_symmetry_Int_Tables_number   1
_chemical_formula_structural   BaLaInIrO6
_chemical_formula_sum   'Ba36 La36 In36 Ir36 O216'
_cell_volume   5077.49023993
_cell_formula_units_Z   36
loop_
 _symmetry_equiv_pos_site_id
 _symmetry_equiv_pos_as_xyz
  1  'x, y, z'
loop_
 _atom_site_type_symbol
 _atom_site_label
 _atom_site_symmetry_multiplicity
 _atom_site_fract_x
 _atom_site_fract_y
 _atom_site_fract_z
 _atom_site_occupancy
  Ba  Ba0  1  1.00008516  0.50870075  0.62151578  1
  Ba  Ba1  1  0.33093926  0.16042915  0.87885234  1
  Ba  Ba2  1  1.00005207  0.83951971  0.12564617  1
  Ba  Ba3  1  0.33044772  0.82797055  0.87580279  1
  Ba  Ba4  1  0.33550335  0.17309146  0.12730207  1
  Ba  Ba5  1  0.67056200  0.17241814  0.12598684  1
  Ba  Ba6  1  0.33222790  0.82804179  0.37425467  1
  Ba  Ba7  1  0.66849910  0.50674025  0.62510862  1
  Ba  Ba8  1  0.83272776  0.68123474  0.12473813  1
  Ba  Ba9  1  0.32982727  0.16346957  0.37489233  1
  Ba  Ba10  1  0.49579905  0.67706071  0.61989173  1
  Ba  Ba11  1  0.83566244  0.32371027  0.87281448  1
  Ba  Ba12  1  0.16749675  0.32639953  0.37577090  1
  Ba  Ba13  1  0.32798323  0.48829170  0.37009580  1
  Ba  Ba14  1  0.16339681  0.33868347  0.62360724  1
  Ba  Ba15  1  0.66834054  0.17879209  0.62580688  1
  Ba  Ba16  1  0.83230870  0.34365911  0.62448092  1
  Ba  Ba17  1  0.50083748  0.32393514  0.87667260  1
  Ba  Ba18  1  0.67182184  0.84729884  0.12143857  1
  Ba  Ba19  1  0.16843819  0.32296784  0.87695972  1
  Ba  Ba20  1  0.67000016  0.84558670  0.62272807  1
  Ba  Ba21  1  0.49999517  0.32417909  0.37616618  1
  Ba  Ba22  1  0.33061116  0.48884766  0.87360579  1
  Ba  Ba23  1  -0.00159071  0.48660015  0.36783537  1
  Ba  Ba24  1  0.16649876  0.65837075  0.87703571  1
  Ba  Ba25  1  0.16828130  0.00575193  0.62773608  1
  Ba  Ba26  1  1.00306308  0.17297320  0.12873712  1
  Ba  Ba27  1  0.66595947  0.15808799  0.87378132  1
  Ba  Ba28  1  0.16297371  0.00606162  0.12446277  1
  Ba  Ba29  1  0.00087639  0.15772018  0.38224121  1
  Ba  Ba30  1  0.00155122  0.82542220  0.87619841  1
  Ba  Ba31  1  0.33449248  0.17699589  0.62904421  1
  Ba  Ba32  1  0.33165248  0.50397888  0.12485272  1
  Ba  Ba33  1  0.17085491  0.67027179  0.12372458  1
  Ba  Ba34  1  0.16460725  0.99415750  0.87891857  1
  Ba  Ba35  1  0.50480092  0.00936626  0.12711474  1
  La  La36  1  -0.00235414  0.48786222  0.87612733  1
  La  La37  1  1.00655232  0.51242946  0.12050365  1
  La  La38  1  0.66441579  0.48315991  0.37721620  1
  La  La39  1  0.83235215  0.35253322  0.13008537  1
  La  La40  1  0.83603347  0.65040216  0.37327321  1
  La  La41  1  0.82891102  0.00941966  0.12079298  1
  La  La42  1  0.33335372  0.84881335  0.62427002  1
  La  La43  1  0.50321888  0.99013581  0.87400142  1
  La  La44  1  1.00193114  0.84280799  0.62339000  1
  La  La45  1  0.33871456  0.85163361  0.12025604  1
  La  La46  1  0.49776510  0.34544348  0.63111683  1
  La  La47  1  0.83082646  0.01925348  0.62582801  1
  La  La48  1  0.66394477  0.81933337  0.37373060  1
  La  La49  1  0.16732096  0.34511441  0.12703553  1
  La  La50  1  0.83640779  0.98841360  0.87530764  1
  La  La51  1  0.84063285  0.31658745  0.37510983  1
  La  La52  1  0.66266415  0.82236883  0.87654203  1
  La  La53  1  0.66604564  0.15273823  0.37929705  1
  La  La54  1  0.67127170  0.51366404  0.12542417  1
  La  La55  1  0.84092337  0.98407848  0.37965919  1
  La  La56  1  0.50272050  0.64725641  0.37025637  1
  La  La57  1  0.65972927  0.48084268  0.86984746  1
  La  La58  1  0.33549702  0.50726988  0.62529007  1
  La  La59  1  0.83917993  0.65656594  0.87313321  1
  La  La60  1  1.00769363  0.17991218  0.62915325  1
  La  La61  1  -0.00285933  0.81451944  0.37555670  1
  La  La62  1  0.49027367  0.68672304  0.12690732  1
  La  La63  1  0.16508490  0.67689491  0.62407858  1
  La  La64  1  0.49169951  0.01404497  0.62810383  1
  La  La65  1  0.16875010  0.98989469  0.36915086  1
  La  La66  1  0.82562421  0.68186884  0.61997110  1
  La  La67  1  0.49164602  0.34041313  0.12645131  1
  La  La68  1  0.50908051  0.65293807  0.88202180  1
  La  La69  1  -0.00217699  0.14908284  0.87675145  1
  La  La70  1  0.49815004  1.00216394  0.38363494  1
  La  La71  1  0.16599828  0.65137590  0.36855442  1
  In  In72  1  0.66664536  0.66567563  0.49606832  1
  In  In73  1  0.16586376  0.83083527  0.25032712  1
  In  In74  1  0.16754594  0.83177060  0.00169231  1
  In  In75  1  0.50216366  0.16589288  0.25253436  1
  In  In76  1  0.50005199  0.83730259  0.25289908  1
  In  In77  1  0.49999995  0.83424038  0.49818889  1
  In  In78  1  -0.00146964  -0.00014662  0.25391361  1
  In  In79  1  0.33419743  0.00218761  0.75484669  1
  In  In80  1  0.33259420  0.33118286  -0.00020828  1
  In  In81  1  0.00040135  0.33038518  0.00137296  1
  In  In82  1  0.16549044  0.16393572  0.50028831  1
  In  In83  1  0.16607893  0.83086506  0.74759828  1
  In  In84  1  0.66799433  -0.00048147  0.74855558  1
  In  In85  1  0.66875559  0.32972645  0.25089090  1
  In  In86  1  -0.00290178  0.33394315  0.49886650  1
  In  In87  1  0.50386778  0.50110762  0.00421632  1
  In  In88  1  0.67220589  -0.00113483  0.25538688  1
  In  In89  1  0.83144184  0.50263018  0.74922538  1
  In  In90  1  -0.00030837  0.33379914  0.75228270  1
  In  In91  1  0.83044165  0.50279078  0.00026897  1
  In  In92  1  0.49954397  0.49735673  0.49735034  1
  In  In93  1  0.50128597  0.83317098  0.74945243  1
  In  In94  1  0.83576494  0.16888793  0.00176303  1
  In  In95  1  0.83341271  0.83494727  0.25109243  1
  In  In96  1  0.33736661  0.66588722  -0.00263342  1
  In  In97  1  -0.00235387  -0.00103068  0.74605263  1
  In  In98  1  0.33125278  0.00179611  0.49832537  1
  In  In99  1  0.66544978  0.66721439  0.24726700  1
  In  In100  1  0.33369492  0.66832875  0.74733293  1
  In  In101  1  0.66658011  0.33203807  0.00612719  1
  In  In102  1  0.49919464  0.50228294  0.74907717  1
  In  In103  1  0.50247301  0.17232460  0.50390525  1
  In  In104  1  0.16571414  0.50262267  0.50061033  1
  In  In105  1  0.33303012  0.66760080  0.25058394  1
  In  In106  1  -0.00244910  0.66543688  0.74659419  1
  In  In107  1  0.66845758  0.66747786  0.75077063  1
  Ir  Ir108  1  -0.00274989  0.66497606  -0.00048001  1
  Ir  Ir109  1  -0.00277732  0.66181291  0.25139804  1
  Ir  Ir110  1  0.83486124  0.83514624  0.50153562  1
  Ir  Ir111  1  0.33334516  0.33568982  0.50334163  1
  Ir  Ir112  1  0.16651669  0.16968652  0.24718875  1
  Ir  Ir113  1  0.67404452  0.00031752  0.50069663  1
  Ir  Ir114  1  0.16489515  0.16753978  0.75386907  1
  Ir  Ir115  1  0.83379125  0.16725351  0.25507878  1
  Ir  Ir116  1  0.32697300  0.66822531  0.49485517  1
  Ir  Ir117  1  0.83456776  0.16456119  0.74921780  1
  Ir  Ir118  1  0.83220469  0.16399099  0.50032149  1
  Ir  Ir119  1  0.67023520  0.00067592  -0.00258216  1
  Ir  Ir120  1  -0.00411752  0.33032142  0.24724237  1
  Ir  Ir121  1  0.33175163  0.33504867  0.24995712  1
  Ir  Ir122  1  0.16110348  0.49709619  0.24547438  1
  Ir  Ir123  1  0.33228114  0.00306212  0.24918777  1
  Ir  Ir124  1  0.50292428  0.83806506  0.00054698  1
  Ir  Ir125  1  -0.00542297  -0.00129859  -0.00041493  1
  Ir  Ir126  1  0.83121823  0.83560782  -0.00519744  1
  Ir  Ir127  1  0.83197246  0.50213372  0.49403946  1
  Ir  Ir128  1  0.33803105  0.00335019  0.00399766  1
  Ir  Ir129  1  0.16026896  0.83029711  0.49760279  1
  Ir  Ir130  1  0.50270544  0.16312271  -0.00063606  1
  Ir  Ir131  1  -0.00278007  -0.00556900  0.50267906  1
  Ir  Ir132  1  0.33077293  0.33306949  0.74588084  1
  Ir  Ir133  1  0.67378762  0.33365000  0.49835444  1
  Ir  Ir134  1  0.83247492  0.83468520  0.74934431  1
  Ir  Ir135  1  0.83350209  0.49953487  0.24908075  1
  Ir  Ir136  1  0.50121275  0.16831444  0.75334077  1
  Ir  Ir137  1  0.50558844  0.49687972  0.25118291  1
  Ir  Ir138  1  -0.00594195  0.66804032  0.49692998  1
  Ir  Ir139  1  0.16874274  0.49994226  0.74841638  1
  Ir  Ir140  1  0.66887333  0.67085226  -0.00133987  1
  Ir  Ir141  1  0.16222665  0.49920561  -0.00124055  1
  Ir  Ir142  1  0.66578347  0.32973965  0.74794104  1
  Ir  Ir143  1  0.16583800  0.16494393  0.00403975  1
  O  O144  1  0.30698938  0.33477818  0.13007692  1
  O  O145  1  0.31078289  0.34174635  0.62434151  1
  O  O146  1  0.32448855  0.65868621  0.12489323  1
  O  O147  1  0.29813618  0.65316509  0.61156285  1
  O  O148  1  0.31049074  0.99667148  0.12714482  1
  O  O149  1  0.31997960  0.99430610  0.62613411  1
  O  O150  1  0.62729517  0.32750438  0.12962455  1
  O  O151  1  0.63794924  0.33210412  0.62179600  1
  O  O152  1  0.63104626  0.65889441  0.11806640  1
  O  O153  1  0.64960478  0.66672242  0.62219513  1
  O  O154  1  0.65806559  1.00316848  0.12010613  1
  O  O155  1  0.63479468  0.99918575  0.61868256  1
  O  O156  1  0.96669194  0.32923259  0.12870082  1
  O  O157  1  0.98207568  0.31944048  0.62640068  1
  O  O158  1  0.97509273  0.64933658  0.12682616  1
  O  O159  1  0.96020750  0.66351170  0.61556004  1
  O  O160  1  0.96642903  0.99738995  0.12221374  1
  O  O161  1  0.96249312  0.98382083  0.61955170  1
  O  O162  1  0.18750063  0.16169778  0.12658669  1
  O  O163  1  0.18057831  0.16444334  0.63310428  1
  O  O164  1  0.18203539  0.48768990  0.12255805  1
  O  O165  1  0.19767737  0.50087532  0.62864251  1
  O  O166  1  0.20000683  0.83088381  0.12677012  1
  O  O167  1  0.19526870  0.81765513  0.61288381  1
  O  O168  1  0.52030773  0.16457420  0.12078491  1
  O  O169  1  0.51995807  0.15665399  0.63278967  1
  O  O170  1  0.53706883  0.48537069  0.13265249  1
  O  O171  1  0.51939743  0.48526963  0.62250604  1
  O  O172  1  0.52429675  0.82722529  0.12052598  1
  O  O173  1  0.52366091  0.83001591  0.62254410  1
  O  O174  1  0.85180646  0.14748335  0.13475910  1
  O  O175  1  0.86750520  0.15691472  0.62385520  1
  O  O176  1  0.86851492  0.49268542  0.13156796  1
  O  O177  1  0.85011055  0.50019243  0.61461360  1
  O  O178  1  0.85093671  0.83791665  0.11707220  1
  O  O179  1  0.86484513  0.81963189  0.62680220  1
  O  O180  1  0.15144456  0.17207745  0.36644050  1
  O  O181  1  0.13513218  0.16608528  0.88022618  1
  O  O182  1  0.14648083  0.50790649  0.36682306  1
  O  O183  1  0.13436711  0.50247627  0.87484300  1
  O  O184  1  0.13044150  0.84538276  0.38033176  1
  O  O185  1  0.15230772  0.83729625  0.87532679  1
  O  O186  1  0.48180409  0.16357075  0.37900961  1
  O  O187  1  0.48039733  0.16689275  0.87730708  1
  O  O188  1  0.47704921  0.50526756  0.36931983  1
  O  O189  1  0.48129659  0.51306929  0.87544552  1
  O  O190  1  0.47942502  0.86451473  0.37576820  1
  O  O191  1  0.48039139  0.84982755  0.88282942  1
  O  O192  1  0.80216940  0.18020685  0.37822931  1
  O  O193  1  0.81620605  0.16390238  0.86905255  1
  O  O194  1  0.80037330  0.51016261  0.37123848  1
  O  O195  1  0.79331785  0.51598900  0.87664151  1
  O  O196  1  0.80000958  0.84738260  0.38368806  1
  O  O197  1  0.80108965  0.84811494  0.87008487  1
  O  O198  1  0.03144755  0.00324372  0.38576892  1
  O  O199  1  0.01260326  0.00677609  0.87745601  1
  O  O200  1  0.01317067  0.32942223  0.36702344  1
  O  O201  1  0.02059294  0.34948355  0.87640534  1
  O  O202  1  0.02824023  0.67342977  0.37505590  1
  O  O203  1  0.01648571  0.67173084  0.88012534  1
  O  O204  1  0.36055627  0.00265144  0.36933802  1
  O  O205  1  0.36533576  0.00071296  0.88363975  1
  O  O206  1  0.35273405  0.33183081  0.37961330  1
  O  O207  1  0.34776025  0.33054692  0.86754174  1
  O  O208  1  0.36624348  0.67182636  0.37701956  1
  O  O209  1  0.37258770  0.66849948  0.87261868  1
  O  O210  1  0.70780445  0.01082353  0.38422402  1
  O  O211  1  0.69870902  0.00091677  0.87820710  1
  O  O212  1  0.70467719  0.34366018  0.37841934  1
  O  O213  1  0.68525195  0.33572077  0.87042656  1
  O  O214  1  0.70099812  0.67822092  0.37274255  1
  O  O215  1  0.70286653  0.68192508  0.88111005  1
  O  O216  1  0.06542359  0.09238909  0.01263105  1
  O  O217  1  0.06003863  0.08696000  0.53197494  1
  O  O218  1  0.07257424  0.43018789  0.02303086  1
  O  O219  1  0.07460736  0.42594901  0.51009403  1
  O  O220  1  0.06962811  0.75109358  0.02033424  1
  O  O221  1  0.06150782  0.76309189  0.52116239  1
  O  O222  1  0.41125482  0.09218787  0.01748009  1
  O  O223  1  0.41795099  0.08701948  0.51905241  1
  O  O224  1  0.41625934  0.41707538  0.02270197  1
  O  O225  1  0.40304054  0.42587022  0.52314233  1
  O  O226  1  0.41312119  0.76950322  0.02649865  1
  O  O227  1  0.39174259  0.76041550  0.52163397  1
  O  O228  1  0.74293732  0.08815515  0.01602678  1
  O  O229  1  0.74446121  0.09057138  0.52566414  1
  O  O230  1  0.74061171  0.42920479  0.03889451  1
  O  O231  1  0.73682460  0.43536143  0.51034658  1
  O  O232  1  0.73794916  0.76661023  0.01287779  1
  O  O233  1  0.74694096  0.76372203  0.51846001  1
  O  O234  1  0.10226606  0.26010024  0.02727634  1
  O  O235  1  0.08072998  0.24586105  0.51601051  1
  O  O236  1  0.08543281  0.58905994  0.02341542  1
  O  O237  1  0.09018106  0.60441138  0.51951028  1
  O  O238  1  0.08194536  0.92536058  0.01560562  1
  O  O239  1  0.08584995  0.91940038  0.53008121  1
  O  O240  1  0.43330180  0.25597018  0.02095475  1
  O  O241  1  0.42986542  0.27110793  0.52745630  1
  O  O242  1  0.44579567  0.60582577  0.02012504  1
  O  O243  1  0.41515354  0.59419220  0.51362082  1
  O  O244  1  0.42799909  0.92769593  0.02796065  1
  O  O245  1  0.42716054  0.92842782  0.52739495  1
  O  O246  1  0.76956751  0.26775754  0.02777066  1
  O  O247  1  0.76441226  0.26108441  0.51737245  1
  O  O248  1  0.75272548  0.59750332  0.02818878  1
  O  O249  1  0.77215435  0.59942508  0.51190248  1
  O  O250  1  0.76857945  0.93546231  0.01524844  1
  O  O251  1  0.77281130  0.93421817  0.52680031  1
  O  O252  1  0.23552648  0.07338801  0.27310173  1
  O  O253  1  0.23647628  0.07916804  0.76953930  1
  O  O254  1  0.23300507  0.40406087  0.26031454  1
  O  O255  1  0.23673448  0.40303771  0.76587419  1
  O  O256  1  0.23368858  0.73489958  0.28054777  1
  O  O257  1  0.22974465  0.72762283  0.75085003  1
  O  O258  1  0.57338684  0.06506765  0.28070708  1
  O  O259  1  0.56632497  0.07160214  0.77180279  1
  O  O260  1  0.57822424  0.41149322  0.27815143  1
  O  O261  1  0.57535958  0.40109333  0.76255437  1
  O  O262  1  0.56224645  0.73018081  0.27381158  1
  O  O263  1  0.57078511  0.73647278  0.78406434  1
  O  O264  1  0.89765242  0.07146743  0.27990830  1
  O  O265  1  0.89799072  0.06854615  0.76752099  1
  O  O266  1  0.89729261  0.39711251  0.26977740  1
  O  O267  1  0.90924576  0.41357721  0.76916854  1
  O  O268  1  0.90814466  0.73557302  0.27804876  1
  O  O269  1  0.89401869  0.73793817  0.77071351  1
  O  O270  1  0.25941868  0.24433557  0.26593648  1
  O  O271  1  0.25897934  0.23810678  0.76579366  1
  O  O272  1  0.24850836  0.57324823  0.26303198  1
  O  O273  1  0.25919091  0.56522748  0.76290668  1
  O  O274  1  0.25618878  0.91910579  0.27148541  1
  O  O275  1  0.26511870  0.90215765  0.75018904  1
  O  O276  1  0.60436473  0.23099644  0.27993932  1
  O  O277  1  0.59347186  0.23887708  0.76364703  1
  O  O278  1  0.59726214  0.56511477  0.27659080  1
  O  O279  1  0.59986445  0.56980472  0.77708783  1
  O  O280  1  0.60766249  0.89679226  0.27083283  1
  O  O281  1  0.60138990  0.90356342  0.77921376  1
  O  O282  1  0.92610465  0.23613927  0.27231109  1
  O  O283  1  0.93123253  0.22582822  0.76902850  1
  O  O284  1  0.91952635  0.57660874  0.27543415  1
  O  O285  1  0.93085700  0.57180758  0.78176878  1
  O  O286  1  0.93021167  0.90136020  0.28625774  1
  O  O287  1  0.92087543  0.90316493  0.76790346  1
  O  O288  1  0.26106500  0.24600117  0.49240685  1
  O  O289  1  0.25527651  0.23557909  0.99164776  1
  O  O290  1  0.25363993  0.58366660  0.46736935  1
  O  O291  1  0.25278137  0.56923642  0.98477216  1
  O  O292  1  0.24780891  0.90418636  0.48011509  1
  O  O293  1  0.26781309  0.91519263  0.99284839  1
  O  O294  1  0.60734270  0.23958690  0.47894591  1
  O  O295  1  0.59026314  0.23397783  0.98485791  1
  O  O296  1  0.59304160  0.57108928  0.46721183  1
  O  O297  1  0.60604172  0.57871402  0.97142497  1
  O  O298  1  0.60850768  0.91105123  0.47067385  1
  O  O299  1  0.59839454  0.90844288  0.97258415  1
  O  O300  1  0.91508716  0.24022718  0.48105276  1
  O  O301  1  0.93737289  0.22934907  0.97556387  1
  O  O302  1  0.92337521  0.57526304  0.46876099  1
  O  O303  1  0.92732886  0.57603021  0.97424156  1
  O  O304  1  0.93090998  0.89909769  0.47357914  1
  O  O305  1  0.91946783  0.91033806  0.97286401  1
  O  O306  1  0.23073329  0.06688926  0.47506648  1
  O  O307  1  0.24220112  0.07249598  0.98396232  1
  O  O308  1  0.24609254  0.40842498  0.48604741  1
  O  O309  1  0.23432697  0.40887828  0.99025983  1
  O  O310  1  0.22584268  0.73493549  0.47062653  1
  O  O311  1  0.24648442  0.74197487  0.98300686  1
  O  O312  1  0.58445179  0.07054011  0.47504859  1
  O  O313  1  0.57121148  0.06531950  0.97580971  1
  O  O314  1  0.58498123  0.40442748  0.47844647  1
  O  O315  1  0.58528196  0.41631198  0.97402748  1
  O  O316  1  0.57042616  0.73923769  0.46158612  1
  O  O317  1  0.57435388  0.74455769  0.97118961  1
  O  O318  1  0.89936151  0.06370236  0.48073785  1
  O  O319  1  0.90406211  0.06716429  0.97710853  1
  O  O320  1  0.89607028  0.40675893  0.47403629  1
  O  O321  1  0.90900699  0.41239464  0.98274240  1
  O  O322  1  0.90007783  0.73805619  0.46925511  1
  O  O323  1  0.89947788  0.73583544  0.97536370  1
  O  O324  1  0.09774298  0.26638918  0.22391611  1
  O  O325  1  0.09249090  0.25315748  0.73590072  1
  O  O326  1  0.08603700  0.58559841  0.22492263  1
  O  O327  1  0.10178590  0.59328453  0.72462233  1
  O  O328  1  0.09136941  0.92534120  0.23833608  1
  O  O329  1  0.08376331  0.91899357  0.72410407  1
  O  O330  1  0.42743366  0.26690954  0.23059745  1
  O  O331  1  0.43194216  0.26644054  0.72724496  1
  O  O332  1  0.44192621  0.59339641  0.23219111  1
  O  O333  1  0.41696567  0.58593900  0.71478771  1
  O  O334  1  0.41586105  0.92746280  0.22505802  1
  O  O335  1  0.44129443  0.94056799  0.73750873  1
  O  O336  1  0.77602008  0.26680242  0.23058579  1
  O  O337  1  0.76389930  0.25845714  0.73192153  1
  O  O338  1  0.75986127  0.58712836  0.22611290  1
  O  O339  1  0.77373302  0.60766931  0.72896223  1
  O  O340  1  0.77780484  0.94324584  0.23461541  1
  O  O341  1  0.77210891  0.93199122  0.72478230  1
  O  O342  1  0.07808878  0.09608899  0.23891473  1
  O  O343  1  0.06760659  0.10137173  0.73752245  1
  O  O344  1  0.06672107  0.42286862  0.21815037  1
  O  O345  1  0.07841819  0.43253395  0.73438024  1
  O  O346  1  0.06799748  0.75065106  0.23856756  1
  O  O347  1  0.06820786  0.75698848  0.71410160  1
  O  O348  1  0.40613611  0.08806109  0.23615489  1
  O  O349  1  0.41304787  0.09875590  0.73714921  1
  O  O350  1  0.41452088  0.42162372  0.22540678  1
  O  O351  1  0.40170757  0.42210739  0.72552893  1
  O  O352  1  0.40393273  0.76590532  0.22232477  1
  O  O353  1  0.39690295  0.77155883  0.72095697  1
  O  O354  1  0.73907312  0.10610663  0.24845334  1
  O  O355  1  0.74594056  0.09325692  0.72812188  1
  O  O356  1  0.74200451  0.43105292  0.22269446  1
  O  O357  1  0.73370209  0.42256065  0.73946627  1
  O  O358  1  0.73602266  0.76638453  0.23815948  1
  O  O359  1  0.74043723  0.76968119  0.73639130  1
