# generated using pymatgen
data_BaLaInIrO6
_symmetry_space_group_name_H-M   'P 1'
_cell_length_a   17.52285380
_cell_length_b   17.54854505
_cell_length_c   16.49553357
_cell_angle_alpha   90.00419272
_cell_angle_beta   89.99367318
_cell_angle_gamma   89.97317155
_symmetry_Int_Tables_number   1
_chemical_formula_structural   BaLaInIrO6
_chemical_formula_sum   'Ba36 La36 In36 Ir36 O216'
_cell_volume   5072.38569343
_cell_formula_units_Z   36
loop_
 _symmetry_equiv_pos_site_id
 _symmetry_equiv_pos_as_xyz
  1  'x, y, z'
loop_
 _atom_site_type_symbol
 _atom_site_label
 _atom_site_symmetry_multiplicity
 _atom_site_fract_x
 _atom_site_fract_y
 _atom_site_fract_z
 _atom_site_occupancy
  Ba  Ba0  1  0.33551071  0.84810597  0.62590745  1
  Ba  Ba1  1  0.49759550  0.32836559  0.37850753  1
  Ba  Ba2  1  0.16611240  0.00753827  0.62742963  1
  Ba  Ba3  1  0.66568416  0.17342525  0.62701343  1
  Ba  Ba4  1  0.16733355  0.65711729  0.86960905  1
  Ba  Ba5  1  0.33371449  0.50176161  0.12646752  1
  Ba  Ba6  1  0.17238124  0.32536415  0.37715498  1
  Ba  Ba7  1  -0.00309563  0.15818976  0.87819183  1
  Ba  Ba8  1  0.33323598  0.49233530  0.87429146  1
  Ba  Ba9  1  0.83406099  0.00756302  0.62296704  1
  Ba  Ba10  1  0.17112305  0.66672723  0.12226243  1
  Ba  Ba11  1  0.82902935  0.99158659  0.36906127  1
  Ba  Ba12  1  0.83512549  0.00689759  0.12328273  1
  Ba  Ba13  1  0.66624221  0.16144383  0.37833715  1
  Ba  Ba14  1  0.66770835  0.17459074  0.12563871  1
  Ba  Ba15  1  0.66306240  0.15609840  0.87099338  1
  Ba  Ba16  1  0.16775350  0.65969712  0.37589486  1
  Ba  Ba17  1  0.49767392  0.68259051  0.62754366  1
  Ba  Ba18  1  0.66889750  0.51107006  0.12489460  1
  Ba  Ba19  1  0.33271337  0.84053012  0.12384651  1
  Ba  Ba20  1  0.33379487  0.49531134  0.37616717  1
  Ba  Ba21  1  0.33107455  0.15069214  0.87329733  1
  Ba  Ba22  1  1.00294025  0.18135652  0.12045161  1
  Ba  Ba23  1  0.83026228  0.32331178  0.87540048  1
  Ba  Ba24  1  0.66695835  0.51069138  0.62447394  1
  Ba  Ba25  1  0.16974551  0.68026767  0.62455540  1
  Ba  Ba26  1  0.49764980  0.33790665  0.12729700  1
  Ba  Ba27  1  0.66715463  0.82734541  0.37827983  1
  Ba  Ba28  1  0.16464094  0.34209137  0.12407308  1
  Ba  Ba29  1  0.49628233  0.66949692  0.12451334  1
  Ba  Ba30  1  0.32997946  0.15746876  0.37249006  1
  Ba  Ba31  1  0.66528298  0.84212063  0.62590924  1
  Ba  Ba32  1  0.50077322  0.34183740  0.62754419  1
  Ba  Ba33  1  0.83245798  0.67684172  0.12628035  1
  Ba  Ba34  1  0.82851373  0.33874093  0.62844245  1
  Ba  Ba35  1  0.33537914  0.51266900  0.62601857  1
  La  La36  1  1.00551826  0.84556974  0.62270669  1
  La  La37  1  1.00550078  0.51484832  0.12386048  1
  La  La38  1  1.00831395  0.18708720  0.62857307  1
  La  La39  1  -0.00482813  0.48641864  0.88205065  1
  La  La40  1  0.82717476  0.34861930  0.11959973  1
  La  La41  1  0.50436254  0.65366129  0.37692569  1
  La  La42  1  0.66283953  0.82137480  0.87617645  1
  La  La43  1  0.16694740  0.35149841  0.62992111  1
  La  La44  1  0.17565168  0.98223121  0.37722065  1
  La  La45  1  0.83789297  0.31644079  0.37344798  1
  La  La46  1  0.33560122  0.18160083  0.12557592  1
  La  La47  1  0.67096087  0.84230157  0.12760734  1
  La  La48  1  0.33560448  0.17571975  0.62293648  1
  La  La49  1  0.82670424  0.68154427  0.62603299  1
  La  La50  1  0.65869729  0.48087822  0.87099424  1
  La  La51  1  0.33039974  0.81719164  0.87084198  1
  La  La52  1  0.16831256  0.31564569  0.87920448  1
  La  La53  1  1.01069097  0.84095314  0.13250654  1
  La  La54  1  0.33501197  0.81720331  0.37564254  1
  La  La55  1  0.17449704  0.98166214  0.87554477  1
  La  La56  1  -0.00627574  0.15286922  0.37369310  1
  La  La57  1  0.49195195  0.01399405  0.12609980  1
  La  La58  1  1.00644053  0.51901076  0.62679227  1
  La  La59  1  0.83330720  0.65739317  0.37965306  1
  La  La60  1  -0.00335421  0.48401358  0.37390616  1
  La  La61  1  0.66364586  0.49079555  0.38225709  1
  La  La62  1  0.16275380  0.01434123  0.12040143  1
  La  La63  1  0.50506978  0.31506191  0.87429640  1
  La  La64  1  0.50050544  0.98307388  0.87029219  1
  La  La65  1  0.50769261  0.98716780  0.37481941  1
  La  La66  1  0.83299339  0.98815412  0.87289914  1
  La  La67  1  0.49396518  0.00969986  0.62402375  1
  La  La68  1  0.50110072  0.65107252  0.87245998  1
  La  La69  1  0.83628275  0.65200704  0.87405982  1
  La  La70  1  -0.00093028  0.82257704  0.86835335  1
  La  La71  1  -0.00212446  0.81757442  0.37861015  1
  In  In72  1  0.66961868  0.33472497  0.25020887  1
  In  In73  1  0.16448572  0.50499500  0.50000959  1
  In  In74  1  0.16553404  0.16636820  0.50221614  1
  In  In75  1  0.33207925  0.33321848  0.75392201  1
  In  In76  1  0.50381169  0.50047701  0.25123601  1
  In  In77  1  0.49803488  0.16588757  0.25294502  1
  In  In78  1  0.16329288  0.16546422  0.25042138  1
  In  In79  1  -0.00292728  0.67036817  -0.00110711  1
  In  In80  1  0.66345057  -0.00115350  -0.00232960  1
  In  In81  1  0.83506481  0.50029671  0.50024477  1
  In  In82  1  0.83480635  0.50087011  0.75003697  1
  In  In83  1  0.00019060  0.33585304  0.75511812  1
  In  In84  1  0.16755098  0.83097262  -0.00116456  1
  In  In85  1  0.00470954  -0.00189601  0.24835054  1
  In  In86  1  0.83846447  0.16465294  0.50185812  1
  In  In87  1  0.50166146  0.83126683  0.24798692  1
  In  In88  1  0.00112045  0.33607315  0.50062238  1
  In  In89  1  0.00365426  0.00092018  0.49841102  1
  In  In90  1  0.33142622  0.33273895  0.50433564  1
  In  In91  1  0.00198921  0.00159895  0.75086899  1
  In  In92  1  0.66542973  0.00121479  0.50401793  1
  In  In93  1  0.50034880  0.49659315  -0.00188580  1
  In  In94  1  0.33443992  0.66532973  0.24951317  1
  In  In95  1  0.66415065  0.32863499  -0.00007651  1
  In  In96  1  0.66907291  0.33408776  0.50050149  1
  In  In97  1  0.16977958  0.83083472  0.25163535  1
  In  In98  1  0.00269846  -0.00344409  -0.00442439  1
  In  In99  1  0.66497269  0.00014247  0.24781682  1
  In  In100  1  0.16602223  0.49821895  -0.00342529  1
  In  In101  1  0.33102308  0.33444065  0.25068197  1
  In  In102  1  0.83612849  0.83371588  0.50044681  1
  In  In103  1  0.83362384  0.83234131  -0.00022461  1
  In  In104  1  0.83478478  0.16314995  0.75237480  1
  In  In105  1  0.66687229  0.66697318  0.75138435  1
  In  In106  1  0.83418170  0.50266807  0.24989573  1
  In  In107  1  0.50043641  0.83045175  -0.00152629  1
  Ir  Ir108  1  0.49651656  0.16116258  0.74910386  1
  Ir  Ir109  1  0.33561947  0.66618687  -0.00614777  1
  Ir  Ir110  1  0.66945111  0.66609569  -0.00124192  1
  Ir  Ir111  1  0.83814394  0.82738317  0.24944707  1
  Ir  Ir112  1  0.66985580  0.66955252  0.25268975  1
  Ir  Ir113  1  0.33503471  0.66856006  0.74982717  1
  Ir  Ir114  1  0.49631144  0.83514093  0.50168590  1
  Ir  Ir115  1  0.83188763  0.83248847  0.75270192  1
  Ir  Ir116  1  0.16630037  0.83197212  0.74656835  1
  Ir  Ir117  1  0.83360215  0.16599738  0.00231480  1
  Ir  Ir118  1  0.49939792  0.50134832  0.74977672  1
  Ir  Ir119  1  0.15882655  0.50164771  0.24962512  1
  Ir  Ir120  1  0.16181226  0.50360219  0.75083131  1
  Ir  Ir121  1  0.50060564  0.50570249  0.50494074  1
  Ir  Ir122  1  -0.00351081  0.33566726  0.00352307  1
  Ir  Ir123  1  0.33592194  -0.00236262  0.49637734  1
  Ir  Ir124  1  0.66183101  0.33232240  0.75066987  1
  Ir  Ir125  1  -0.00143403  0.66501336  0.25581406  1
  Ir  Ir126  1  0.16900333  0.16611578  0.75269440  1
  Ir  Ir127  1  0.66702352  0.67074386  0.49961303  1
  Ir  Ir128  1  0.33372614  0.32839370  -0.00454568  1
  Ir  Ir129  1  0.83879648  0.16925458  0.24427404  1
  Ir  Ir130  1  0.49586241  0.16275667  0.50474968  1
  Ir  Ir131  1  0.83195096  0.50222328  -0.00260915  1
  Ir  Ir132  1  -0.00205834  0.66771715  0.50092246  1
  Ir  Ir133  1  0.66476735  -0.00481566  0.75179564  1
  Ir  Ir134  1  0.16868536  0.83319330  0.50069944  1
  Ir  Ir135  1  -0.00238548  0.66986089  0.74880518  1
  Ir  Ir136  1  0.16966092  0.16507530  -0.00404996  1
  Ir  Ir137  1  0.33267255  -0.00197622  0.24973677  1
  Ir  Ir138  1  -0.00248457  0.33627340  0.24862156  1
  Ir  Ir139  1  0.33762634  0.67107750  0.50341773  1
  Ir  Ir140  1  0.33285425  -0.00088388  -0.00023564  1
  Ir  Ir141  1  0.49674031  0.83605981  0.75154775  1
  Ir  Ir142  1  0.49239220  0.16083385  -0.00515872  1
  Ir  Ir143  1  0.33340355  -0.00066032  0.75090304  1
  O  O144  1  0.31382268  0.32646667  0.11483083  1
  O  O145  1  0.30237390  0.32298997  0.63173753  1
  O  O146  1  0.32416958  0.66182359  0.11566839  1
  O  O147  1  0.31795271  0.66922210  0.62688032  1
  O  O148  1  0.29940653  0.99469208  0.12570767  1
  O  O149  1  0.31266570  1.00278939  0.62424090  1
  O  O150  1  0.64817603  0.33317895  0.12336763  1
  O  O151  1  0.65102517  0.33383945  0.63080942  1
  O  O152  1  0.64419884  0.66680369  0.12721038  1
  O  O153  1  0.64714989  0.66998780  0.62108921  1
  O  O154  1  0.63141478  0.98737204  0.12224929  1
  O  O155  1  0.63183049  0.99598269  0.63371397  1
  O  O156  1  0.96364428  0.33561083  0.12641521  1
  O  O157  1  0.97870355  0.32604501  0.62829866  1
  O  O158  1  0.98194500  0.65659543  0.13301217  1
  O  O159  1  0.96465247  0.65704919  0.62413969  1
  O  O160  1  0.98238060  0.97418397  0.12116799  1
  O  O161  1  0.98360261  0.98052355  0.62640690  1
  O  O162  1  0.19984689  0.15557416  0.11419778  1
  O  O163  1  0.20043088  0.16006534  0.63668513  1
  O  O164  1  0.17652870  0.50073536  0.12800385  1
  O  O165  1  0.18170872  0.49676628  0.63250031  1
  O  O166  1  0.18121307  0.81981778  0.12427770  1
  O  O167  1  0.18952966  0.83429541  0.62433829  1
  O  O168  1  0.51387505  0.15171659  0.11401279  1
  O  O169  1  0.51832659  0.14700639  0.62811985  1
  O  O170  1  0.51770467  0.50497973  0.12238593  1
  O  O171  1  0.51843528  0.50261722  0.62876351  1
  O  O172  1  0.53413388  0.82520625  0.12111340  1
  O  O173  1  0.51728368  0.83761026  0.62725986  1
  O  O174  1  0.85533933  0.16326946  0.12167312  1
  O  O175  1  0.87217460  0.16349443  0.62788547  1
  O  O176  1  0.86744269  0.49628104  0.11721739  1
  O  O177  1  0.87015164  0.49664749  0.62556108  1
  O  O178  1  0.87187065  0.82834204  0.12975061  1
  O  O179  1  0.86651991  0.81958138  0.63275059  1
  O  O180  1  0.13159981  0.17063854  0.37573705  1
  O  O181  1  0.14423287  0.17662125  0.87358755  1
  O  O182  1  0.13403794  0.50228650  0.37057534  1
  O  O183  1  0.13251346  0.50340159  0.86942163  1
  O  O184  1  0.13749840  0.83867572  0.38114637  1
  O  O185  1  0.13962590  0.83649582  0.86729890  1
  O  O186  1  0.47828631  0.16578294  0.38586994  1
  O  O187  1  0.47649304  0.17701530  0.87112536  1
  O  O188  1  0.48511041  0.51404886  0.38668080  1
  O  O189  1  0.48410225  0.51000650  0.86850794  1
  O  O190  1  0.47104515  0.84558703  0.38238231  1
  O  O191  1  0.46631648  0.84403720  0.86976184  1
  O  O192  1  0.82025968  0.17685161  0.36267444  1
  O  O193  1  0.81423840  0.16619000  0.88478451  1
  O  O194  1  0.80125943  0.52045630  0.37441949  1
  O  O195  1  0.79683111  0.51309645  0.87862438  1
  O  O196  1  0.81847035  0.82472904  0.36815012  1
  O  O197  1  0.79730559  0.84429060  0.86970972  1
  O  O198  1  0.03984133  0.01166321  0.37257555  1
  O  O199  1  0.04027782  -0.00079121  0.87172924  1
  O  O200  1  0.02592158  0.34565571  0.36645987  1
  O  O201  1  0.03260277  0.34538412  0.88383438  1
  O  O202  1  0.02157968  0.68188262  0.37951883  1
  O  O203  1  0.02087517  0.68545505  0.86690157  1
  O  O204  1  0.36858274  -0.00023218  0.37291159  1
  O  O205  1  0.36404145  -0.00162010  0.87501152  1
  O  O206  1  0.34384446  0.33467944  0.37853023  1
  O  O207  1  0.36607844  0.33087189  0.87740137  1
  O  O208  1  0.36299453  0.67488250  0.38529402  1
  O  O209  1  0.36303190  0.67546970  0.87064271  1
  O  O210  1  0.67552156  0.00414302  0.37480146  1
  O  O211  1  0.69587132  -0.00359284  0.87012132  1
  O  O212  1  0.70230400  0.34440214  0.37426606  1
  O  O213  1  0.67716807  0.33413763  0.87109100  1
  O  O214  1  0.69884407  0.67283717  0.37539324  1
  O  O215  1  0.69989764  0.67882781  0.88012983  1
  O  O216  1  0.08152885  0.09517376  0.01787547  1
  O  O217  1  0.06655554  0.10313213  0.53123262  1
  O  O218  1  0.06003363  0.43104862  0.02134244  1
  O  O219  1  0.05978764  0.44257354  0.51906901  1
  O  O220  1  0.05595834  0.77585653  0.01169182  1
  O  O221  1  0.06658286  0.76752781  0.52252104  1
  O  O222  1  0.39767725  0.09341075  0.02555409  1
  O  O223  1  0.40180930  0.09189599  0.52787168  1
  O  O224  1  0.40433734  0.41738703  0.01263391  1
  O  O225  1  0.41383702  0.43030833  0.51762938  1
  O  O226  1  0.40195983  0.75993755  0.00459720  1
  O  O227  1  0.40417527  0.76763213  0.51379058  1
  O  O228  1  0.74221647  0.09570928  0.01520342  1
  O  O229  1  0.74060142  0.09399009  0.51750412  1
  O  O230  1  0.74589115  0.42747943  0.01244602  1
  O  O231  1  0.73520068  0.43606245  0.51310789  1
  O  O232  1  0.72731784  0.76342776  0.02157716  1
  O  O233  1  0.74175202  0.75521163  0.52093343  1
  O  O234  1  0.09903727  0.26422133  0.00970838  1
  O  O235  1  0.10231648  0.27050775  0.53475583  1
  O  O236  1  0.08487755  0.58954481  0.01243313  1
  O  O237  1  0.08834821  0.60086703  0.52216882  1
  O  O238  1  0.10973688  0.93622522  0.01465318  1
  O  O239  1  0.10238340  0.92392096  0.51318329  1
  O  O240  1  0.42215741  0.25329618  0.02023203  1
  O  O241  1  0.42610368  0.25054352  0.52861866  1
  O  O242  1  0.42911120  0.59866319  -0.00245621  1
  O  O243  1  0.43109147  0.60138666  0.51803382  1
  O  O244  1  0.42873781  0.93615326  0.02185797  1
  O  O245  1  0.43320789  0.93385437  0.52019361  1
  O  O246  1  0.76691752  0.26064645  0.02172160  1
  O  O247  1  0.76783002  0.26298865  0.50548199  1
  O  O248  1  0.76533263  0.59763570  0.01678591  1
  O  O249  1  0.76477224  0.60746316  0.52087455  1
  O  O250  1  0.75275934  0.91867638  0.02441883  1
  O  O251  1  0.75782468  0.92192741  0.51394919  1
  O  O252  1  0.23765249  0.05947326  0.27253933  1
  O  O253  1  0.23343244  0.06517944  0.77522009  1
  O  O254  1  0.23145009  0.41520136  0.26181387  1
  O  O255  1  0.22583843  0.40676058  0.77226784  1
  O  O256  1  0.24658532  0.74280306  0.27583333  1
  O  O257  1  0.24548275  0.74393952  0.77143167  1
  O  O258  1  0.55774895  0.06319574  0.26149020  1
  O  O259  1  0.56675978  0.06184328  0.77378090  1
  O  O260  1  0.58718956  0.42006215  0.28246103  1
  O  O261  1  0.56732875  0.40598787  0.77623045  1
  O  O262  1  0.57531733  0.73132922  0.27584097  1
  O  O263  1  0.56798468  0.74329101  0.77915767  1
  O  O264  1  0.91173459  0.07986222  0.26565573  1
  O  O265  1  0.89980186  0.06172808  0.77812596  1
  O  O266  1  0.90757747  0.40265238  0.27581878  1
  O  O267  1  0.91436107  0.41792368  0.78593775  1
  O  O268  1  0.90433543  0.73135429  0.27879482  1
  O  O269  1  0.90023370  0.73775826  0.77717315  1
  O  O270  1  0.25570051  0.23858393  0.25204656  1
  O  O271  1  0.25442511  0.23861729  0.77628736  1
  O  O272  1  0.25060870  0.57172420  0.26334918  1
  O  O273  1  0.26158705  0.57491058  0.76674609  1
  O  O274  1  0.26933545  0.90546691  0.28193171  1
  O  O275  1  0.26143299  0.90518767  0.77734728  1
  O  O276  1  0.59122686  0.24168669  0.26543736  1
  O  O277  1  0.58222236  0.24329234  0.77182819  1
  O  O278  1  0.60418469  0.57907391  0.28155000  1
  O  O279  1  0.59501518  0.56963616  0.77538800  1
  O  O280  1  0.59058137  0.90526440  0.27096512  1
  O  O281  1  0.59392821  0.90124861  0.77809641  1
  O  O282  1  0.93345443  0.23980555  0.27337911  1
  O  O283  1  0.92790848  0.24075421  0.76873477  1
  O  O284  1  0.93435330  0.57036766  0.27567310  1
  O  O285  1  0.93294737  0.57861536  0.78122366  1
  O  O286  1  0.93416947  0.89225560  0.27321451  1
  O  O287  1  0.92401995  0.89812001  0.77452209  1
  O  O288  1  0.26758524  0.22704314  0.49600639  1
  O  O289  1  0.25886788  0.24058794  0.97410146  1
  O  O290  1  0.26387435  0.58283225  0.48817907  1
  O  O291  1  0.26264385  0.57662688  0.98468314  1
  O  O292  1  0.26588880  0.90180339  0.47022383  1
  O  O293  1  0.26893396  0.90551394  0.97002968  1
  O  O294  1  0.58419991  0.23784050  0.49105559  1
  O  O295  1  0.58054036  0.23537685  0.97938274  1
  O  O296  1  0.59613709  0.57923831  0.47569126  1
  O  O297  1  0.60484066  0.57334842  0.96957683  1
  O  O298  1  0.58228784  0.90626841  0.48494477  1
  O  O299  1  0.59091377  0.90335027  0.96206300  1
  O  O300  1  0.93820277  0.23560505  0.47141266  1
  O  O301  1  0.92619199  0.24138713  0.98502299  1
  O  O302  1  0.93441407  0.57464838  0.47211850  1
  O  O303  1  0.92286968  0.57049422  0.97211744  1
  O  O304  1  0.93988959  0.89452351  0.48259984  1
  O  O305  1  0.92492372  0.90602347  0.95936995  1
  O  O306  1  0.23925883  0.05925308  0.47498811  1
  O  O307  1  0.23319850  0.06435057  0.97634099  1
  O  O308  1  0.23265816  0.40653911  0.50154795  1
  O  O309  1  0.23933397  0.39827533  0.97361936  1
  O  O310  1  0.24684254  0.74427189  0.47932613  1
  O  O311  1  0.24657682  0.73870000  0.97611905  1
  O  O312  1  0.55884160  0.06756162  0.48600198  1
  O  O313  1  0.55755181  0.06707549  0.97313871  1
  O  O314  1  0.57429589  0.41907451  0.48472266  1
  O  O315  1  0.57248966  0.40447842  0.96712570  1
  O  O316  1  0.56520765  0.73872939  0.47720880  1
  O  O317  1  0.57622170  0.73130652  0.96831415  1
  O  O318  1  0.91103837  0.07232374  0.46722533  1
  O  O319  1  0.90013809  0.06979033  0.97992111  1
  O  O320  1  0.90401320  0.40525084  0.46256406  1
  O  O321  1  0.90493937  0.40764052  0.97786067  1
  O  O322  1  0.90382095  0.73101591  0.48175306  1
  O  O323  1  0.89608336  0.73363868  0.97033853  1
  O  O324  1  0.08514466  0.26677548  0.22982949  1
  O  O325  1  0.10479072  0.26264771  0.73174718  1
  O  O326  1  0.08832713  0.59301981  0.23048324  1
  O  O327  1  0.08863116  0.59677719  0.72375175  1
  O  O328  1  0.10336532  0.92754630  0.22460937  1
  O  O329  1  0.09299131  0.91645145  0.73087772  1
  O  O330  1  0.41661079  0.24858382  0.22720843  1
  O  O331  1  0.42281274  0.24791234  0.72824369  1
  O  O332  1  0.43214805  0.59757120  0.25254319  1
  O  O333  1  0.43489184  0.60117013  0.74082052  1
  O  O334  1  0.42751605  0.93668717  0.22618775  1
  O  O335  1  0.43313984  0.93615612  0.73185983  1
  O  O336  1  0.77618871  0.26394880  0.22644851  1
  O  O337  1  0.74939282  0.25648675  0.73815369  1
  O  O338  1  0.76093420  0.60325279  0.23679142  1
  O  O339  1  0.76956386  0.60229731  0.73033841  1
  O  O340  1  0.76276906  0.91429309  0.22701328  1
  O  O341  1  0.76231353  0.92710700  0.73109120  1
  O  O342  1  0.08026125  0.08842431  0.21367518  1
  O  O343  1  0.07291082  0.10481372  0.72763377  1
  O  O344  1  0.05806898  0.43694107  0.22892089  1
  O  O345  1  0.07134346  0.43677006  0.72676889  1
  O  O346  1  0.06128294  0.76176424  0.24013636  1
  O  O347  1  0.06655502  0.76594991  0.72402769  1
  O  O348  1  0.39426824  0.09043447  0.21995911  1
  O  O349  1  0.40424314  0.08986965  0.72289097  1
  O  O350  1  0.41133041  0.42283709  0.23929970  1
  O  O351  1  0.40955459  0.42946271  0.73565034  1
  O  O352  1  0.40330269  0.76656639  0.24418312  1
  O  O353  1  0.40084669  0.76806934  0.73922211  1
  O  O354  1  0.74835160  0.09593055  0.23345882  1
  O  O355  1  0.73517290  0.08416628  0.73365026  1
  O  O356  1  0.75294594  0.42233982  0.21788773  1
  O  O357  1  0.73297067  0.42522666  0.74393781  1
  O  O358  1  0.73758855  0.76493492  0.22517694  1
  O  O359  1  0.74390765  0.76217398  0.73276017  1
