# generated using pymatgen
data_BaLaInIrO6
_symmetry_space_group_name_H-M   'P 1'
_cell_length_a   17.50608819
_cell_length_b   17.54718647
_cell_length_c   16.48054311
_cell_angle_alpha   90.00323936
_cell_angle_beta   90.01904654
_cell_angle_gamma   89.95015793
_symmetry_Int_Tables_number   1
_chemical_formula_structural   BaLaInIrO6
_chemical_formula_sum   'Ba36 La36 In36 Ir36 O216'
_cell_volume   5062.53377721
_cell_formula_units_Z   36
loop_
 _symmetry_equiv_pos_site_id
 _symmetry_equiv_pos_as_xyz
  1  'x, y, z'
loop_
 _atom_site_type_symbol
 _atom_site_label
 _atom_site_symmetry_multiplicity
 _atom_site_fract_x
 _atom_site_fract_y
 _atom_site_fract_z
 _atom_site_occupancy
  Ba  Ba0  1  0.66463510  0.82739327  0.87294455  1
  Ba  Ba1  1  1.00232485  0.84548122  0.62229468  1
  Ba  Ba2  1  0.83623356  0.67553119  0.62470322  1
  Ba  Ba3  1  0.50335884  0.33882970  0.12623246  1
  Ba  Ba4  1  0.16582141  0.67955514  0.62525014  1
  Ba  Ba5  1  0.50466397  0.00804632  0.12662036  1
  Ba  Ba6  1  0.16354725  0.00721208  0.62318774  1
  Ba  Ba7  1  0.00057887  0.82484557  0.37319001  1
  Ba  Ba8  1  0.49907441  0.66187677  0.37736384  1
  Ba  Ba9  1  0.67083380  0.83981266  0.62168472  1
  Ba  Ba10  1  0.83522622  0.67551282  0.12298138  1
  Ba  Ba11  1  0.16385411  0.34211172  0.62072311  1
  Ba  Ba12  1  0.99990938  0.85078684  0.12296653  1
  Ba  Ba13  1  0.16874866  0.32332976  0.87644954  1
  Ba  Ba14  1  0.49851202  0.32703594  0.87825612  1
  Ba  Ba15  1  0.33084639  0.82760993  0.37501832  1
  Ba  Ba16  1  0.33437330  0.82696665  0.87565975  1
  Ba  Ba17  1  0.49836793  0.98968427  0.37531874  1
  Ba  Ba18  1  0.83066419  0.01047112  0.12897563  1
  Ba  Ba19  1  0.33347945  0.49451673  0.87228872  1
  Ba  Ba20  1  0.33152900  0.15869686  0.37696577  1
  Ba  Ba21  1  0.83105857  0.00898680  0.62307817  1
  Ba  Ba22  1  0.66709195  0.49229323  0.87381518  1
  Ba  Ba23  1  0.33223403  0.17339723  0.62567934  1
  Ba  Ba24  1  0.33164669  0.15798013  0.87561118  1
  Ba  Ba25  1  -0.00339564  0.48426250  0.37809637  1
  Ba  Ba26  1  0.33138524  0.84812884  0.62726549  1
  Ba  Ba27  1  0.66681089  0.82710982  0.37189511  1
  Ba  Ba28  1  0.67147542  0.17374012  0.12328638  1
  Ba  Ba29  1  0.66460986  0.16900446  0.62405611  1
  Ba  Ba30  1  0.50357995  0.99978513  0.87238558  1
  Ba  Ba31  1  0.50603253  0.65616745  0.87451336  1
  Ba  Ba32  1  -0.00462740  0.49275178  0.87446818  1
  Ba  Ba33  1  0.83094342  0.99276587  0.87607058  1
  Ba  Ba34  1  0.83132861  0.66044808  0.87074638  1
  Ba  Ba35  1  0.16229328  0.32310694  0.37662121  1
  La  La36  1  0.33653366  0.85286162  0.12592515  1
  La  La37  1  0.32558005  0.48850455  0.37586451  1
  La  La38  1  -0.00307213  0.14643071  0.37823217  1
  La  La39  1  0.49466739  0.34699891  0.62680432  1
  La  La40  1  0.99986653  0.17879763  0.12795364  1
  La  La41  1  0.66829224  0.51232273  0.12510857  1
  La  La42  1  0.84170910  0.30878712  0.37474683  1
  La  La43  1  0.16496444  0.34846027  0.13074755  1
  La  La44  1  0.66533773  0.14615391  0.37526327  1
  La  La45  1  0.50207473  0.68157734  0.12289061  1
  La  La46  1  -0.00730020  0.82041269  0.87394862  1
  La  La47  1  0.83075872  0.34404781  0.62479800  1
  La  La48  1  0.17530494  0.65195367  0.87074294  1
  La  La49  1  0.50385082  0.31419954  0.37350890  1
  La  La50  1  0.66854404  0.16102211  0.88120817  1
  La  La51  1  1.00766386  0.17741331  0.62587711  1
  La  La52  1  0.15778390  0.68006985  0.12539066  1
  La  La53  1  0.84098298  0.31620995  0.87649419  1
  La  La54  1  0.17499660  0.65117164  0.37818644  1
  La  La55  1  0.83588091  0.98252927  0.37614276  1
  La  La56  1  -0.00289304  0.15124667  0.87410209  1
  La  La57  1  0.66981748  0.85049502  0.12354113  1
  La  La58  1  1.00457834  0.51581575  0.13125272  1
  La  La59  1  0.66860256  0.51367700  0.62639281  1
  La  La60  1  0.83749698  0.65557984  0.37954509  1
  La  La61  1  0.66572191  0.48594882  0.37495583  1
  La  La62  1  0.33609238  0.51647557  0.62089499  1
  La  La63  1  0.33628749  0.17827205  0.12447513  1
  La  La64  1  0.15771991  0.01559366  0.12771397  1
  La  La65  1  0.49610881  0.68641583  0.62564072  1
  La  La66  1  0.17257529  0.98756332  0.37628478  1
  La  La67  1  0.82745023  0.34685914  0.12573144  1
  La  La68  1  0.16945037  0.98741583  0.87163025  1
  La  La69  1  0.33896703  0.51359771  0.12262864  1
  La  La70  1  1.00879270  0.51943674  0.62308607  1
  La  La71  1  0.49639788  0.01562251  0.62640723  1
  In  In72  1  0.66582997  0.33032993  0.74729071  1
  In  In73  1  0.33126678  0.00550088  0.24800046  1
  In  In74  1  0.83360793  0.49702091  0.50257487  1
  In  In75  1  0.33057441  0.66809252  0.00119454  1
  In  In76  1  0.50026904  0.49906131  0.49434063  1
  In  In77  1  0.83601961  0.83554206  0.74772751  1
  In  In78  1  0.66680958  0.66583358  0.49604873  1
  In  In79  1  0.83622502  0.49667220  0.74755747  1
  In  In80  1  0.00032098  0.33485088  0.74983206  1
  In  In81  1  0.16545895  0.49919992  0.00228033  1
  In  In82  1  0.66883021  0.66774794  0.00208550  1
  In  In83  1  0.33475362  0.67039242  0.74876047  1
  In  In84  1  0.33058335  0.66726357  0.24648439  1
  In  In85  1  0.33026132  0.33455240  0.00177681  1
  In  In86  1  0.33505666  0.33447668  0.49964674  1
  In  In87  1  0.66695071  0.32998439  0.49960331  1
  In  In88  1  0.00034981  0.66647101  0.00006296  1
  In  In89  1  0.16556126  0.16549393  0.49712210  1
  In  In90  1  0.66923406  0.00257894  -0.00130663  1
  In  In91  1  0.16614783  0.83213281  0.24931338  1
  In  In92  1  0.49864969  0.16834814  0.00274112  1
  In  In93  1  0.66631635  0.00231955  0.74515016  1
  In  In94  1  0.49775973  0.50068213  0.25131180  1
  In  In95  1  0.33229195  0.33420485  0.25072016  1
  In  In96  1  0.16472104  0.83385931  -0.00076979  1
  In  In97  1  0.50051686  0.83373038  0.25020044  1
  In  In98  1  0.49973304  0.17128425  0.75038905  1
  In  In99  1  0.00093295  0.33367846  0.00525651  1
  In  In100  1  0.83354786  0.49898401  0.25139082  1
  In  In101  1  0.50063555  0.49878648  0.74755656  1
  In  In102  1  0.66632445  0.66704867  0.74687182  1
  In  In103  1  0.16625983  0.83355379  0.50102607  1
  In  In104  1  0.49893349  0.83467521  0.00000768  1
  In  In105  1  0.83411434  0.82839664  0.24839633  1
  In  In106  1  0.67051354  0.33184914  0.25265859  1
  In  In107  1  0.16621634  0.16644864  0.75228594  1
  Ir  Ir108  1  0.83940875  0.16859543  -0.00099846  1
  Ir  Ir109  1  0.32437951  0.00191386  -0.00144626  1
  Ir  Ir110  1  0.83585270  0.83618638  0.00048873  1
  Ir  Ir111  1  0.49795822  0.83776400  0.74602057  1
  Ir  Ir112  1  0.49871817  0.83649712  0.50232889  1
  Ir  Ir113  1  0.00167460  0.00586307  0.00124800  1
  Ir  Ir114  1  0.50348123  0.16447898  0.49480590  1
  Ir  Ir115  1  -0.00692750  0.32811103  0.49767822  1
  Ir  Ir116  1  0.67504928  0.33571504  0.00047144  1
  Ir  Ir117  1  -0.00323873  0.00209719  0.49882999  1
  Ir  Ir118  1  -0.00380827  0.32715623  0.25152803  1
  Ir  Ir119  1  0.00060932  0.00220878  0.75245502  1
  Ir  Ir120  1  0.33505548  0.66781615  0.49948890  1
  Ir  Ir121  1  0.83677888  0.16480759  0.25259466  1
  Ir  Ir122  1  0.32972368  0.33799605  0.74683989  1
  Ir  Ir123  1  0.00244448  0.66670623  0.49648711  1
  Ir  Ir124  1  0.83583861  0.83460738  0.49615178  1
  Ir  Ir125  1  0.16187613  0.16622862  0.24790044  1
  Ir  Ir126  1  0.16444232  0.50158277  0.49924350  1
  Ir  Ir127  1  0.00794409  0.66821332  0.74882065  1
  Ir  Ir128  1  0.33163497  -0.00114769  0.75133958  1
  Ir  Ir129  1  0.67092146  0.00306372  0.25295407  1
  Ir  Ir130  1  0.66845725  0.66451897  0.24931818  1
  Ir  Ir131  1  0.83515699  0.49602559  0.00311477  1
  Ir  Ir132  1  0.83950498  0.16631586  0.74849813  1
  Ir  Ir133  1  0.33524250  0.00101550  0.50190861  1
  Ir  Ir134  1  0.00319093  0.66294530  0.25445745  1
  Ir  Ir135  1  -0.00035097  0.00551652  0.24991295  1
  Ir  Ir136  1  0.16533981  0.49844376  0.25415676  1
  Ir  Ir137  1  0.50560005  0.49728175  0.00603027  1
  Ir  Ir138  1  0.83537111  0.16345809  0.50033315  1
  Ir  Ir139  1  0.16001494  0.83778438  0.75389268  1
  Ir  Ir140  1  0.50281835  0.16582204  0.25329969  1
  Ir  Ir141  1  0.16640826  0.50084429  0.74453876  1
  Ir  Ir142  1  0.66676989  -0.00092656  0.49604286  1
  Ir  Ir143  1  0.16446652  0.16378025  0.00621559  1
  O  O144  1  0.30021704  0.31505316  0.12920704  1
  O  O145  1  0.31447713  0.33110978  0.62890108  1
  O  O146  1  0.29053635  0.64813610  0.12456986  1
  O  O147  1  0.31345155  0.66436540  0.61860695  1
  O  O148  1  0.29437755  0.99698802  0.11735992  1
  O  O149  1  0.31288721  1.00554460  0.62741367  1
  O  O150  1  0.65562664  0.32862988  0.12064531  1
  O  O151  1  0.62687919  0.31641637  0.62017474  1
  O  O152  1  0.63892980  0.65160827  0.13084915  1
  O  O153  1  0.63146763  0.65654905  0.61994999  1
  O  O154  1  0.65928398  0.99629661  0.13173837  1
  O  O155  1  0.63885738  0.99826657  0.61411874  1
  O  O156  1  0.96442340  0.31772464  0.13282245  1
  O  O157  1  0.96652706  0.31709439  0.61797942  1
  O  O158  1  0.98351072  0.65558842  0.13458402  1
  O  O159  1  0.98366498  0.65986876  0.62201146  1
  O  O160  1  0.97639607  1.01034038  0.12507258  1
  O  O161  1  0.97689352  0.99974768  0.62668052  1
  O  O162  1  0.19791871  0.15242079  0.12722440  1
  O  O163  1  0.17669536  0.15999021  0.62415961  1
  O  O164  1  0.19659099  0.48890582  0.13679675  1
  O  O165  1  0.19660700  0.49939562  0.62144479  1
  O  O166  1  0.20038863  0.81992366  0.12448215  1
  O  O167  1  0.17845725  0.83706325  0.63177625  1
  O  O168  1  0.51991659  0.16986338  0.13456035  1
  O  O169  1  0.51251959  0.16122852  0.61529189  1
  O  O170  1  0.53428456  0.49093198  0.12476930  1
  O  O171  1  0.53419377  0.48131053  0.61800064  1
  O  O172  1  0.53431176  0.82496984  0.12768218  1
  O  O173  1  0.51935908  0.83084099  0.62327103  1
  O  O174  1  0.86667182  0.16286755  0.12584405  1
  O  O175  1  0.87114341  0.16132447  0.62559045  1
  O  O176  1  0.86672704  0.48623613  0.12403477  1
  O  O177  1  0.87801451  0.48102808  0.62267803  1
  O  O178  1  0.85206479  0.83764332  0.12073868  1
  O  O179  1  0.85335671  0.83689594  0.61587552  1
  O  O180  1  0.13149344  0.16681713  0.36773650  1
  O  O181  1  0.13403853  0.16839057  0.88601281  1
  O  O182  1  0.14062181  0.51307163  0.37627653  1
  O  O183  1  0.14493510  0.50817402  0.86651225  1
  O  O184  1  0.15037482  0.85169661  0.37540889  1
  O  O185  1  0.12951026  0.84908939  0.87304676  1
  O  O186  1  0.48015592  0.16556628  0.37354394  1
  O  O187  1  0.48160455  0.16558570  0.87624396  1
  O  O188  1  0.45796259  0.51064132  0.37319184  1
  O  O189  1  0.48498970  0.49908224  0.88612490  1
  O  O190  1  0.48199058  0.83305183  0.38100828  1
  O  O191  1  0.48393250  0.83910039  0.86740680  1
  O  O192  1  0.80396301  0.17249835  0.37641150  1
  O  O193  1  0.80801771  0.17782472  0.87410350  1
  O  O194  1  0.80506960  0.51369560  0.37597530  1
  O  O195  1  0.81999695  0.50256860  0.88218509  1
  O  O196  1  0.81983364  0.83824494  0.37563706  1
  O  O197  1  0.82164350  0.83316717  0.88153618  1
  O  O198  1  0.03089775  0.00840551  0.37380835  1
  O  O199  1  0.03172276  0.01203817  0.87706625  1
  O  O200  1  0.01629640  0.32979663  0.37371611  1
  O  O201  1  0.01862422  0.33851388  0.87874241  1
  O  O202  1  0.03511658  0.66733027  0.37548692  1
  O  O203  1  0.03541622  0.67155359  0.86999385  1
  O  O204  1  0.34829456  -0.00024843  0.38137592  1
  O  O205  1  0.35294766  -0.00201269  0.87477998  1
  O  O206  1  0.36619660  0.34812533  0.37400655  1
  O  O207  1  0.34489768  0.33860596  0.86870347  1
  O  O208  1  0.34883211  0.66478391  0.37990650  1
  O  O209  1  0.35446048  0.66575646  0.87390432  1
  O  O210  1  0.69742025  0.00725887  0.37446572  1
  O  O211  1  0.67695409  0.02090907  0.87206886  1
  O  O212  1  0.71002196  0.34611116  0.37587930  1
  O  O213  1  0.70486353  0.33691081  0.88087564  1
  O  O214  1  0.70104040  0.67303229  0.36762611  1
  O  O215  1  0.68049164  0.66928555  0.87642652  1
  O  O216  1  0.06773838  0.10075428  0.02933444  1
  O  O217  1  0.05843966  0.09825070  0.51527156  1
  O  O218  1  0.06821450  0.42911703  0.03833498  1
  O  O219  1  0.06284172  0.42957948  0.52118461  1
  O  O220  1  0.07159127  0.76067914  0.02217966  1
  O  O221  1  0.07192582  0.75560920  0.51149928  1
  O  O222  1  0.39308855  0.09198312  0.02487437  1
  O  O223  1  0.41031743  0.08970398  0.52019566  1
  O  O224  1  0.40709664  0.43284386  0.02495294  1
  O  O225  1  0.40072543  0.43321413  0.52921111  1
  O  O226  1  0.40066308  0.76401501  0.03350641  1
  O  O227  1  0.40634069  0.76174336  0.52454442  1
  O  O228  1  0.74992699  0.09873390  0.01100692  1
  O  O229  1  0.73573580  0.09715743  0.50872510  1
  O  O230  1  0.74130011  0.42954390  0.03017465  1
  O  O231  1  0.73559138  0.42734707  0.53251479  1
  O  O232  1  0.74147978  0.76954139  0.02361494  1
  O  O233  1  0.74841877  0.76155733  0.50952588  1
  O  O234  1  0.09887136  0.25676559  0.03802260  1
  O  O235  1  0.08189131  0.25817525  0.51728954  1
  O  O236  1  0.09352693  0.59296874  0.03154826  1
  O  O237  1  0.09167476  0.59269857  0.52063729  1
  O  O238  1  0.09559694  0.94026852  0.02373589  1
  O  O239  1  0.08885820  0.93374175  0.50861006  1
  O  O240  1  0.41830779  0.25518460  0.02405647  1
  O  O241  1  0.44163301  0.26341139  0.50896928  1
  O  O242  1  0.43531197  0.58904275  0.03027355  1
  O  O243  1  0.42757632  0.60099249  0.52760815  1
  O  O244  1  0.41257612  0.92878620  0.02366418  1
  O  O245  1  0.43119502  0.93364654  0.52478625  1
  O  O246  1  0.77389749  0.26848038  0.01983547  1
  O  O247  1  0.77352305  0.25921809  0.52223984  1
  O  O248  1  0.76277454  0.58424974  0.02369888  1
  O  O249  1  0.75875868  0.59018779  0.52364440  1
  O  O250  1  0.76203540  0.92297010  0.01744784  1
  O  O251  1  0.76716087  0.93271417  0.50416761  1
  O  O252  1  0.22437592  0.07084959  0.26993917  1
  O  O253  1  0.23705692  0.06591617  0.77431915  1
  O  O254  1  0.23238316  0.40746495  0.27354332  1
  O  O255  1  0.23438567  0.40808308  0.76414421  1
  O  O256  1  0.22730907  0.72743214  0.27386540  1
  O  O257  1  0.22792050  0.74353116  0.77251011  1
  O  O258  1  0.57891099  0.07578048  0.27344947  1
  O  O259  1  0.56774978  0.07141820  0.74277032  1
  O  O260  1  0.57125372  0.40228696  0.27967891  1
  O  O261  1  0.56336264  0.39546618  0.75864634  1
  O  O262  1  0.57476672  0.72919174  0.26097791  1
  O  O263  1  0.56455205  0.74468032  0.75429676  1
  O  O264  1  0.90436764  0.07152499  0.28200503  1
  O  O265  1  0.90895087  0.07227375  0.77426586  1
  O  O266  1  0.89904158  0.39083543  0.27140766  1
  O  O267  1  0.89553817  0.39249239  0.76962331  1
  O  O268  1  0.90599213  0.72805483  0.27597514  1
  O  O269  1  0.92084750  0.74205161  0.77012350  1
  O  O270  1  0.25278121  0.23328907  0.26637733  1
  O  O271  1  0.26148284  0.24501152  0.76515081  1
  O  O272  1  0.25856204  0.56362765  0.27844356  1
  O  O273  1  0.25307746  0.57517901  0.76172597  1
  O  O274  1  0.25652823  0.91210747  0.26287042  1
  O  O275  1  0.25270960  0.90842447  0.77390845  1
  O  O276  1  0.59646361  0.23431857  0.27954326  1
  O  O277  1  0.60651880  0.22919275  0.77801283  1
  O  O278  1  0.60784768  0.56590797  0.27209459  1
  O  O279  1  0.59498088  0.56970249  0.75981425  1
  O  O280  1  0.59991448  0.91219597  0.25845879  1
  O  O281  1  0.58672448  0.90593071  0.75974727  1
  O  O282  1  0.93506663  0.22731959  0.27527889  1
  O  O283  1  0.93073436  0.22954989  0.77488663  1
  O  O284  1  0.93265800  0.57212731  0.26805417  1
  O  O285  1  0.93732544  0.57736979  0.75643472  1
  O  O286  1  0.92658355  0.91667073  0.26822060  1
  O  O287  1  0.93774003  0.90624399  0.77423975  1
  O  O288  1  0.25703828  0.24417700  0.48346375  1
  O  O289  1  0.25575702  0.22756017  0.99110148  1
  O  O290  1  0.26454268  0.57123724  0.47750484  1
  O  O291  1  0.25731969  0.57198698  0.97853604  1
  O  O292  1  0.26062734  0.91450378  0.48686012  1
  O  O293  1  0.25556535  0.91322054  0.97690516  1
  O  O294  1  0.59561591  0.23019579  0.46459266  1
  O  O295  1  0.60646486  0.24504694  0.97909842  1
  O  O296  1  0.60090652  0.56463042  0.46711843  1
  O  O297  1  0.59765484  0.56286316  0.99500806  1
  O  O298  1  0.59428712  0.90550854  0.47933409  1
  O  O299  1  0.59531102  0.90757168  0.99514442  1
  O  O300  1  0.93118729  0.22858259  0.47376983  1
  O  O301  1  0.93216766  0.23393134  0.97686427  1
  O  O302  1  0.92771548  0.58051666  0.48103003  1
  O  O303  1  0.92714387  0.56630745  0.99433949  1
  O  O304  1  0.92520117  0.91190097  0.47410610  1
  O  O305  1  0.93529935  0.90649765  0.97608451  1
  O  O306  1  0.23886932  0.06648314  0.47676131  1
  O  O307  1  0.22668305  0.06770950  0.97689037  1
  O  O308  1  0.23921309  0.41731858  0.47682383  1
  O  O309  1  0.22912883  0.39778668  0.99946129  1
  O  O310  1  0.23932561  0.73409988  0.47745569  1
  O  O311  1  0.22872907  0.73355863  0.97018549  1
  O  O312  1  0.57386375  0.06927540  0.47812049  1
  O  O313  1  0.58219826  0.08536732  0.99208190  1
  O  O314  1  0.57056767  0.39941972  0.46075741  1
  O  O315  1  0.57864363  0.40253717  0.98383869  1
  O  O316  1  0.56778986  0.74445859  0.49124232  1
  O  O317  1  0.56530790  0.73138484  0.99687713  1
  O  O318  1  0.90125205  0.06927483  0.47084818  1
  O  O319  1  0.91225720  0.07873997  0.97261166  1
  O  O320  1  0.89767069  0.39123823  0.47582789  1
  O  O321  1  0.89403204  0.39775672  0.98609834  1
  O  O322  1  0.90503156  0.73619493  0.47418604  1
  O  O323  1  0.90911518  0.74633304  0.98062108  1
  O  O324  1  0.09354520  0.26158284  0.22165989  1
  O  O325  1  0.08730649  0.25617714  0.72835102  1
  O  O326  1  0.09933688  0.59479462  0.22757526  1
  O  O327  1  0.09669722  0.59236703  0.72604408  1
  O  O328  1  0.09340626  0.93863060  0.22762671  1
  O  O329  1  0.09615289  0.93738661  0.74030279  1
  O  O330  1  0.43125199  0.25629819  0.24116783  1
  O  O331  1  0.42626323  0.27177281  0.72817727  1
  O  O332  1  0.42810509  0.59781660  0.21414170  1
  O  O333  1  0.42568446  0.59281202  0.71566374  1
  O  O334  1  0.42046313  0.92526290  0.22611332  1
  O  O335  1  0.42965279  0.93432538  0.72605424  1
  O  O336  1  0.77580246  0.26234494  0.23185339  1
  O  O337  1  0.77735268  0.26189270  0.72889470  1
  O  O338  1  0.75961254  0.59823632  0.23081505  1
  O  O339  1  0.75762059  0.58367397  0.72410617  1
  O  O340  1  0.75832470  0.92818445  0.24272251  1
  O  O341  1  0.75883993  0.92725238  0.73697251  1
  O  O342  1  0.06654175  0.10046273  0.22436096  1
  O  O343  1  0.06085011  0.09853828  0.73627324  1
  O  O344  1  0.06699239  0.42643321  0.22639391  1
  O  O345  1  0.07093615  0.43579715  0.72240799  1
  O  O346  1  0.06944316  0.75429344  0.22938748  1
  O  O347  1  0.06896983  0.76865780  0.73981652  1
  O  O348  1  0.40485086  0.10162095  0.22786277  1
  O  O349  1  0.40350087  0.08650660  0.73389039  1
  O  O350  1  0.39578958  0.43496562  0.22112555  1
  O  O351  1  0.39613241  0.43154831  0.72206302  1
  O  O352  1  0.39966990  0.76504301  0.22168212  1
  O  O353  1  0.41036221  0.76536511  0.72876359  1
  O  O354  1  0.73885557  0.10172857  0.24283055  1
  O  O355  1  0.74830807  0.10086708  0.73670711  1
  O  O356  1  0.73693109  0.43132981  0.22189031  1
  O  O357  1  0.73809143  0.42274109  0.71435979  1
  O  O358  1  0.73040250  0.76149831  0.22213714  1
  O  O359  1  0.74711863  0.75613473  0.73514109  1
