# generated using pymatgen
data_BaLaInIrO6
_symmetry_space_group_name_H-M   'P 1'
_cell_length_a   17.53907586
_cell_length_b   17.56333093
_cell_length_c   16.49103974
_cell_angle_alpha   90.03774700
_cell_angle_beta   90.01587627
_cell_angle_gamma   89.95546616
_symmetry_Int_Tables_number   1
_chemical_formula_structural   BaLaInIrO6
_chemical_formula_sum   'Ba36 La36 In36 Ir36 O216'
_cell_volume   5079.97280385
_cell_formula_units_Z   36
loop_
 _symmetry_equiv_pos_site_id
 _symmetry_equiv_pos_as_xyz
  1  'x, y, z'
loop_
 _atom_site_type_symbol
 _atom_site_label
 _atom_site_symmetry_multiplicity
 _atom_site_fract_x
 _atom_site_fract_y
 _atom_site_fract_z
 _atom_site_occupancy
  Ba  Ba0  1  0.33210656  0.16977930  0.62590348  1
  Ba  Ba1  1  0.67277632  0.50842171  0.62509612  1
  Ba  Ba2  1  0.16693214  0.32673806  0.37568859  1
  Ba  Ba3  1  0.16620789  0.00665596  0.12639380  1
  Ba  Ba4  1  -0.00215865  0.82567951  0.37536673  1
  Ba  Ba5  1  0.33099265  0.84060522  0.62355903  1
  Ba  Ba6  1  0.16603873  0.99168492  0.37192247  1
  Ba  Ba7  1  0.66491895  0.50498112  0.12520834  1
  Ba  Ba8  1  0.66952606  0.15882985  0.37235201  1
  Ba  Ba9  1  0.83133840  0.33870071  0.12314341  1
  Ba  Ba10  1  0.49346595  0.34479455  0.12525543  1
  Ba  Ba11  1  -0.00058737  0.16498873  0.37295900  1
  Ba  Ba12  1  0.66800479  0.17497883  0.12618571  1
  Ba  Ba13  1  0.50148161  0.99406337  0.37686136  1
  Ba  Ba14  1  0.00231184  0.48888519  0.37726778  1
  Ba  Ba15  1  0.33127710  0.82215375  0.37312298  1
  Ba  Ba16  1  0.33360000  0.15405591  0.87702207  1
  Ba  Ba17  1  1.00153792  0.84335552  0.12643722  1
  Ba  Ba18  1  0.83498076  0.99035574  0.87757659  1
  Ba  Ba19  1  0.66747063  0.82464343  0.87503428  1
  Ba  Ba20  1  -0.00348647  0.16050554  0.87681560  1
  Ba  Ba21  1  0.50290999  0.98885805  0.87481443  1
  Ba  Ba22  1  0.16458623  0.34503116  0.12336518  1
  Ba  Ba23  1  0.17088834  0.66345581  0.87292102  1
  Ba  Ba24  1  0.82971701  0.34049715  0.62094324  1
  Ba  Ba25  1  0.33042769  0.49509327  0.37923544  1
  Ba  Ba26  1  0.99976919  0.17909322  0.12202412  1
  Ba  Ba27  1  1.00383621  0.84260494  0.62504269  1
  Ba  Ba28  1  0.83091968  0.32624627  0.87028774  1
  Ba  Ba29  1  1.00194329  0.18175555  0.62495501  1
  Ba  Ba30  1  0.66297032  0.82275898  0.37413950  1
  Ba  Ba31  1  0.50124038  0.66041116  0.87346062  1
  Ba  Ba32  1  0.16278953  0.00804926  0.62246965  1
  Ba  Ba33  1  0.16354901  0.67248485  0.62243555  1
  Ba  Ba34  1  0.33616630  0.51366299  0.13165465  1
  Ba  Ba35  1  -0.00091568  0.82624876  0.87788979  1
  La  La36  1  0.34090134  0.17953148  0.13006116  1
  La  La37  1  0.67169311  0.85014722  0.63128790  1
  La  La38  1  0.16694567  0.98420967  0.87455260  1
  La  La39  1  0.84122486  0.32464798  0.37082989  1
  La  La40  1  0.16385296  0.68190045  0.12546554  1
  La  La41  1  0.16984423  0.66132380  0.37191572  1
  La  La42  1  0.33238587  0.84385951  0.12382858  1
  La  La43  1  0.32867025  0.82396081  0.87269073  1
  La  La44  1  0.33847050  0.51554943  0.62556589  1
  La  La45  1  0.50734029  0.31237735  0.87725198  1
  La  La46  1  0.49458478  0.01093073  0.62387396  1
  La  La47  1  0.82932624  0.68417596  0.62680417  1
  La  La48  1  0.83840345  0.65625933  0.87701366  1
  La  La49  1  0.49359538  0.34913199  0.62808576  1
  La  La50  1  0.83906659  0.64927314  0.37504661  1
  La  La51  1  0.67144900  0.84808005  0.12015413  1
  La  La52  1  0.67244973  0.17588469  0.62529717  1
  La  La53  1  0.66447899  0.47940142  0.87894465  1
  La  La54  1  0.83511909  0.01351039  0.62823246  1
  La  La55  1  0.32225330  0.15505679  0.37501222  1
  La  La56  1  0.49809862  0.68490521  0.12773647  1
  La  La57  1  0.50055210  0.65531302  0.37233548  1
  La  La58  1  0.16799078  0.31540562  0.87463190  1
  La  La59  1  0.84517627  0.98750759  0.37463593  1
  La  La60  1  0.83263207  0.67937111  0.12528493  1
  La  La61  1  0.66293076  0.14873258  0.87913291  1
  La  La62  1  0.50232382  0.31797191  0.37169044  1
  La  La63  1  0.16231207  0.34240073  0.62502549  1
  La  La64  1  0.82987812  0.01426993  0.12176500  1
  La  La65  1  0.99958603  0.50504060  0.62901093  1
  La  La66  1  -0.00226107  0.48637135  0.87407027  1
  La  La67  1  0.49879641  0.68175252  0.62329748  1
  La  La68  1  1.00663744  0.51298399  0.12306643  1
  La  La69  1  0.32958109  0.48130453  0.87699185  1
  La  La70  1  0.66391337  0.48185752  0.37348035  1
  La  La71  1  0.49756965  0.01279143  0.12568512  1
  In  In72  1  0.00000578  -0.00003205  0.00116100  1
  In  In73  1  0.66855793  0.66378685  0.75195197  1
  In  In74  1  0.33278651  0.33239623  -0.00158164  1
  In  In75  1  -0.00337190  0.66431163  0.50102875  1
  In  In76  1  0.83085761  0.83281790  0.24755422  1
  In  In77  1  0.50017629  0.49992201  0.75306086  1
  In  In78  1  0.50282105  0.83410728  0.75009100  1
  In  In79  1  0.16670143  0.50354237  -0.00369073  1
  In  In80  1  0.83333573  0.16752133  0.24871937  1
  In  In81  1  0.33506344  -0.00251313  0.24957996  1
  In  In82  1  0.66680399  0.66432933  0.00035926  1
  In  In83  1  0.66729761  -0.00203755  0.25242153  1
  In  In84  1  0.83536333  0.50047961  0.24721728  1
  In  In85  1  0.16684200  0.16793510  0.24841926  1
  In  In86  1  0.17015767  0.16218336  -0.00032048  1
  In  In87  1  0.33328299  -0.00095077  0.75108592  1
  In  In88  1  0.16665866  0.50107065  0.50273277  1
  In  In89  1  0.83409811  0.50170167  0.00139511  1
  In  In90  1  0.83146860  0.16839133  -0.00451397  1
  In  In91  1  0.16829580  0.50013397  0.75327694  1
  In  In92  1  0.50398284  0.50114673  0.50095482  1
  In  In93  1  0.33323622  0.33398305  0.50318248  1
  In  In94  1  0.83198280  0.50192066  0.74868400  1
  In  In95  1  0.82870648  0.83320702  0.50008951  1
  In  In96  1  0.49713571  0.50334016  -0.00024098  1
  In  In97  1  0.33298557  0.33676281  0.25399434  1
  In  In98  1  0.66314309  0.32956204  0.74671067  1
  In  In99  1  0.66675089  0.66609554  0.24925269  1
  In  In100  1  0.33279828  0.32997949  0.74962858  1
  In  In101  1  -0.00006847  0.00117932  0.50023766  1
  In  In102  1  0.50522261  0.83268048  0.49821597  1
  In  In103  1  0.50252301  0.16940737  0.50233099  1
  In  In104  1  0.83142824  0.16715486  0.49933965  1
  In  In105  1  0.33353956  -0.00136271  0.50152361  1
  In  In106  1  0.33609088  0.66661076  -0.00001884  1
  In  In107  1  0.16403106  0.83094967  0.74759549  1
  Ir  Ir108  1  0.66942406  0.00028497  0.50654237  1
  Ir  Ir109  1  0.33767555  0.66797390  0.74609686  1
  Ir  Ir110  1  0.83552547  0.83543794  0.75108612  1
  Ir  Ir111  1  0.49984885  0.83138317  0.24650530  1
  Ir  Ir112  1  0.16162891  0.16505758  0.74919779  1
  Ir  Ir113  1  0.49872026  0.83612433  0.00389966  1
  Ir  Ir114  1  0.16635613  0.82984991  0.49517864  1
  Ir  Ir115  1  -0.00292787  0.33646932  0.50157574  1
  Ir  Ir116  1  0.00107563  0.33417705  0.74823580  1
  Ir  Ir117  1  0.50029881  0.16092952  0.00116291  1
  Ir  Ir118  1  0.66349626  0.33532657  0.25105885  1
  Ir  Ir119  1  0.49947236  0.16681172  0.24751852  1
  Ir  Ir120  1  0.82958415  0.49937028  0.49792258  1
  Ir  Ir121  1  -0.00114621  0.00230558  0.75109655  1
  Ir  Ir122  1  0.16551094  0.16939615  0.50142096  1
  Ir  Ir123  1  0.16926319  0.83153585  0.00242547  1
  Ir  Ir124  1  -0.00448441  0.66480446  0.75473434  1
  Ir  Ir125  1  0.66339109  -0.00366317  -0.00036417  1
  Ir  Ir126  1  0.83264573  0.16536028  0.74784661  1
  Ir  Ir127  1  0.66908319  0.66376440  0.49921432  1
  Ir  Ir128  1  0.00172555  0.66581918  0.24909158  1
  Ir  Ir129  1  0.00044525  0.66858379  -0.00020147  1
  Ir  Ir130  1  0.83275884  0.83083224  -0.00042037  1
  Ir  Ir131  1  0.33560770  -0.00643342  0.00003236  1
  Ir  Ir132  1  0.33322371  0.66976512  0.25096228  1
  Ir  Ir133  1  0.00014955  0.33924736  0.24863530  1
  Ir  Ir134  1  0.50108519  0.50383385  0.25457422  1
  Ir  Ir135  1  0.00026986  0.34008053  -0.00203594  1
  Ir  Ir136  1  0.66196128  0.33050220  0.00155868  1
  Ir  Ir137  1  -0.00161217  -0.00146150  0.25017126  1
  Ir  Ir138  1  0.16572913  0.82902484  0.24982875  1
  Ir  Ir139  1  0.66407158  0.33271297  0.49377994  1
  Ir  Ir140  1  0.66967970  0.00180451  0.74789820  1
  Ir  Ir141  1  0.50840966  0.16300638  0.75182145  1
  Ir  Ir142  1  0.33534049  0.66836686  0.50095334  1
  Ir  Ir143  1  0.16594459  0.50810473  0.24875698  1
  O  O144  1  0.31731962  0.31907068  0.12686672  1
  O  O145  1  0.29664496  0.32350566  0.62786659  1
  O  O146  1  0.30335090  0.67055301  0.13173295  1
  O  O147  1  0.31161613  0.65557614  0.62391141  1
  O  O148  1  0.31559278  0.98576893  0.11960974  1
  O  O149  1  0.31208493  1.00260362  0.62681840  1
  O  O150  1  0.64013927  0.33329193  0.12715256  1
  O  O151  1  0.63058869  0.32260177  0.61543055  1
  O  O152  1  0.63037611  0.65879069  0.12483113  1
  O  O153  1  0.63494195  0.65848033  0.61639457  1
  O  O154  1  0.63376764  0.98991505  0.11891526  1
  O  O155  1  0.63383264  0.99433680  0.62713689  1
  O  O156  1  0.97945555  0.34919211  0.12248111  1
  O  O157  1  0.97453976  0.34094523  0.62543408  1
  O  O158  1  0.96950120  0.65721190  0.12353843  1
  O  O159  1  0.96390305  0.65548887  0.63466503  1
  O  O160  1  0.96933953  0.99837506  0.13134719  1
  O  O161  1  0.97250983  1.00027273  0.63063812  1
  O  O162  1  0.20401831  0.16756547  0.12370650  1
  O  O163  1  0.18149428  0.17002373  0.62555354  1
  O  O164  1  0.18270432  0.50526955  0.12829974  1
  O  O165  1  0.20082775  0.48818314  0.62996064  1
  O  O166  1  0.19562930  0.82438950  0.12702441  1
  O  O167  1  0.17976594  0.83325771  0.61678495  1
  O  O168  1  0.52282011  0.15092391  0.12339534  1
  O  O169  1  0.53791915  0.15247601  0.63256847  1
  O  O170  1  0.51728000  0.50000662  0.13535470  1
  O  O171  1  0.52728720  0.48594646  0.62577783  1
  O  O172  1  0.53129479  0.82545487  0.12534888  1
  O  O173  1  0.53689459  0.81738111  0.62229567  1
  O  O174  1  0.84732823  0.15846084  0.12282975  1
  O  O175  1  0.85317494  0.15764955  0.62811906  1
  O  O176  1  0.87035658  0.49391545  0.12415111  1
  O  O177  1  0.86182872  0.49493670  0.61831172  1
  O  O178  1  0.85514428  0.81789659  0.11814631  1
  O  O179  1  0.85551577  0.82419513  0.63115365  1
  O  O180  1  0.14932275  0.16911507  0.38242253  1
  O  O181  1  0.14324954  0.17168657  0.86751112  1
  O  O182  1  0.14932192  0.51968853  0.37033621  1
  O  O183  1  0.12937567  0.51374918  0.87316821  1
  O  O184  1  0.14558659  0.82025329  0.37168602  1
  O  O185  1  0.15331734  0.83730751  0.88062958  1
  O  O186  1  0.46786933  0.17399993  0.36778441  1
  O  O187  1  0.48125128  0.17443884  0.87551128  1
  O  O188  1  0.47971838  0.51660810  0.37370311  1
  O  O189  1  0.45973185  0.50909475  0.87398814  1
  O  O190  1  0.48188870  0.83528845  0.36763145  1
  O  O191  1  0.46719123  0.83660580  0.88265181  1
  O  O192  1  0.81862355  0.18551435  0.37405192  1
  O  O193  1  0.80121041  0.16725443  0.86749495  1
  O  O194  1  0.80087160  0.51045471  0.37766510  1
  O  O195  1  0.79959212  0.51561600  0.87639770  1
  O  O196  1  0.80980429  0.85125036  0.37347310  1
  O  O197  1  0.81415037  0.83684045  0.87549758  1
  O  O198  1  0.01401674  -0.00001248  0.36916352  1
  O  O199  1  0.02822185  0.00143340  0.87082979  1
  O  O200  1  0.01844574  0.33038554  0.37464323  1
  O  O201  1  0.03123951  0.34195249  0.87338528  1
  O  O202  1  0.03098973  0.66650950  0.36899689  1
  O  O203  1  0.02418936  0.67454984  0.87737919  1
  O  O204  1  0.35237255  0.01209929  0.37535285  1
  O  O205  1  0.35434156  -0.00803441  0.88067514  1
  O  O206  1  0.36798195  0.33533934  0.37749889  1
  O  O207  1  0.37223060  0.33858483  0.87226061  1
  O  O208  1  0.36457102  0.66972038  0.37666461  1
  O  O209  1  0.35265801  0.68689154  0.86830951  1
  O  O210  1  0.70402854  0.00026674  0.38631788  1
  O  O211  1  0.68929885  0.01049187  0.87292988  1
  O  O212  1  0.69930164  0.34093395  0.37351229  1
  O  O213  1  0.67738984  0.33357915  0.88144228  1
  O  O214  1  0.70379712  0.67113301  0.38146583  1
  O  O215  1  0.70395874  0.67443869  0.87706639  1
  O  O216  1  0.07615151  0.09200192  0.01759680  1
  O  O217  1  0.07441288  0.09883008  0.51412137  1
  O  O218  1  0.06282954  0.43694802  0.01470260  1
  O  O219  1  0.06880091  0.42376878  0.52752518  1
  O  O220  1  0.07842516  0.75848837  0.02681974  1
  O  O221  1  0.07781469  0.75680825  0.51190888  1
  O  O222  1  0.40362356  0.08943859  0.02811772  1
  O  O223  1  0.41791823  0.08855469  0.52259114  1
  O  O224  1  0.39989028  0.43239631  0.01396070  1
  O  O225  1  0.40580997  0.43220045  0.53040442  1
  O  O226  1  0.40439260  0.77237697  0.02592029  1
  O  O227  1  0.41060432  0.75263850  0.52060426  1
  O  O228  1  0.73646098  0.08332227  0.01595412  1
  O  O229  1  0.73633123  0.09021440  0.53302607  1
  O  O230  1  0.73270296  0.42289182  0.00929165  1
  O  O231  1  0.73662965  0.42627085  0.51275542  1
  O  O232  1  0.73989160  0.76602237  0.02477823  1
  O  O233  1  0.73074981  0.75930780  0.53046321  1
  O  O234  1  0.08879918  0.26832658  0.00940134  1
  O  O235  1  0.09632929  0.26917714  0.52345606  1
  O  O236  1  0.09243523  0.60273306  0.02819054  1
  O  O237  1  0.07779781  0.58019654  0.53023160  1
  O  O238  1  0.09979439  0.92291923  0.00935555  1
  O  O239  1  0.09354009  0.91917647  0.50706396  1
  O  O240  1  0.42569734  0.24568874  0.01912834  1
  O  O241  1  0.43683508  0.26848589  0.52874487  1
  O  O242  1  0.43694204  0.60812968  0.02840928  1
  O  O243  1  0.42924998  0.60050062  0.52324858  1
  O  O244  1  0.43291508  0.93032231  0.02898823  1
  O  O245  1  0.43386179  0.92703518  0.52390472  1
  O  O246  1  0.75056861  0.25986662  0.01313600  1
  O  O247  1  0.74535607  0.25444356  0.52104157  1
  O  O248  1  0.77103896  0.60237739  0.02945682  1
  O  O249  1  0.76790829  0.60039261  0.52350710  1
  O  O250  1  0.76070010  0.92578204  0.02705766  1
  O  O251  1  0.75766425  0.93094717  0.53830621  1
  O  O252  1  0.24788696  0.07859319  0.26759821  1
  O  O253  1  0.22699985  0.07048037  0.77279737  1
  O  O254  1  0.23662497  0.41811725  0.26507532  1
  O  O255  1  0.23739704  0.40281126  0.78728362  1
  O  O256  1  0.23255595  0.73198082  0.26853589  1
  O  O257  1  0.24907745  0.74128678  0.76045581  1
  O  O258  1  0.57102089  0.07675901  0.26324046  1
  O  O259  1  0.58061783  0.07415679  0.77626135  1
  O  O260  1  0.56843086  0.40818250  0.28004967  1
  O  O261  1  0.56147590  0.39187146  0.77364254  1
  O  O262  1  0.56053904  0.73301119  0.26912235  1
  O  O263  1  0.57450009  0.73789189  0.76317422  1
  O  O264  1  0.90649161  0.06614019  0.27001604  1
  O  O265  1  0.90283056  0.07128908  0.76514734  1
  O  O266  1  0.90635947  0.40447802  0.27507808  1
  O  O267  1  0.91696510  0.41268203  0.77007569  1
  O  O268  1  0.90521777  0.73112627  0.27160738  1
  O  O269  1  0.89860866  0.73519814  0.77459457  1
  O  O270  1  0.26576625  0.23720382  0.27668369  1
  O  O271  1  0.25154699  0.23400796  0.77025891  1
  O  O272  1  0.25784565  0.58241473  0.27554222  1
  O  O273  1  0.27438862  0.57203973  0.76883589  1
  O  O274  1  0.25798459  0.89850721  0.25870060  1
  O  O275  1  0.25822869  0.90460695  0.77663352  1
  O  O276  1  0.58537936  0.24647903  0.27465820  1
  O  O277  1  0.60030729  0.22765489  0.77539265  1
  O  O278  1  0.59627507  0.56851610  0.28013053  1
  O  O279  1  0.60521756  0.56060938  0.77805182  1
  O  O280  1  0.59309153  0.89932580  0.25951465  1
  O  O281  1  0.60339811  0.90911395  0.76144750  1
  O  O282  1  0.92508164  0.25188925  0.26175450  1
  O  O283  1  0.92243761  0.24079439  0.76912189  1
  O  O284  1  0.93204199  0.57827268  0.27065016  1
  O  O285  1  0.92889919  0.57519198  0.78182608  1
  O  O286  1  0.92403293  0.91191483  0.26733251  1
  O  O287  1  0.92941604  0.90882844  0.76820683  1
  O  O288  1  0.26134329  0.23265722  0.47923651  1
  O  O289  1  0.25383811  0.24346351  0.97039705  1
  O  O290  1  0.25863710  0.58463187  0.48623821  1
  O  O291  1  0.26901885  0.56845745  0.97322513  1
  O  O292  1  0.25392134  0.90222294  0.48110888  1
  O  O293  1  0.26967536  0.89591677  0.98008466  1
  O  O294  1  0.59179329  0.24733870  0.46813146  1
  O  O295  1  0.59336944  0.23245918  0.97600653  1
  O  O296  1  0.60644835  0.57008233  0.47164086  1
  O  O297  1  0.60203714  0.56204373  0.97286530  1
  O  O298  1  0.60395456  0.90890407  0.48896917  1
  O  O299  1  0.59442571  0.90259890  0.98553573  1
  O  O300  1  0.92140451  0.25174693  0.48493419  1
  O  O301  1  0.92608441  0.25211527  0.98595118  1
  O  O302  1  0.91560568  0.57030904  0.47553589  1
  O  O303  1  0.93568395  0.57656513  0.97289910  1
  O  O304  1  0.91961599  0.91115876  0.48420726  1
  O  O305  1  0.92197425  0.90241800  0.98860534  1
  O  O306  1  0.23902386  0.08227867  0.48239171  1
  O  O307  1  0.24006046  0.05635728  0.97435545  1
  O  O308  1  0.23780818  0.40749755  0.48412745  1
  O  O309  1  0.23331948  0.40409308  0.96986506  1
  O  O310  1  0.23728863  0.73479618  0.47591312  1
  O  O311  1  0.24066847  0.74334035  0.98931817  1
  O  O312  1  0.58278389  0.07267269  0.48511711  1
  O  O313  1  0.57565047  0.07289917  0.97780530  1
  O  O314  1  0.57578190  0.40395845  0.46461597  1
  O  O315  1  0.56976692  0.39805294  0.97791152  1
  O  O316  1  0.57292712  0.72535555  0.47430582  1
  O  O317  1  0.56597257  0.74467714  0.98786248  1
  O  O318  1  0.89737259  0.06807855  0.48088985  1
  O  O319  1  0.90412452  0.07272672  0.98947037  1
  O  O320  1  0.89769207  0.40382414  0.47372407  1
  O  O321  1  0.91373259  0.41221844  0.96994771  1
  O  O322  1  0.89670482  0.73099456  0.48047222  1
  O  O323  1  0.89794735  0.73298950  0.97974356  1
  O  O324  1  0.08837106  0.26526659  0.23294819  1
  O  O325  1  0.09917923  0.26714167  0.73049842  1
  O  O326  1  0.09658127  0.60096913  0.22236384  1
  O  O327  1  0.07877608  0.58830463  0.72565267  1
  O  O328  1  0.09376992  0.92396237  0.23274645  1
  O  O329  1  0.09005190  0.93175098  0.74000362  1
  O  O330  1  0.42733041  0.25183111  0.22912998  1
  O  O331  1  0.44293281  0.25785937  0.72981600  1
  O  O332  1  0.43646596  0.60616477  0.23452583  1
  O  O333  1  0.42988281  0.60111730  0.71948990  1
  O  O334  1  0.43324959  0.92439149  0.22127881  1
  O  O335  1  0.43394520  0.92965642  0.72368227  1
  O  O336  1  0.75203145  0.26425267  0.23670306  1
  O  O337  1  0.75647345  0.24973340  0.72449625  1
  O  O338  1  0.77059124  0.60209891  0.23014145  1
  O  O339  1  0.77133311  0.60443349  0.72242137  1
  O  O340  1  0.75949162  0.92688257  0.21122437  1
  O  O341  1  0.76488230  0.93214829  0.72182362  1
  O  O342  1  0.07072197  0.08756010  0.23419349  1
  O  O343  1  0.06726264  0.09469937  0.73165334  1
  O  O344  1  0.06969666  0.44021331  0.22768270  1
  O  O345  1  0.07128062  0.42269950  0.72294614  1
  O  O346  1  0.07685194  0.75299698  0.22449152  1
  O  O347  1  0.06936567  0.75161399  0.73579330  1
  O  O348  1  0.41229059  0.09382358  0.22073322  1
  O  O349  1  0.41932787  0.09235100  0.73449700  1
  O  O350  1  0.41186447  0.43287829  0.23984637  1
  O  O351  1  0.39924987  0.43113720  0.71943204  1
  O  O352  1  0.40254033  0.76415960  0.22133891  1
  O  O353  1  0.40779451  0.75627308  0.72629532  1
  O  O354  1  0.74512040  0.08595420  0.23069976  1
  O  O355  1  0.74005723  0.09414318  0.72132828  1
  O  O356  1  0.73396006  0.42615252  0.24030825  1
  O  O357  1  0.73900729  0.42278505  0.74338875  1
  O  O358  1  0.73314034  0.76390897  0.21972790  1
  O  O359  1  0.74272949  0.76892983  0.72481132  1
