# generated using pymatgen
data_BaLaInIrO6
_symmetry_space_group_name_H-M   'P 1'
_cell_length_a   17.49820790
_cell_length_b   17.53182773
_cell_length_c   16.48623237
_cell_angle_alpha   90.01216077
_cell_angle_beta   90.01626925
_cell_angle_gamma   89.92885009
_symmetry_Int_Tables_number   1
_chemical_formula_structural   BaLaInIrO6
_chemical_formula_sum   'Ba36 La36 In36 Ir36 O216'
_cell_volume   5057.56905672
_cell_formula_units_Z   36
loop_
 _symmetry_equiv_pos_site_id
 _symmetry_equiv_pos_as_xyz
  1  'x, y, z'
loop_
 _atom_site_type_symbol
 _atom_site_label
 _atom_site_symmetry_multiplicity
 _atom_site_fract_x
 _atom_site_fract_y
 _atom_site_fract_z
 _atom_site_occupancy
  Ba  Ba0  1  0.33364383  0.48989387  0.87657066  1
  Ba  Ba1  1  0.33328224  0.51115244  0.12106948  1
  Ba  Ba2  1  0.33303432  0.82295827  0.87581494  1
  Ba  Ba3  1  0.83335835  0.65872606  0.87456444  1
  Ba  Ba4  1  0.16494543  0.67179796  0.12662318  1
  Ba  Ba5  1  0.83581196  0.67745745  0.12517706  1
  Ba  Ba6  1  0.49983812  0.32802641  0.37391472  1
  Ba  Ba7  1  0.49587305  0.67885284  0.62698706  1
  Ba  Ba8  1  0.83054902  0.65724425  0.37323278  1
  Ba  Ba9  1  0.49962731  0.01181505  0.12257573  1
  Ba  Ba10  1  0.66912322  0.17517880  0.62568646  1
  Ba  Ba11  1  0.83364189  0.99832720  0.37063518  1
  Ba  Ba12  1  0.99996872  0.50868291  0.62451231  1
  Ba  Ba13  1  0.50412324  0.99175552  0.37451030  1
  Ba  Ba14  1  0.33302007  0.15870454  0.37281049  1
  Ba  Ba15  1  0.66504294  0.82365105  0.87704520  1
  Ba  Ba16  1  0.82987182  0.34060896  0.62877683  1
  Ba  Ba17  1  0.17193230  0.65307532  0.87244136  1
  Ba  Ba18  1  0.17130992  0.67251379  0.62677093  1
  Ba  Ba19  1  0.67019275  0.17157484  0.12670107  1
  Ba  Ba20  1  -0.00169996  0.82164866  0.87328049  1
  Ba  Ba21  1  0.33300479  0.17532063  0.62618061  1
  Ba  Ba22  1  1.00145962  0.17641670  0.62958326  1
  Ba  Ba23  1  0.49703104  0.32313507  0.87662054  1
  Ba  Ba24  1  1.00248860  0.84039128  0.62516323  1
  Ba  Ba25  1  0.83417419  0.99135831  0.87250653  1
  Ba  Ba26  1  0.00274217  0.82680205  0.37730510  1
  Ba  Ba27  1  0.16407013  0.33879660  0.12155562  1
  Ba  Ba28  1  0.16000284  0.34154197  0.62664306  1
  Ba  Ba29  1  0.33285402  0.82665051  0.37340423  1
  Ba  Ba30  1  0.50313614  0.65537857  0.37268895  1
  Ba  Ba31  1  0.99901571  0.17327176  0.12373942  1
  Ba  Ba32  1  0.16969946  0.00456819  0.63053236  1
  Ba  Ba33  1  0.33231419  0.49398238  0.38083888  1
  Ba  Ba34  1  0.33269843  0.15689692  0.87452661  1
  Ba  Ba35  1  0.67028321  0.50942246  0.62586315  1
  La  La36  1  0.50674419  0.98492186  0.87447714  1
  La  La37  1  0.67072717  0.83850840  0.62152035  1
  La  La38  1  0.82751713  0.01164957  0.11714253  1
  La  La39  1  1.00525986  0.51330357  0.12238043  1
  La  La40  1  0.83240227  0.01445532  0.62118036  1
  La  La41  1  0.65713589  0.15375483  0.37834218  1
  La  La42  1  1.00308497  0.84826078  0.12502362  1
  La  La43  1  -0.00065071  0.49134883  0.37106367  1
  La  La44  1  0.49012546  0.34016638  0.12510691  1
  La  La45  1  0.66068933  0.15120702  0.87624708  1
  La  La46  1  0.65746927  0.48266114  0.37582345  1
  La  La47  1  0.66864699  0.84918593  0.12218691  1
  La  La48  1  0.33566499  0.51496697  0.62891434  1
  La  La49  1  0.00416331  0.49489396  0.87057047  1
  La  La50  1  0.48888907  0.68743180  0.12232786  1
  La  La51  1  0.65917490  0.48067479  0.87312759  1
  La  La52  1  0.17400264  0.64855806  0.37834750  1
  La  La53  1  0.17059401  0.32066622  0.87254005  1
  La  La54  1  0.83122214  0.68088309  0.62689239  1
  La  La55  1  0.83186258  0.32367494  0.37746273  1
  La  La56  1  0.65402913  0.81572919  0.36805028  1
  La  La57  1  0.49573188  0.34867236  0.62815073  1
  La  La58  1  -0.00250436  0.15510477  0.87530438  1
  La  La59  1  0.49271524  0.01602521  0.62825795  1
  La  La60  1  0.83382762  0.32120298  0.87678069  1
  La  La61  1  0.66889092  0.51391237  0.12725663  1
  La  La62  1  0.16857936  0.01111746  0.12295588  1
  La  La63  1  0.33968194  0.17941652  0.12757426  1
  La  La64  1  0.50548816  0.64877559  0.87566544  1
  La  La65  1  0.17147734  0.98624454  0.87599038  1
  La  La66  1  0.33839675  0.85250340  0.62916690  1
  La  La67  1  0.16319462  0.32218015  0.38292436  1
  La  La68  1  0.33934192  0.85069881  0.12344750  1
  La  La69  1  0.82901509  0.34936272  0.12433682  1
  La  La70  1  0.16790676  0.99720589  0.37474388  1
  La  La71  1  0.00019279  0.15915992  0.38337182  1
  In  In72  1  0.16653271  0.16845415  0.24522866  1
  In  In73  1  0.66673322  0.66605754  0.50081188  1
  In  In74  1  0.33640353  0.00044375  0.49776529  1
  In  In75  1  0.83454816  0.83209081  -0.00208216  1
  In  In76  1  0.50096623  0.50075326  0.24666258  1
  In  In77  1  0.50011533  0.50029250  0.50152350  1
  In  In78  1  0.33620657  0.67211586  0.50176845  1
  In  In79  1  0.83158520  0.50035439  0.75155621  1
  In  In80  1  0.16740219  0.83350325  0.24703459  1
  In  In81  1  -0.00231176  0.33285150  0.00075440  1
  In  In82  1  0.16890488  0.82952700  0.75320991  1
  In  In83  1  0.66470555  -0.00244268  0.50173050  1
  In  In84  1  0.66942344  0.00024653  0.24833745  1
  In  In85  1  0.17113850  0.83330031  0.50095383  1
  In  In86  1  0.66550950  0.66775949  0.75239129  1
  In  In87  1  0.33173657  0.33319678  0.74964133  1
  In  In88  1  0.00139193  0.00141814  0.50204744  1
  In  In89  1  0.49906372  0.17239431  0.50201610  1
  In  In90  1  0.16464125  0.49458194  0.25028408  1
  In  In91  1  0.50173524  0.49817956  0.00275417  1
  In  In92  1  -0.00422572  0.33603975  0.50173560  1
  In  In93  1  0.83319395  0.83555558  0.24982720  1
  In  In94  1  0.33265854  0.66746918  0.24996953  1
  In  In95  1  0.16571141  0.16661269  0.50338681  1
  In  In96  1  0.83002673  0.49955455  -0.00145933  1
  In  In97  1  0.00130444  0.00377792  0.24670872  1
  In  In98  1  0.83079008  0.83685374  0.49506932  1
  In  In99  1  0.49983372  0.16648629  -0.00019202  1
  In  In100  1  0.00115318  0.00040998  -0.00159966  1
  In  In101  1  0.00168799  0.66527747  -0.00282715  1
  In  In102  1  -0.00079649  0.66833261  0.25203461  1
  In  In103  1  0.83291685  0.16824132  0.75120447  1
  In  In104  1  0.66605263  -0.00433243  0.74626936  1
  In  In105  1  0.32974574  0.33458450  0.25333644  1
  In  In106  1  0.83313912  0.50185626  0.49828745  1
  In  In107  1  0.66632877  0.32948935  0.24585361  1
  Ir  Ir108  1  0.66313527  0.66614867  0.24218286  1
  Ir  Ir109  1  0.00350059  0.66362737  0.49982232  1
  Ir  Ir110  1  0.66008781  0.66632175  0.00325076  1
  Ir  Ir111  1  0.16934182  0.16487987  -0.00323974  1
  Ir  Ir112  1  0.66699150  0.33031844  0.00057097  1
  Ir  Ir113  1  0.33775332  0.00257594  0.75706276  1
  Ir  Ir114  1  0.83031094  0.16900948  0.00017832  1
  Ir  Ir115  1  0.16706512  0.49869206  -0.00209276  1
  Ir  Ir116  1  0.82934931  0.17053809  0.49481189  1
  Ir  Ir117  1  0.50202328  0.83341725  0.24657111  1
  Ir  Ir118  1  -0.00742439  0.33607668  0.25060920  1
  Ir  Ir119  1  0.33336858  0.00048234  -0.00054989  1
  Ir  Ir120  1  0.33898108  0.66467712  0.75453198  1
  Ir  Ir121  1  0.17247507  0.83424587  0.00281132  1
  Ir  Ir122  1  0.49825685  0.83297335  0.75202631  1
  Ir  Ir123  1  0.82952552  0.49800204  0.24890146  1
  Ir  Ir124  1  0.50205852  0.16640066  0.75254815  1
  Ir  Ir125  1  0.32980361  0.33668854  0.50410946  1
  Ir  Ir126  1  0.00274064  0.33495405  0.75867289  1
  Ir  Ir127  1  0.33424403  0.66988396  -0.00104684  1
  Ir  Ir128  1  0.32871830  0.33160423  -0.00080142  1
  Ir  Ir129  1  0.33658984  -0.00191994  0.24523467  1
  Ir  Ir130  1  0.50112956  0.49804168  0.75215177  1
  Ir  Ir131  1  0.16331478  0.16401427  0.75714539  1
  Ir  Ir132  1  0.66308157  0.33121065  0.75271517  1
  Ir  Ir133  1  0.16464306  0.49928151  0.50405075  1
  Ir  Ir134  1  0.00129695  0.00156535  0.75316094  1
  Ir  Ir135  1  0.49857066  0.83374599  -0.00105732  1
  Ir  Ir136  1  0.66759198  0.33122238  0.50193916  1
  Ir  Ir137  1  0.83769307  0.83419847  0.74515028  1
  Ir  Ir138  1  0.66542661  -0.00012592  -0.00216503  1
  Ir  Ir139  1  0.50405644  0.83456415  0.50326955  1
  Ir  Ir140  1  0.83645011  0.17280334  0.25110000  1
  Ir  Ir141  1  0.00076084  0.66272860  0.74708174  1
  Ir  Ir142  1  0.50094091  0.16684604  0.24916434  1
  Ir  Ir143  1  0.16618120  0.49866235  0.75110342  1
  O  O144  1  0.31488291  0.32247781  0.11857375  1
  O  O145  1  0.30985352  0.33417775  0.62270013  1
  O  O146  1  0.31637031  0.67197957  0.11762649  1
  O  O147  1  0.32241754  0.65664619  0.63398494  1
  O  O148  1  0.30604364  0.99454396  0.12143184  1
  O  O149  1  0.32287746  0.99696038  0.63575124  1
  O  O150  1  0.62978954  0.32368962  0.11737924  1
  O  O151  1  0.63382802  0.32641455  0.62841113  1
  O  O152  1  0.62648490  0.65258991  0.12186670  1
  O  O153  1  0.64499307  0.67621915  0.62800486  1
  O  O154  1  0.64775160  0.99690323  0.11800902  1
  O  O155  1  0.62676217  0.98718442  0.62604135  1
  O  O156  1  0.96346989  0.32799572  0.13014273  1
  O  O157  1  0.98135680  0.33296385  0.63635524  1
  O  O158  1  0.98383501  0.64657345  0.12352677  1
  O  O159  1  0.96931841  0.66166290  0.62371109  1
  O  O160  1  0.96345762  0.99695226  0.12153617  1
  O  O161  1  0.96856331  1.00299675  0.63385416  1
  O  O162  1  0.20463941  0.15681343  0.11374571  1
  O  O163  1  0.18229259  0.16274289  0.63592802  1
  O  O164  1  0.18397338  0.49499518  0.11777673  1
  O  O165  1  0.19733921  0.49548022  0.62762758  1
  O  O166  1  0.20504073  0.82835863  0.11796942  1
  O  O167  1  0.20161938  0.83110007  0.63121123  1
  O  O168  1  0.51728782  0.17411862  0.12864462  1
  O  O169  1  0.51978331  0.15919535  0.63341681  1
  O  O170  1  0.53439904  0.47862482  0.12269641  1
  O  O171  1  0.51977763  0.48948446  0.63174328  1
  O  O172  1  0.53056993  0.82634027  0.12196091  1
  O  O173  1  0.53230250  0.83145670  0.62594247  1
  O  O174  1  0.85440744  0.15407694  0.12583916  1
  O  O175  1  0.85051757  0.16341926  0.61833196  1
  O  O176  1  0.86516644  0.48992149  0.12951398  1
  O  O177  1  0.85011873  0.48947343  0.62592842  1
  O  O178  1  0.86655880  0.83245465  0.12331101  1
  O  O179  1  0.85469784  0.82087061  0.62704171  1
  O  O180  1  0.14078991  0.17737006  0.37083479  1
  O  O181  1  0.13402146  0.17404432  0.87740225  1
  O  O182  1  0.13844526  0.50628851  0.38352848  1
  O  O183  1  0.13861073  0.49915185  0.87449265  1
  O  O184  1  0.15600750  0.86373343  0.37228318  1
  O  O185  1  0.14998705  0.84499218  0.88213614  1
  O  O186  1  0.48488260  0.16638242  0.36870048  1
  O  O187  1  0.48311442  0.16811629  0.87136431  1
  O  O188  1  0.48517592  0.49599385  0.37455885  1
  O  O189  1  0.48530648  0.50372499  0.87432960  1
  O  O190  1  0.48242384  0.83572156  0.37446439  1
  O  O191  1  0.47696079  0.84943014  0.87475917  1
  O  O192  1  0.79745003  0.18173874  0.37106718  1
  O  O193  1  0.79737873  0.17830942  0.88128673  1
  O  O194  1  0.79300483  0.49973212  0.36633010  1
  O  O195  1  0.79344155  0.50117146  0.87575860  1
  O  O196  1  0.78814429  0.84170741  0.37204682  1
  O  O197  1  0.81678480  0.83460211  0.86480441  1
  O  O198  1  0.03439555  0.01917223  0.37144922  1
  O  O199  1  0.03363826  0.01225525  0.87312233  1
  O  O200  1  0.02663166  0.34817192  0.36760469  1
  O  O201  1  0.03307957  0.34599010  0.87630335  1
  O  O202  1  0.03623660  0.66556592  0.38161332  1
  O  O203  1  0.02168445  0.65987164  0.86714101  1
  O  O204  1  0.35393483  -0.00249003  0.36474800  1
  O  O205  1  0.36912565  0.00279415  0.87913709  1
  O  O206  1  0.34925213  0.33571208  0.38475015  1
  O  O207  1  0.34632112  0.33242872  0.87885098  1
  O  O208  1  0.35563223  0.66538557  0.37586053  1
  O  O209  1  0.36704328  0.66662096  0.87775741  1
  O  O210  1  0.68171074  0.01346451  0.37412712  1
  O  O211  1  0.68245924  0.00662295  0.87638701  1
  O  O212  1  0.69345498  0.33978292  0.38019485  1
  O  O213  1  0.69742042  0.34083392  0.87785867  1
  O  O214  1  0.68147067  0.68042718  0.36384971  1
  O  O215  1  0.68200374  0.67096777  0.88377080  1
  O  O216  1  0.08488229  0.09026889  0.01939022  1
  O  O217  1  0.06390073  0.10328332  0.50999642  1
  O  O218  1  0.06989806  0.43405623  0.01751322  1
  O  O219  1  0.07381429  0.43170672  0.51088671  1
  O  O220  1  0.07770394  0.76958902  0.02373407  1
  O  O221  1  0.07190045  0.75241922  0.51882120  1
  O  O222  1  0.39841150  0.09482631  0.02269216  1
  O  O223  1  0.41053523  0.09170072  0.51830268  1
  O  O224  1  0.40863143  0.41553733  0.01969631  1
  O  O225  1  0.39977447  0.42624795  0.52963890  1
  O  O226  1  0.40447290  0.76494036  0.02471791  1
  O  O227  1  0.40530838  0.77491575  0.52846879  1
  O  O228  1  0.74278903  0.08894893  0.02063614  1
  O  O229  1  0.74689654  0.09382727  0.51620483  1
  O  O230  1  0.73191759  0.42334685  0.03045408  1
  O  O231  1  0.73405895  0.42333875  0.51275774  1
  O  O232  1  0.72509200  0.76107966  0.02583475  1
  O  O233  1  0.73555971  0.76544934  0.52084721  1
  O  O234  1  0.09380495  0.25324930  0.01256950  1
  O  O235  1  0.09141491  0.26525082  0.50380694  1
  O  O236  1  0.09728744  0.58712234  0.01460208  1
  O  O237  1  0.09784529  0.59421072  0.52016143  1
  O  O238  1  0.10358046  0.92629274  0.02503836  1
  O  O239  1  0.09666702  0.92813691  0.51675156  1
  O  O240  1  0.42162467  0.26034951  0.02277922  1
  O  O241  1  0.42764251  0.27247601  0.52554076  1
  O  O242  1  0.43152374  0.60266266  0.01703806  1
  O  O243  1  0.41960562  0.58701741  0.52480814  1
  O  O244  1  0.42522266  0.92589960  0.02294268  1
  O  O245  1  0.44256902  0.93009442  0.52695840  1
  O  O246  1  0.76373493  0.26582414  0.02588735  1
  O  O247  1  0.76222356  0.26380390  0.51322295  1
  O  O248  1  0.74849174  0.59347385  0.02666851  1
  O  O249  1  0.77028765  0.60252707  0.52213832  1
  O  O250  1  0.75517245  0.92712943  0.02068493  1
  O  O251  1  0.75972461  0.93079135  0.53992085  1
  O  O252  1  0.23978856  0.05924439  0.26464547  1
  O  O253  1  0.23518548  0.06981145  0.78040231  1
  O  O254  1  0.22551622  0.39391323  0.27494948  1
  O  O255  1  0.23118936  0.40501967  0.77296439  1
  O  O256  1  0.23003790  0.73266477  0.27569828  1
  O  O257  1  0.24956574  0.73436640  0.76885766  1
  O  O258  1  0.57562413  0.07936421  0.26301508  1
  O  O259  1  0.56963494  0.07285749  0.77535391  1
  O  O260  1  0.58367113  0.41011324  0.27269844  1
  O  O261  1  0.56772126  0.40075425  0.76707070  1
  O  O262  1  0.56734240  0.73484973  0.25922922  1
  O  O263  1  0.56097683  0.73733985  0.77897899  1
  O  O264  1  0.91681024  0.09476491  0.27814393  1
  O  O265  1  0.91729949  0.08030860  0.77533216  1
  O  O266  1  0.89527467  0.40283466  0.27582788  1
  O  O267  1  0.91068480  0.40302908  0.78635849  1
  O  O268  1  0.90290820  0.73783859  0.26940013  1
  O  O269  1  0.90453189  0.73288714  0.75995137  1
  O  O270  1  0.26700752  0.23166995  0.25252552  1
  O  O271  1  0.25012054  0.23914447  0.77117297  1
  O  O272  1  0.25684289  0.57153911  0.26669020  1
  O  O273  1  0.27111327  0.56465787  0.76009447  1
  O  O274  1  0.27382262  0.90437211  0.25014423  1
  O  O275  1  0.26171252  0.91724955  0.77302005  1
  O  O276  1  0.59682935  0.23092839  0.27392215  1
  O  O277  1  0.59973576  0.23072788  0.77571206  1
  O  O278  1  0.60753243  0.56798403  0.26574991  1
  O  O279  1  0.59515164  0.56553481  0.77700371  1
  O  O280  1  0.59963184  0.89650002  0.26205368  1
  O  O281  1  0.58779074  0.90281415  0.77077313  1
  O  O282  1  0.92340205  0.24752802  0.28503839  1
  O  O283  1  0.93052026  0.24388155  0.78335538  1
  O  O284  1  0.92208979  0.56181846  0.27421407  1
  O  O285  1  0.93436075  0.56992140  0.77103688  1
  O  O286  1  0.92780924  0.91125842  0.26929509  1
  O  O287  1  0.93003779  0.90917911  0.76840210  1
  O  O288  1  0.25878572  0.24697372  0.48298395  1
  O  O289  1  0.25107789  0.24483581  0.97209745  1
  O  O290  1  0.25344823  0.56928546  0.49277301  1
  O  O291  1  0.26431414  0.57258551  0.98150956  1
  O  O292  1  0.27662386  0.89888048  0.50222914  1
  O  O293  1  0.26156335  0.91033466  0.97857598  1
  O  O294  1  0.60225200  0.23906313  0.47893957  1
  O  O295  1  0.60413176  0.23518427  0.97423580  1
  O  O296  1  0.60206755  0.56568611  0.47722827  1
  O  O297  1  0.59804288  0.57180575  0.97597240  1
  O  O298  1  0.60140655  0.89252043  0.47870782  1
  O  O299  1  0.58821416  0.91043003  0.97667506  1
  O  O300  1  0.91872052  0.24255405  0.46967049  1
  O  O301  1  0.92104784  0.23714512  0.96933243  1
  O  O302  1  0.93846131  0.57005782  0.47287839  1
  O  O303  1  0.93395524  0.55956564  0.97835136  1
  O  O304  1  0.92182377  0.91350911  0.48195494  1
  O  O305  1  0.92664671  0.90982284  0.97957587  1
  O  O306  1  0.23519476  0.06832704  0.47803894  1
  O  O307  1  0.23695782  0.06701528  0.97353594  1
  O  O308  1  0.23091507  0.40259317  0.47883526  1
  O  O309  1  0.23330110  0.40181910  0.97530191  1
  O  O310  1  0.23301447  0.73109447  0.47475709  1
  O  O311  1  0.24012683  0.73960797  0.97902665  1
  O  O312  1  0.57854341  0.08122674  0.48580248  1
  O  O313  1  0.57382970  0.07127951  0.97380663  1
  O  O314  1  0.57518409  0.39856320  0.49194234  1
  O  O315  1  0.58218675  0.40313159  0.97446462  1
  O  O316  1  0.56845565  0.74290984  0.48094767  1
  O  O317  1  0.56067115  0.73274563  0.98051702  1
  O  O318  1  0.90338707  0.08512953  0.47891087  1
  O  O319  1  0.90708322  0.08449605  0.97688618  1
  O  O320  1  0.90582890  0.40912882  0.46466208  1
  O  O321  1  0.89199737  0.39359270  0.98410654  1
  O  O322  1  0.91252306  0.73224990  0.48604950  1
  O  O323  1  0.90687819  0.73665258  0.98318544  1
  O  O324  1  0.08311491  0.26690740  0.23458622  1
  O  O325  1  0.09504781  0.26096761  0.74180269  1
  O  O326  1  0.08578152  0.58438961  0.23941496  1
  O  O327  1  0.09429655  0.59135212  0.73127411  1
  O  O328  1  0.09629373  0.92801306  0.21012067  1
  O  O329  1  0.08981259  0.92842453  0.74146476  1
  O  O330  1  0.43096123  0.25799749  0.22927276  1
  O  O331  1  0.43466807  0.26196322  0.72944707  1
  O  O332  1  0.43442376  0.60039708  0.21931076  1
  O  O333  1  0.43563226  0.59563183  0.74275797  1
  O  O334  1  0.43208252  0.92761536  0.22542531  1
  O  O335  1  0.43258599  0.93241768  0.72880866  1
  O  O336  1  0.76941811  0.26530100  0.22606295  1
  O  O337  1  0.75694612  0.26499534  0.74220050  1
  O  O338  1  0.75616707  0.59061312  0.22036302  1
  O  O339  1  0.76633141  0.60247294  0.72761760  1
  O  O340  1  0.76003188  0.92857993  0.21032924  1
  O  O341  1  0.76962364  0.92589782  0.72146186  1
  O  O342  1  0.08573934  0.08755022  0.21418735  1
  O  O343  1  0.07013455  0.09479808  0.73975510  1
  O  O344  1  0.05540481  0.42925773  0.22626259  1
  O  O345  1  0.06870386  0.43269363  0.73953358  1
  O  O346  1  0.06466018  0.76924030  0.22202214  1
  O  O347  1  0.07261305  0.75185826  0.73426428  1
  O  O348  1  0.40239856  0.09981370  0.22624382  1
  O  O349  1  0.41163143  0.09286199  0.73093500  1
  O  O350  1  0.41176698  0.41790040  0.22428354  1
  O  O351  1  0.40633742  0.43109793  0.72706223  1
  O  O352  1  0.40686252  0.76922549  0.22136453  1
  O  O353  1  0.40143904  0.76571437  0.73165740  1
  O  O354  1  0.75565725  0.09197955  0.23268749  1
  O  O355  1  0.74756031  0.08503987  0.73068277  1
  O  O356  1  0.74159257  0.42855206  0.21667042  1
  O  O357  1  0.72855184  0.42424862  0.74096036  1
  O  O358  1  0.72278604  0.76366908  0.22042753  1
  O  O359  1  0.74291835  0.76893657  0.72692614  1
