# generated using pymatgen
data_BaLaInIrO6
_symmetry_space_group_name_H-M   'P 1'
_cell_length_a   17.52064354
_cell_length_b   17.54317104
_cell_length_c   16.47665252
_cell_angle_alpha   90.03675528
_cell_angle_beta   90.03028762
_cell_angle_gamma   90.00595319
_symmetry_Int_Tables_number   1
_chemical_formula_structural   BaLaInIrO6
_chemical_formula_sum   'Ba36 La36 In36 Ir36 O216'
_cell_volume   5064.38812861
_cell_formula_units_Z   36
loop_
 _symmetry_equiv_pos_site_id
 _symmetry_equiv_pos_as_xyz
  1  'x, y, z'
loop_
 _atom_site_type_symbol
 _atom_site_label
 _atom_site_symmetry_multiplicity
 _atom_site_fract_x
 _atom_site_fract_y
 _atom_site_fract_z
 _atom_site_occupancy
  Ba  Ba0  1  0.33756377  0.83917422  0.12911026  1
  Ba  Ba1  1  0.33655178  0.84401696  0.62308835  1
  Ba  Ba2  1  0.50532226  0.99125486  0.87457628  1
  Ba  Ba3  1  0.66455050  0.50845771  0.62643643  1
  Ba  Ba4  1  0.83256957  0.33795696  0.12117686  1
  Ba  Ba5  1  0.00315024  0.82514902  0.37896013  1
  Ba  Ba6  1  0.66393496  0.50352753  0.12396450  1
  Ba  Ba7  1  0.99956566  0.50922550  0.62500910  1
  Ba  Ba8  1  1.00146902  0.84082298  0.62563076  1
  Ba  Ba9  1  0.49729831  0.35173139  0.62475511  1
  Ba  Ba10  1  0.83403086  0.34224598  0.62935168  1
  Ba  Ba11  1  0.49902708  0.65535577  0.37617584  1
  Ba  Ba12  1  0.66902683  0.83943268  0.12788850  1
  Ba  Ba13  1  0.66986401  0.84474964  0.62155277  1
  Ba  Ba14  1  1.00387130  0.84276568  0.12660031  1
  Ba  Ba15  1  0.66584690  0.15289924  0.87183125  1
  Ba  Ba16  1  -0.00218958  0.16015528  0.87519578  1
  Ba  Ba17  1  0.17002181  0.00554536  0.12505261  1
  Ba  Ba18  1  0.16546263  0.67624332  0.63072308  1
  Ba  Ba19  1  0.00244128  0.49575118  0.87272953  1
  Ba  Ba20  1  0.33467109  0.17677843  0.12641383  1
  Ba  Ba21  1  0.00237998  0.49473017  0.37571163  1
  Ba  Ba22  1  0.33297582  0.82551987  0.87315230  1
  Ba  Ba23  1  0.65997727  0.82191718  0.87198751  1
  Ba  Ba24  1  0.16615883  0.67413857  0.12224592  1
  Ba  Ba25  1  0.33482906  0.51055268  0.12203531  1
  Ba  Ba26  1  0.66554968  0.17882852  0.62716367  1
  Ba  Ba27  1  0.33123630  0.82322114  0.37714175  1
  Ba  Ba28  1  0.83260792  0.67137486  0.62556181  1
  Ba  Ba29  1  0.32996577  0.49037626  0.87276727  1
  Ba  Ba30  1  0.83133755  0.00566528  0.62420170  1
  Ba  Ba31  1  0.16551475  0.00494154  0.62567573  1
  Ba  Ba32  1  0.16911096  0.99021942  0.87594327  1
  Ba  Ba33  1  0.16642070  0.33983973  0.12522887  1
  Ba  Ba34  1  0.17002580  0.98738474  0.37321935  1
  Ba  Ba35  1  0.66515657  0.49135720  0.37785803  1
  La  La36  1  0.83394933  0.32691305  0.38381668  1
  La  La37  1  0.17081810  0.65858711  0.37556954  1
  La  La38  1  0.49235921  0.01241769  0.12368423  1
  La  La39  1  1.00852600  0.18085908  0.12701083  1
  La  La40  1  0.49833162  0.01703063  0.62949897  1
  La  La41  1  0.83528453  0.64623909  0.37652702  1
  La  La42  1  -0.00354813  0.82184940  0.87441400  1
  La  La43  1  0.83065676  0.65343050  0.87426667  1
  La  La44  1  0.50258461  0.65476781  0.87486403  1
  La  La45  1  0.48645482  0.34979610  0.12434295  1
  La  La46  1  0.50382306  0.31744077  0.86917636  1
  La  La47  1  0.82915727  0.01345493  0.12424771  1
  La  La48  1  0.82812821  0.67339043  0.13003443  1
  La  La49  1  1.00784258  0.51433427  0.12579768  1
  La  La50  1  0.32528409  0.48756086  0.37660153  1
  La  La51  1  0.17322808  0.32243761  0.87203528  1
  La  La52  1  0.83371233  0.98128211  0.87240029  1
  La  La53  1  0.50261987  0.32658486  0.37754519  1
  La  La54  1  0.66710099  0.15529070  0.37820178  1
  La  La55  1  0.48941332  0.67938026  0.12399315  1
  La  La56  1  0.34327294  0.18396972  0.62524961  1
  La  La57  1  0.16699035  0.35070514  0.62594134  1
  La  La58  1  0.66457727  0.81541875  0.37882533  1
  La  La59  1  0.83207020  0.32354513  0.86920586  1
  La  La60  1  -0.00038414  0.15334503  0.37237885  1
  La  La61  1  0.83665370  0.98489860  0.37599316  1
  La  La62  1  0.50766406  0.98515864  0.37483017  1
  La  La63  1  0.49748768  0.68221222  0.62354100  1
  La  La64  1  0.66756223  0.17469890  0.12369294  1
  La  La65  1  1.00482403  0.17828811  0.62656829  1
  La  La66  1  0.17606578  0.31673170  0.37818797  1
  La  La67  1  0.65828425  0.48538876  0.87019277  1
  La  La68  1  0.32908448  0.15293816  0.87625564  1
  La  La69  1  0.34373710  0.52002138  0.62651514  1
  La  La70  1  0.17093859  0.65449198  0.87053611  1
  La  La71  1  0.33058606  0.14922511  0.37663403  1
  In  In72  1  0.16553155  0.16714339  -0.00128665  1
  In  In73  1  0.83344207  0.16743047  0.24949491  1
  In  In74  1  0.83393029  0.16674697  0.49779146  1
  In  In75  1  0.33237032  0.66818799  -0.00380562  1
  In  In76  1  0.66383577  0.66088779  0.00182811  1
  In  In77  1  0.16912522  0.83157614  0.50231815  1
  In  In78  1  0.83366123  0.49306980  0.24550189  1
  In  In79  1  0.83255349  0.82925813  0.49926403  1
  In  In80  1  0.83275445  0.16413925  0.74991456  1
  In  In81  1  0.17101701  0.16684178  0.50492658  1
  In  In82  1  0.00699427  0.33403941  0.49856014  1
  In  In83  1  0.49996998  0.17076481  0.49735620  1
  In  In84  1  -0.00356331  -0.00009881  0.00018401  1
  In  In85  1  0.16695250  0.49642913  -0.00183144  1
  In  In86  1  0.66184703  0.33206409  -0.00006784  1
  In  In87  1  0.50235048  0.83317291  -0.00041451  1
  In  In88  1  0.50131955  0.16805998  0.25409477  1
  In  In89  1  0.83248163  0.83075739  0.25140034  1
  In  In90  1  0.33507727  -0.00160643  0.00060231  1
  In  In91  1  0.50111335  0.16812082  -0.00006747  1
  In  In92  1  0.16714276  0.49832677  0.25052839  1
  In  In93  1  0.00139112  0.33421353  0.25410388  1
  In  In94  1  -0.00198702  0.66718938  0.25315713  1
  In  In95  1  0.16851449  0.16412876  0.25097429  1
  In  In96  1  0.66435029  0.66327321  0.50243046  1
  In  In97  1  -0.00084846  0.00207296  0.50011010  1
  In  In98  1  0.00294829  0.33612795  0.75191675  1
  In  In99  1  0.33506271  0.00028819  0.74717576  1
  In  In100  1  0.83264979  0.16530005  -0.00029580  1
  In  In101  1  0.66258803  0.33078527  0.24935859  1
  In  In102  1  -0.00063421  0.66552228  0.75031738  1
  In  In103  1  0.83317844  0.82871918  0.00075087  1
  In  In104  1  -0.00283086  0.66600878  -0.00216053  1
  In  In105  1  0.33407988  0.66553364  0.25259312  1
  In  In106  1  0.66263032  0.66166639  0.24806176  1
  In  In107  1  -0.00119477  0.00018141  0.75237730  1
  Ir  Ir108  1  -0.00396471  -0.00058222  0.25091630  1
  Ir  Ir109  1  0.33747795  0.33540838  0.25422837  1
  Ir  Ir110  1  0.17473813  0.17236486  0.74752132  1
  Ir  Ir111  1  0.82507626  0.50088650  0.75421494  1
  Ir  Ir112  1  0.49871015  0.49776031  -0.00536227  1
  Ir  Ir113  1  0.33547253  0.66527817  0.50269918  1
  Ir  Ir114  1  0.00269163  0.66210132  0.50028768  1
  Ir  Ir115  1  0.50470793  0.83543108  0.25630396  1
  Ir  Ir116  1  0.16635978  0.83424825  0.24821175  1
  Ir  Ir117  1  0.49677435  0.50293513  0.74981716  1
  Ir  Ir118  1  0.66435531  0.33682059  0.74901588  1
  Ir  Ir119  1  0.33949923  -0.00273956  0.25376289  1
  Ir  Ir120  1  0.66583292  0.00005504  0.24999144  1
  Ir  Ir121  1  0.33947410  0.00200166  0.49961618  1
  Ir  Ir122  1  0.66371932  0.66441893  0.75197384  1
  Ir  Ir123  1  0.33316325  0.33755630  0.49983973  1
  Ir  Ir124  1  0.33680915  0.66923128  0.74744059  1
  Ir  Ir125  1  0.82680574  0.82947092  0.75322470  1
  Ir  Ir126  1  0.49343770  0.49988814  0.50006918  1
  Ir  Ir127  1  0.17360257  0.49963095  0.74613928  1
  Ir  Ir128  1  0.66657251  -0.00187532  0.00606135  1
  Ir  Ir129  1  -0.00188578  0.33561969  -0.00284912  1
  Ir  Ir130  1  0.50133619  0.83694327  0.49892702  1
  Ir  Ir131  1  0.66298930  -0.00226335  0.74765288  1
  Ir  Ir132  1  0.49418877  0.49660477  0.25186784  1
  Ir  Ir133  1  0.16412822  0.83331141  -0.00091875  1
  Ir  Ir134  1  0.16674604  0.83243312  0.75444285  1
  Ir  Ir135  1  0.83356285  0.49710134  -0.00438604  1
  Ir  Ir136  1  0.49747095  0.17067744  0.74700551  1
  Ir  Ir137  1  0.83243052  0.49815272  0.50424966  1
  Ir  Ir138  1  0.33727092  0.33454787  -0.00450557  1
  Ir  Ir139  1  0.66385534  0.00194469  0.49461800  1
  Ir  Ir140  1  0.50248515  0.83186548  0.74381068  1
  Ir  Ir141  1  0.33443640  0.33408206  0.74960870  1
  Ir  Ir142  1  0.66898983  0.33597491  0.50101988  1
  Ir  Ir143  1  0.17283667  0.50277041  0.50369770  1
  O  O144  1  0.31618343  0.33349485  0.12363868  1
  O  O145  1  0.30318442  0.32290532  0.62458683  1
  O  O146  1  0.32130194  0.66811388  0.12553450  1
  O  O147  1  0.31383209  0.65956635  0.62425751  1
  O  O148  1  0.32232340  0.99844142  0.13405959  1
  O  O149  1  0.31771812  1.00320520  0.61890473  1
  O  O150  1  0.62081885  0.32118498  0.12349677  1
  O  O151  1  0.64337775  0.33586369  0.62424534  1
  O  O152  1  0.62213591  0.65825851  0.12510316  1
  O  O153  1  0.63488349  0.66423211  0.63143533  1
  O  O154  1  0.62990191  0.99644734  0.12897905  1
  O  O155  1  0.63117374  0.99868874  0.61859040  1
  O  O156  1  0.97994495  0.32036573  0.11746485  1
  O  O157  1  0.98656813  0.31960500  0.62496804  1
  O  O158  1  0.96555693  0.65856457  0.12369503  1
  O  O159  1  0.98342477  0.66521750  0.62165620  1
  O  O160  1  0.96515143  0.99390899  0.13151911  1
  O  O161  1  0.98372401  1.00615003  0.62791783  1
  O  O162  1  0.18592586  0.16855294  0.12541353  1
  O  O163  1  0.20892301  0.16454797  0.63028968  1
  O  O164  1  0.18844747  0.49575274  0.12391127  1
  O  O165  1  0.20701079  0.49122790  0.62483945  1
  O  O166  1  0.18749289  0.83313559  0.12405286  1
  O  O167  1  0.18639027  0.83033353  0.63346853  1
  O  O168  1  0.53021495  0.15597234  0.12938902  1
  O  O169  1  0.51593717  0.16112518  0.62519156  1
  O  O170  1  0.51672731  0.48268699  0.12262563  1
  O  O171  1  0.51577892  0.50460917  0.62564951  1
  O  O172  1  0.51977394  0.81961004  0.13622607  1
  O  O173  1  0.52237198  0.82056012  0.62103966  1
  O  O174  1  0.87109737  0.15292170  0.12485869  1
  O  O175  1  0.86678693  0.16338366  0.62354153  1
  O  O176  1  0.87153236  0.49132114  0.11217324  1
  O  O177  1  0.85146702  0.49853047  0.63114050  1
  O  O178  1  0.85698911  0.81293981  0.12640593  1
  O  O179  1  0.84668253  0.82989868  0.63278479  1
  O  O180  1  0.14117911  0.17545199  0.37679212  1
  O  O181  1  0.14961578  0.18360503  0.86710139  1
  O  O182  1  0.15415728  0.51543934  0.38493851  1
  O  O183  1  0.15331806  0.50383326  0.86619667  1
  O  O184  1  0.15560560  0.83017552  0.36877416  1
  O  O185  1  0.13511465  0.83480435  0.87775380  1
  O  O186  1  0.46166636  0.18451414  0.37635871  1
  O  O187  1  0.46706748  0.17415341  0.86678877  1
  O  O188  1  0.46279787  0.49891005  0.37581048  1
  O  O189  1  0.47596052  0.51600433  0.87240397  1
  O  O190  1  0.47846448  0.85051544  0.37745644  1
  O  O191  1  0.48465684  0.83539778  0.86297934  1
  O  O192  1  0.79722097  0.18681682  0.37298134  1
  O  O193  1  0.81086948  0.18695710  0.87524918  1
  O  O194  1  0.81561321  0.50361861  0.38434836  1
  O  O195  1  0.79462426  0.50795337  0.87532058  1
  O  O196  1  0.79646630  0.84932876  0.37357693  1
  O  O197  1  0.80547309  0.83931541  0.87099567  1
  O  O198  1  0.02254913  0.01249611  0.36833878  1
  O  O199  1  0.02264707  0.00492374  0.87478149  1
  O  O200  1  0.04517110  0.34284884  0.37756368  1
  O  O201  1  0.03447719  0.34154466  0.87774465  1
  O  O202  1  0.03395348  0.66098053  0.38316161  1
  O  O203  1  0.03425406  0.66982040  0.87250333  1
  O  O204  1  0.36963963  0.00705245  0.37786218  1
  O  O205  1  0.35496879  0.00995403  0.87176145  1
  O  O206  1  0.36642716  0.34863977  0.37731548  1
  O  O207  1  0.36759351  0.33670253  0.87249533  1
  O  O208  1  0.35103901  0.66530549  0.38357779  1
  O  O209  1  0.36644373  0.67031501  0.86609429  1
  O  O210  1  0.69833194  0.01230754  0.37167797  1
  O  O211  1  0.69565305  -0.00150822  0.87961934  1
  O  O212  1  0.69746117  0.33778988  0.38263940  1
  O  O213  1  0.69263593  0.34460984  0.86924624  1
  O  O214  1  0.69303791  0.66622216  0.37533550  1
  O  O215  1  0.69162199  0.66211270  0.87100918  1
  O  O216  1  0.06419627  0.10064625  0.02436632  1
  O  O217  1  0.06502822  0.10805445  0.51989821  1
  O  O218  1  0.06224815  0.42625807  0.02186508  1
  O  O219  1  0.08638079  0.43211636  0.52596548  1
  O  O220  1  0.07401481  0.76475574  0.01169469  1
  O  O221  1  0.07267482  0.75114093  0.51531703  1
  O  O222  1  0.41259617  0.09221246  0.02042372  1
  O  O223  1  0.40239637  0.09718234  0.52000982  1
  O  O224  1  0.40693235  0.42728946  0.01639935  1
  O  O225  1  0.39455533  0.43715095  0.52159840  1
  O  O226  1  0.41097699  0.75675449  0.01586509  1
  O  O227  1  0.41032421  0.75716592  0.52269730  1
  O  O228  1  0.73316259  0.08831582  0.03449149  1
  O  O229  1  0.72860247  0.09611674  0.51019646  1
  O  O230  1  0.74418159  0.42657641  0.01157961  1
  O  O231  1  0.74037579  0.42741398  0.52226005  1
  O  O232  1  0.74579557  0.74644837  0.02291493  1
  O  O233  1  0.73561885  0.76066004  0.50752470  1
  O  O234  1  0.08799548  0.26482455  0.01153621  1
  O  O235  1  0.11129335  0.26991241  0.52603484  1
  O  O236  1  0.08169807  0.58285098  0.01949021  1
  O  O237  1  0.10226323  0.59423555  0.52064286  1
  O  O238  1  0.09625781  0.92415019  0.01679514  1
  O  O239  1  0.09235803  0.92316520  0.50920444  1
  O  O240  1  0.43062050  0.27068678  0.01748718  1
  O  O241  1  0.42209030  0.26685609  0.52139817  1
  O  O242  1  0.43816136  0.59443520  0.01602595  1
  O  O243  1  0.42908495  0.59641436  0.52847382  1
  O  O244  1  0.43449559  0.93029020  0.02373652  1
  O  O245  1  0.43897139  0.93809632  0.52030225  1
  O  O246  1  0.74673374  0.24880144  0.02602824  1
  O  O247  1  0.75874759  0.26689359  0.51810382  1
  O  O248  1  0.76743802  0.58874881  0.02434412  1
  O  O249  1  0.76209545  0.58813423  0.51487292  1
  O  O250  1  0.76178293  0.93325264  0.02484951  1
  O  O251  1  0.75229158  0.93439626  0.51078833  1
  O  O252  1  0.25387772  0.07452438  0.27405436  1
  O  O253  1  0.24404137  0.08471579  0.77180849  1
  O  O254  1  0.24175765  0.40026800  0.28228975  1
  O  O255  1  0.23739248  0.39742290  0.76776367  1
  O  O256  1  0.23324158  0.73967188  0.26741940  1
  O  O257  1  0.23872787  0.73610332  0.77623873  1
  O  O258  1  0.57642962  0.06887308  0.28128226  1
  O  O259  1  0.56430675  0.07067511  0.75742932  1
  O  O260  1  0.55624634  0.39988638  0.27173028  1
  O  O261  1  0.56728409  0.40932893  0.77668584  1
  O  O262  1  0.57729994  0.75023740  0.28135948  1
  O  O263  1  0.56515619  0.72920110  0.76734222  1
  O  O264  1  0.90146305  0.06395189  0.27392050  1
  O  O265  1  0.89627506  0.06470641  0.77856117  1
  O  O266  1  0.89712167  0.39294877  0.27787460  1
  O  O267  1  0.89700762  0.41072349  0.77452245  1
  O  O268  1  0.90121406  0.73322053  0.28564516  1
  O  O269  1  0.89763864  0.73934784  0.77588048  1
  O  O270  1  0.27188588  0.24194089  0.28119836  1
  O  O271  1  0.27206347  0.23786920  0.77535076  1
  O  O272  1  0.26290017  0.57083007  0.27922515  1
  O  O273  1  0.26180867  0.57967771  0.76859800  1
  O  O274  1  0.26463584  0.90799700  0.26737085  1
  O  O275  1  0.25643298  0.90447104  0.76380760  1
  O  O276  1  0.59330383  0.23848865  0.29132140  1
  O  O277  1  0.58893955  0.24716820  0.77194016  1
  O  O278  1  0.58498281  0.56285936  0.26728831  1
  O  O279  1  0.59250349  0.57184044  0.77821637  1
  O  O280  1  0.59903802  0.90687527  0.28163559  1
  O  O281  1  0.59295961  0.90481438  0.76133269  1
  O  O282  1  0.93322032  0.23178969  0.27699798  1
  O  O283  1  0.92394818  0.24701451  0.76786579  1
  O  O284  1  0.92139714  0.57202858  0.26895476  1
  O  O285  1  0.91178791  0.57595166  0.77206826  1
  O  O286  1  0.92607332  0.91158004  0.27508833  1
  O  O287  1  0.91987980  0.89661114  0.77443402  1
  O  O288  1  0.27144912  0.24191174  0.47263045  1
  O  O289  1  0.26836978  0.24415618  0.97008972  1
  O  O290  1  0.27091245  0.56795773  0.48302742  1
  O  O291  1  0.25158481  0.58215178  0.97362400  1
  O  O292  1  0.26902873  0.91181440  0.48641123  1
  O  O293  1  0.25611568  0.90221006  0.98791577  1
  O  O294  1  0.59885999  0.24452352  0.47523325  1
  O  O295  1  0.58480348  0.24473725  0.96390739  1
  O  O296  1  0.58378260  0.56965671  0.48518366  1
  O  O297  1  0.59323332  0.56157320  0.97207970  1
  O  O298  1  0.59505148  0.90584097  0.46849126  1
  O  O299  1  0.59996278  0.90768772  0.98736386  1
  O  O300  1  0.93189088  0.23985778  0.46733291  1
  O  O301  1  0.92452076  0.25075032  0.97743017  1
  O  O302  1  0.92305560  0.57312134  0.48087416  1
  O  O303  1  0.91303042  0.57294632  0.96928418  1
  O  O304  1  0.91743872  0.91119994  0.48069787  1
  O  O305  1  0.92795363  0.90036746  0.97036326  1
  O  O306  1  0.25064949  0.07416031  0.47656575  1
  O  O307  1  0.24783194  0.08142631  0.97901348  1
  O  O308  1  0.23822527  0.40582802  0.47470873  1
  O  O309  1  0.23977925  0.39689458  0.97352927  1
  O  O310  1  0.23925181  0.73000778  0.48065424  1
  O  O311  1  0.23050553  0.74083949  0.97284814  1
  O  O312  1  0.57110874  0.07097872  0.47208143  1
  O  O313  1  0.57875151  0.06912265  0.98847043  1
  O  O314  1  0.56463101  0.40372979  0.47717392  1
  O  O315  1  0.56532626  0.40642173  0.96695941  1
  O  O316  1  0.57089142  0.74645689  0.48039249  1
  O  O317  1  0.56671368  0.73117802  0.97567338  1
  O  O318  1  0.90338019  0.07368919  0.46210003  1
  O  O319  1  0.88891311  0.05984464  0.98001038  1
  O  O320  1  0.90299034  0.40671416  0.48388607  1
  O  O321  1  0.90104907  0.40264331  0.96760989  1
  O  O322  1  0.90790491  0.72729464  0.47617519  1
  O  O323  1  0.90751682  0.73767048  0.95814636  1
  O  O324  1  0.09224773  0.25633739  0.23252481  1
  O  O325  1  0.10907715  0.26480058  0.72612368  1
  O  O326  1  0.09187281  0.59376297  0.23449916  1
  O  O327  1  0.09858894  0.58717615  0.73745038  1
  O  O328  1  0.09377799  0.93080802  0.23404255  1
  O  O329  1  0.09610446  0.92091310  0.73731920  1
  O  O330  1  0.43194114  0.27122060  0.22938349  1
  O  O331  1  0.42786656  0.26439054  0.72751028  1
  O  O332  1  0.43435208  0.59302266  0.22690426  1
  O  O333  1  0.43111582  0.59944185  0.72249288  1
  O  O334  1  0.43861429  0.93139619  0.23228436  1
  O  O335  1  0.43790164  0.92819555  0.72264875  1
  O  O336  1  0.74760641  0.24788246  0.21671706  1
  O  O337  1  0.75321909  0.26464666  0.73601145  1
  O  O338  1  0.76278930  0.59251153  0.22573831  1
  O  O339  1  0.75690779  0.59595595  0.73554774  1
  O  O340  1  0.75984544  0.93693143  0.22535693  1
  O  O341  1  0.75979188  0.92852780  0.73769644  1
  O  O342  1  0.06121021  0.09403793  0.23024608  1
  O  O343  1  0.07867548  0.10964978  0.72572615  1
  O  O344  1  0.06512137  0.43421167  0.22451673  1
  O  O345  1  0.08602814  0.42627695  0.72542660  1
  O  O346  1  0.07752409  0.76409110  0.23640811  1
  O  O347  1  0.07488620  0.76471822  0.74237640  1
  O  O348  1  0.41107361  0.08550990  0.23678107  1
  O  O349  1  0.40658702  0.10182890  0.72321308  1
  O  O350  1  0.40001137  0.43137971  0.23534215  1
  O  O351  1  0.39892767  0.43490121  0.72631567  1
  O  O352  1  0.41856070  0.75838427  0.24209107  1
  O  O353  1  0.41330875  0.75584708  0.72079420  1
  O  O354  1  0.73122487  0.09081652  0.22268206  1
  O  O355  1  0.73254866  0.08668253  0.73307768  1
  O  O356  1  0.73615511  0.42289298  0.23230575  1
  O  O357  1  0.73172386  0.43178398  0.73879310  1
  O  O358  1  0.74051030  0.75335582  0.23124705  1
  O  O359  1  0.73422122  0.75631907  0.73110155  1
