# generated using pymatgen
data_BaLaInIrO6
_symmetry_space_group_name_H-M   'P 1'
_cell_length_a   17.50821061
_cell_length_b   17.53211459
_cell_length_c   16.47737497
_cell_angle_alpha   90.02207047
_cell_angle_beta   89.99469537
_cell_angle_gamma   89.93353999
_symmetry_Int_Tables_number   1
_chemical_formula_structural   BaLaInIrO6
_chemical_formula_sum   'Ba36 La36 In36 Ir36 O216'
_cell_volume   5057.82456233
_cell_formula_units_Z   36
loop_
 _symmetry_equiv_pos_site_id
 _symmetry_equiv_pos_as_xyz
  1  'x, y, z'
loop_
 _atom_site_type_symbol
 _atom_site_label
 _atom_site_symmetry_multiplicity
 _atom_site_fract_x
 _atom_site_fract_y
 _atom_site_fract_z
 _atom_site_occupancy
  Ba  Ba0  1  0.66449023  0.15343240  0.37456776  1
  Ba  Ba1  1  0.66946038  0.17466276  0.62023439  1
  Ba  Ba2  1  -0.00242397  0.48867915  0.87635041  1
  Ba  Ba3  1  0.33344254  0.83600891  0.12775375  1
  Ba  Ba4  1  0.33364852  0.50306522  0.62252392  1
  Ba  Ba5  1  0.66179766  0.49170317  0.87337563  1
  Ba  Ba6  1  0.50071471  0.67068893  0.12362731  1
  Ba  Ba7  1  1.00203570  0.17832937  0.12054675  1
  Ba  Ba8  1  0.66612923  0.50964564  0.12185899  1
  Ba  Ba9  1  0.50197931  0.32704540  0.87240587  1
  Ba  Ba10  1  0.66681228  0.50804540  0.62750498  1
  Ba  Ba11  1  0.66854948  0.84266955  0.62376969  1
  Ba  Ba12  1  0.33020460  0.49021214  0.37290235  1
  Ba  Ba13  1  0.50021902  0.00755492  0.12789413  1
  Ba  Ba14  1  0.33131227  0.49540582  0.87649456  1
  Ba  Ba15  1  0.16801803  0.00818792  0.62372493  1
  Ba  Ba16  1  0.33748146  0.83882015  0.62427316  1
  Ba  Ba17  1  0.83780022  0.98907722  0.37469354  1
  Ba  Ba18  1  0.66591549  0.15938595  0.87013395  1
  Ba  Ba19  1  0.50119827  0.67046766  0.62556138  1
  Ba  Ba20  1  0.16724655  0.65754525  0.38035354  1
  Ba  Ba21  1  1.00314349  0.85003124  0.62350942  1
  Ba  Ba22  1  0.16782322  0.67182670  0.12915175  1
  Ba  Ba23  1  0.33416668  0.17105780  0.62596339  1
  Ba  Ba24  1  0.50136026  0.33645488  0.12661958  1
  Ba  Ba25  1  0.49771920  0.65906065  0.87376699  1
  Ba  Ba26  1  0.33748826  0.82531510  0.37707932  1
  Ba  Ba27  1  0.16859089  0.32207515  0.37414876  1
  Ba  Ba28  1  0.33467209  0.82779428  0.87509108  1
  Ba  Ba29  1  -0.00541962  0.15320054  0.37401973  1
  Ba  Ba30  1  0.16764441  0.99210334  0.87739398  1
  Ba  Ba31  1  0.49786862  0.65819725  0.37530961  1
  Ba  Ba32  1  0.83936250  0.99312190  0.87196422  1
  Ba  Ba33  1  0.49899054  0.00707346  0.62464122  1
  Ba  Ba34  1  0.33512102  0.17046282  0.12339030  1
  Ba  Ba35  1  0.49651182  0.31938996  0.37357705  1
  La  La36  1  0.16569703  0.98882097  0.37739967  1
  La  La37  1  0.17332065  0.65617088  0.87597984  1
  La  La38  1  0.49675234  0.99533638  0.38037503  1
  La  La39  1  0.66083694  0.17209874  0.12728170  1
  La  La40  1  -0.00509432  0.48462551  0.37492965  1
  La  La41  1  0.16590661  0.34382428  0.62348003  1
  La  La42  1  0.33218922  0.15303409  0.87640212  1
  La  La43  1  0.82600665  0.34785307  0.12214508  1
  La  La44  1  -0.00933641  0.81927050  0.37409837  1
  La  La45  1  0.82442035  0.68594219  0.12563167  1
  La  La46  1  0.67453652  0.85404956  0.12957972  1
  La  La47  1  1.00673371  0.17812796  0.62334233  1
  La  La48  1  0.33969351  0.51088824  0.12897368  1
  La  La49  1  -0.00535286  0.15125130  0.87099024  1
  La  La50  1  1.00619923  0.85120904  0.12934981  1
  La  La51  1  1.00006745  0.51413136  0.12592574  1
  La  La52  1  0.50124565  0.99010264  0.87373833  1
  La  La53  1  -0.00326743  0.81919345  0.87401639  1
  La  La54  1  1.00409175  0.51469636  0.62613381  1
  La  La55  1  0.83048936  0.34946488  0.62108075  1
  La  La56  1  0.83586483  0.64999629  0.87512118  1
  La  La57  1  0.82725490  0.02146328  0.13131033  1
  La  La58  1  0.16481035  0.68528920  0.62777394  1
  La  La59  1  0.66053696  0.82464763  0.87436191  1
  La  La60  1  0.33154279  0.15683043  0.37174276  1
  La  La61  1  0.82468712  0.68590947  0.62742084  1
  La  La62  1  0.83668479  0.31910255  0.87112918  1
  La  La63  1  0.17266530  0.32064770  0.87336229  1
  La  La64  1  0.65625164  0.48168885  0.37580134  1
  La  La65  1  0.66226365  0.82513265  0.37461998  1
  La  La66  1  0.16441905  0.34816770  0.12480053  1
  La  La67  1  0.83754774  0.31766004  0.37448996  1
  La  La68  1  0.82976527  0.01733248  0.62036569  1
  La  La69  1  0.16014535  0.01464849  0.13171812  1
  La  La70  1  0.83819079  0.65058399  0.38062167  1
  La  La71  1  0.50096436  0.34018675  0.62630321  1
  In  In72  1  0.49691256  0.49818892  0.74898617  1
  In  In73  1  0.66856293  0.32945679  0.25154541  1
  In  In74  1  0.33225310  0.33250696  0.00012476  1
  In  In75  1  0.50369968  0.83310607  0.24765419  1
  In  In76  1  0.49859494  0.49812280  0.00214736  1
  In  In77  1  -0.00076506  -0.00081797  0.00092695  1
  In  In78  1  0.67031504  0.00427061  -0.00058746  1
  In  In79  1  0.83075024  0.50088426  0.25046672  1
  In  In80  1  0.16372708  0.83341415  0.00276314  1
  In  In81  1  0.16284087  0.49880055  0.75079793  1
  In  In82  1  0.33167162  0.66146280  0.50236309  1
  In  In83  1  0.66995964  0.33024514  0.74557463  1
  In  In84  1  0.50246198  0.83299060  0.49934565  1
  In  In85  1  0.67033016  0.66592390  0.75272916  1
  In  In86  1  0.16437408  0.16738665  0.74818117  1
  In  In87  1  -0.00103725  0.66847930  0.74959510  1
  In  In88  1  0.83538366  0.17087029  -0.00088367  1
  In  In89  1  0.16502286  0.16998953  -0.00132411  1
  In  In90  1  0.33246220  0.00222412  0.50063867  1
  In  In91  1  0.67080820  0.66439073  0.49702764  1
  In  In92  1  -0.00383166  0.66513899  0.50265308  1
  In  In93  1  0.33056611  -0.00194995  0.25120589  1
  In  In94  1  -0.00184708  0.33298738  0.24534611  1
  In  In95  1  0.16247643  0.49995729  0.25119976  1
  In  In96  1  0.33186609  0.32822470  0.50049339  1
  In  In97  1  -0.00113141  0.33373910  0.50163097  1
  In  In98  1  0.16327681  0.83091413  0.25444614  1
  In  In99  1  -0.00258403  0.66881786  0.00308729  1
  In  In100  1  0.67185647  0.00154461  0.74838286  1
  In  In101  1  0.33238377  0.66854576  0.00129365  1
  In  In102  1  0.66977921  0.33086589  -0.00284321  1
  In  In103  1  0.83477094  0.83632118  -0.00237802  1
  In  In104  1  0.50144758  0.83244310  0.75156904  1
  In  In105  1  0.16294589  0.83403437  0.49937974  1
  In  In106  1  0.33234095  -0.00306655  0.00211783  1
  In  In107  1  0.66968289  0.66603046  0.25230264  1
  Ir  Ir108  1  -0.00345296  0.00103293  0.25140453  1
  Ir  Ir109  1  0.16365514  0.16597694  0.49645885  1
  Ir  Ir110  1  0.83409430  0.83718057  0.49781624  1
  Ir  Ir111  1  0.83913143  0.49788310  0.74961269  1
  Ir  Ir112  1  0.83247491  0.49799431  0.50060112  1
  Ir  Ir113  1  0.83643588  0.83576769  0.25156927  1
  Ir  Ir114  1  0.83649706  0.49934755  -0.00298744  1
  Ir  Ir115  1  0.33424440  0.00176455  0.75313000  1
  Ir  Ir116  1  0.16104876  0.49789040  0.00223756  1
  Ir  Ir117  1  0.33174651  0.32900525  0.74941847  1
  Ir  Ir118  1  0.49839270  0.49522651  0.25455090  1
  Ir  Ir119  1  0.50254951  0.49250482  0.49572764  1
  Ir  Ir120  1  0.33323387  0.66234699  0.25236285  1
  Ir  Ir121  1  0.67191365  0.00136064  0.49614242  1
  Ir  Ir122  1  0.49581529  0.16572903  0.75030328  1
  Ir  Ir123  1  -0.00133665  0.33316132  0.74985773  1
  Ir  Ir124  1  0.67044461  0.33216096  0.49909632  1
  Ir  Ir125  1  0.16348993  0.83774052  0.75149152  1
  Ir  Ir126  1  0.83619636  0.83637138  0.74882474  1
  Ir  Ir127  1  0.83594709  0.16698200  0.49969847  1
  Ir  Ir128  1  0.16458358  0.16607647  0.25285354  1
  Ir  Ir129  1  -0.00175942  0.00101439  0.74557487  1
  Ir  Ir130  1  0.49923795  0.16327116  0.25210168  1
  Ir  Ir131  1  -0.00250166  0.00351970  0.49902976  1
  Ir  Ir132  1  0.67101397  0.00226629  0.25330513  1
  Ir  Ir133  1  0.67186515  0.67162941  0.00245070  1
  Ir  Ir134  1  0.50301033  0.16756447  0.50185869  1
  Ir  Ir135  1  0.83482373  0.16803900  0.25223266  1
  Ir  Ir136  1  0.84264859  0.16885679  0.74307155  1
  Ir  Ir137  1  0.16140990  0.49722384  0.50448753  1
  Ir  Ir138  1  0.49974108  0.16395985  -0.00286089  1
  Ir  Ir139  1  0.32939112  0.32710977  0.24862076  1
  Ir  Ir140  1  -0.00950182  0.66673594  0.25244084  1
  Ir  Ir141  1  0.50875708  0.83313790  0.00119593  1
  Ir  Ir142  1  0.32701846  0.66685733  0.75101049  1
  Ir  Ir143  1  -0.00023057  0.33788959  -0.00479383  1
  O  O144  1  0.29952233  0.32268870  0.12940790  1
  O  O145  1  0.30064951  0.32434680  0.62963737  1
  O  O146  1  0.31953629  0.66485297  0.13204961  1
  O  O147  1  0.30047504  0.66577154  0.63239898  1
  O  O148  1  0.29791695  1.00216873  0.12734150  1
  O  O149  1  0.31864985  1.00202694  0.63178269  1
  O  O150  1  0.66097818  0.31020244  0.12460342  1
  O  O151  1  0.64064610  0.32975948  0.61736193  1
  O  O152  1  0.65291955  0.66634691  0.12175331  1
  O  O153  1  0.65862537  0.66842108  0.62349659  1
  O  O154  1  0.65250161  1.00428482  0.13271262  1
  O  O155  1  0.65362756  1.00486911  0.61670833  1
  O  O156  1  0.96319683  0.33466853  0.11433079  1
  O  O157  1  0.96646966  0.32078694  0.63019345  1
  O  O158  1  0.95946183  0.65345099  0.13273057  1
  O  O159  1  0.95830105  0.65418851  0.62547689  1
  O  O160  1  0.96259905  0.98981741  0.13221206  1
  O  O161  1  0.96704635  1.00252384  0.62217652  1
  O  O162  1  0.18403028  0.15585525  0.13245823  1
  O  O163  1  0.18099186  0.16642059  0.61762329  1
  O  O164  1  0.19264380  0.48622524  0.12064660  1
  O  O165  1  0.18297879  0.48228889  0.62336693  1
  O  O166  1  0.18163830  0.82598915  0.13119233  1
  O  O167  1  0.18553654  0.83188893  0.63204187  1
  O  O168  1  0.52809147  0.16091696  0.12424481  1
  O  O169  1  0.52342412  0.16480250  0.62538566  1
  O  O170  1  0.51563581  0.49895200  0.13588945  1
  O  O171  1  0.51804197  0.48504532  0.61517796  1
  O  O172  1  0.53757252  0.82783536  0.12006870  1
  O  O173  1  0.51709253  0.83321165  0.62647288  1
  O  O174  1  0.85177697  0.16318099  0.13190904  1
  O  O175  1  0.87030054  0.15798357  0.62111315  1
  O  O176  1  0.86570715  0.48582798  0.11831006  1
  O  O177  1  0.86956984  0.48538965  0.62522118  1
  O  O178  1  0.86999468  0.82277633  0.13207844  1
  O  O179  1  0.85942813  0.82157294  0.62260746  1
  O  O180  1  0.14019932  0.17100508  0.37557402  1
  O  O181  1  0.12729506  0.18284940  0.87106070  1
  O  O182  1  0.13265618  0.50090670  0.38144120  1
  O  O183  1  0.14439653  0.51409342  0.88017832  1
  O  O184  1  0.12412795  0.83806271  0.37522077  1
  O  O185  1  0.13200652  0.83727059  0.87072937  1
  O  O186  1  0.47141193  0.16403404  0.37663848  1
  O  O187  1  0.46838670  0.16991477  0.87414706  1
  O  O188  1  0.48100856  0.49362816  0.37496587  1
  O  O189  1  0.48181895  0.49645919  0.87531986  1
  O  O190  1  0.49301376  0.85702163  0.37264499  1
  O  O191  1  0.48853551  0.84604759  0.88243216  1
  O  O192  1  0.81236147  0.17991517  0.37669654  1
  O  O193  1  0.82080001  0.17725216  0.86408748  1
  O  O194  1  0.79598769  0.51129802  0.38282283  1
  O  O195  1  0.81065646  0.51130605  0.87258810  1
  O  O196  1  0.80208814  0.84020079  0.37556946  1
  O  O197  1  0.80080342  0.84310747  0.86695209  1
  O  O198  1  0.02828814  0.00283849  0.37476312  1
  O  O199  1  0.01655660  0.01077133  0.86684762  1
  O  O200  1  0.01913219  0.34704716  0.37523931  1
  O  O201  1  0.03563708  0.33912114  0.87201687  1
  O  O202  1  0.01502255  0.67644763  0.37207441  1
  O  O203  1  0.03458320  0.67697212  0.87523367  1
  O  O204  1  0.36100065  0.01971044  0.37519038  1
  O  O205  1  0.36268156  0.00726465  0.87276854  1
  O  O206  1  0.34617128  0.32782659  0.36960344  1
  O  O207  1  0.35169475  0.33910260  0.86748334  1
  O  O208  1  0.34443916  0.65410243  0.37101752  1
  O  O209  1  0.34275479  0.66423658  0.87049480  1
  O  O210  1  0.69062570  -0.00439876  0.37440724  1
  O  O211  1  0.69215837  0.00589981  0.87433682  1
  O  O212  1  0.70104695  0.34102810  0.37906382  1
  O  O213  1  0.69805510  0.32831543  0.87039016  1
  O  O214  1  0.70777152  0.67800017  0.37464444  1
  O  O215  1  0.70304923  0.67892877  0.88310602  1
  O  O216  1  0.07701938  0.09128197  0.01646901  1
  O  O217  1  0.06312861  0.10143344  0.52096127  1
  O  O218  1  0.06480307  0.43158862  0.02792583  1
  O  O219  1  0.06514304  0.43426587  0.52552072  1
  O  O220  1  0.05676374  0.77155769  0.02245073  1
  O  O221  1  0.07463240  0.75283946  0.52580631  1
  O  O222  1  0.41103931  0.09430090  0.00934969  1
  O  O223  1  0.41339291  0.09962215  0.51340997  1
  O  O224  1  0.39767432  0.42749817  0.02879075  1
  O  O225  1  0.41628139  0.41659630  0.51562567  1
  O  O226  1  0.41837259  0.76106845  0.01280924  1
  O  O227  1  0.41326324  0.74914481  0.50838200  1
  O  O228  1  0.73602192  0.10440763  0.02531699  1
  O  O229  1  0.74682119  0.09315993  0.51765503  1
  O  O230  1  0.74945510  0.42964953  0.01817858  1
  O  O231  1  0.74123367  0.42487402  0.52449200  1
  O  O232  1  0.73741359  0.76525564  0.02969714  1
  O  O233  1  0.74968528  0.76542339  0.51697923  1
  O  O234  1  0.09593890  0.27639614  0.02158762  1
  O  O235  1  0.09565592  0.26061145  0.52579643  1
  O  O236  1  0.08774678  0.58575662  0.02824426  1
  O  O237  1  0.09479134  0.59039181  0.53060620  1
  O  O238  1  0.09475255  0.93289162  0.03658523  1
  O  O239  1  0.08860643  0.93718865  0.51143269  1
  O  O240  1  0.43002578  0.25405159  0.01368503  1
  O  O241  1  0.43543309  0.25949349  0.52421907  1
  O  O242  1  0.41640593  0.58597928  0.02070160  1
  O  O243  1  0.42888814  0.57920358  0.51434378  1
  O  O244  1  0.43681133  0.92259450  0.01479683  1
  O  O245  1  0.42848028  0.93043977  0.50578267  1
  O  O246  1  0.78006609  0.27525554  0.01022986  1
  O  O247  1  0.76986538  0.26663680  0.52028751  1
  O  O248  1  0.77121198  0.60269462  0.02106501  1
  O  O249  1  0.77757870  0.59778244  0.52292171  1
  O  O250  1  0.76783400  0.93232880  0.03509985  1
  O  O251  1  0.76907623  0.93477672  0.52220054  1
  O  O252  1  0.23055449  0.07519096  0.27989631  1
  O  O253  1  0.24560498  0.07652285  0.77146362  1
  O  O254  1  0.23804598  0.39850764  0.25941255  1
  O  O255  1  0.23269523  0.39507357  0.76581470  1
  O  O256  1  0.24687470  0.73696276  0.27052987  1
  O  O257  1  0.22807464  0.73797177  0.77116017  1
  O  O258  1  0.56918701  0.06526428  0.27545618  1
  O  O259  1  0.56339124  0.07277834  0.77184891  1
  O  O260  1  0.57511140  0.40912314  0.27160308  1
  O  O261  1  0.57551219  0.40372709  0.75316839  1
  O  O262  1  0.58328289  0.74499218  0.27573947  1
  O  O263  1  0.58601634  0.74901209  0.77850287  1
  O  O264  1  0.89961460  0.06991996  0.26145756  1
  O  O265  1  0.90962684  0.07515356  0.76490021  1
  O  O266  1  0.90352775  0.40737859  0.28054121  1
  O  O267  1  0.90149830  0.39690737  0.77216590  1
  O  O268  1  0.89603859  0.73606339  0.27985205  1
  O  O269  1  0.90319086  0.74356715  0.78009403  1
  O  O270  1  0.26342729  0.22980154  0.27256970  1
  O  O271  1  0.26163037  0.23992929  0.77775910  1
  O  O272  1  0.25812328  0.57294958  0.25491687  1
  O  O273  1  0.25047755  0.58219863  0.76901903  1
  O  O274  1  0.24698373  0.91468974  0.28432602  1
  O  O275  1  0.26082797  0.90983847  0.76868430  1
  O  O276  1  0.59294632  0.23163201  0.26058558  1
  O  O277  1  0.58657545  0.23483259  0.76020844  1
  O  O278  1  0.59385218  0.56425509  0.27523374  1
  O  O279  1  0.58937018  0.57741786  0.76053652  1
  O  O280  1  0.61331665  0.90252110  0.26022655  1
  O  O281  1  0.59597781  0.91123222  0.77706984  1
  O  O282  1  0.92420069  0.23876139  0.26906290  1
  O  O283  1  0.93746513  0.23613442  0.77305906  1
  O  O284  1  0.92997072  0.57060697  0.28093256  1
  O  O285  1  0.92493210  0.57093738  0.77111061  1
  O  O286  1  0.93503113  0.90043715  0.27449721  1
  O  O287  1  0.93358318  0.90123050  0.77061760  1
  O  O288  1  0.26098772  0.22844261  0.47736842  1
  O  O289  1  0.25770767  0.24337926  0.96617103  1
  O  O290  1  0.25186092  0.56422044  0.48819376  1
  O  O291  1  0.24876829  0.56982383  0.98992242  1
  O  O292  1  0.24971899  0.91533970  0.47702057  1
  O  O293  1  0.25944047  0.90426263  0.98341323  1
  O  O294  1  0.59687409  0.24045454  0.48008024  1
  O  O295  1  0.59402673  0.22940657  0.98988266  1
  O  O296  1  0.59644710  0.56342835  0.47575486  1
  O  O297  1  0.59847402  0.58448084  0.98496371  1
  O  O298  1  0.60611319  0.91101673  0.47786724  1
  O  O299  1  0.60378236  0.89998315  0.98649740  1
  O  O300  1  0.92281006  0.23963805  0.48246652  1
  O  O301  1  0.93888192  0.24386063  0.96607454  1
  O  O302  1  0.92843397  0.56204945  0.47333742  1
  O  O303  1  0.92314237  0.57218312  0.98031677  1
  O  O304  1  0.93236058  0.90342737  0.47618358  1
  O  O305  1  0.93756026  0.89686926  0.97452900  1
  O  O306  1  0.23188988  0.07549523  0.47227382  1
  O  O307  1  0.24932249  0.08438840  0.97354226  1
  O  O308  1  0.23014602  0.40283378  0.49177204  1
  O  O309  1  0.22302938  0.40243795  0.97952413  1
  O  O310  1  0.23662473  0.73746995  0.49537573  1
  O  O311  1  0.23044876  0.73134733  0.98019896  1
  O  O312  1  0.57259924  0.06755975  0.47679942  1
  O  O313  1  0.56492083  0.06890930  0.97652530  1
  O  O314  1  0.58062493  0.40476641  0.47178131  1
  O  O315  1  0.57987817  0.40897590  0.99107698  1
  O  O316  1  0.58674099  0.74746792  0.47171235  1
  O  O317  1  0.58336842  0.74381843  0.97241464  1
  O  O318  1  0.90180985  0.07016012  0.48663193  1
  O  O319  1  0.90936459  0.07872202  0.98588563  1
  O  O320  1  0.89556022  0.40343228  0.47675626  1
  O  O321  1  0.89942438  0.40092714  0.97064425  1
  O  O322  1  0.90005651  0.74299981  0.47320174  1
  O  O323  1  0.89668376  0.73386838  0.97094445  1
  O  O324  1  0.10041737  0.26304481  0.22432267  1
  O  O325  1  0.09335281  0.27006042  0.72213570  1
  O  O326  1  0.07888698  0.59352235  0.23065666  1
  O  O327  1  0.09091875  0.59392936  0.71604809  1
  O  O328  1  0.08834263  0.93527478  0.22797244  1
  O  O329  1  0.09379204  0.93250261  0.73233175  1
  O  O330  1  0.42661484  0.25740129  0.23286494  1
  O  O331  1  0.42863563  0.26329139  0.72492905  1
  O  O332  1  0.41936210  0.58220514  0.22902798  1
  O  O333  1  0.41302007  0.59170432  0.73256247  1
  O  O334  1  0.42332959  0.92207471  0.23359279  1
  O  O335  1  0.42466719  0.93110801  0.74466623  1
  O  O336  1  0.77520251  0.26476972  0.23825674  1
  O  O337  1  0.77633629  0.26231043  0.72197358  1
  O  O338  1  0.77292697  0.60474550  0.22825164  1
  O  O339  1  0.77559483  0.59584493  0.73261829  1
  O  O340  1  0.77032389  0.93452606  0.22379781  1
  O  O341  1  0.77344417  0.92956060  0.72049086  1
  O  O342  1  0.07080536  0.09245412  0.22678043  1
  O  O343  1  0.06122422  0.09922853  0.72741898  1
  O  O344  1  0.06736171  0.43049584  0.21956423  1
  O  O345  1  0.06080261  0.42737816  0.72316717  1
  O  O346  1  0.05233991  0.76273369  0.23159055  1
  O  O347  1  0.07742414  0.76379530  0.72882650  1
  O  O348  1  0.40807330  0.09694164  0.23870641  1
  O  O349  1  0.39994021  0.09913450  0.74356512  1
  O  O350  1  0.39859428  0.42469040  0.22724366  1
  O  O351  1  0.40626688  0.41284804  0.72322724  1
  O  O352  1  0.41097258  0.74708231  0.24412250  1
  O  O353  1  0.40463235  0.75138117  0.73844259  1
  O  O354  1  0.73747296  0.10182596  0.22901376  1
  O  O355  1  0.75363683  0.09565018  0.72519262  1
  O  O356  1  0.74137651  0.42451867  0.22791712  1
  O  O357  1  0.75303041  0.42459262  0.72668099  1
  O  O358  1  0.74265502  0.77309492  0.22367763  1
  O  O359  1  0.75052030  0.76333928  0.73206559  1
