# generated using pymatgen
data_BaLaInIrO6
_symmetry_space_group_name_H-M   'P 1'
_cell_length_a   17.52427414
_cell_length_b   17.55664911
_cell_length_c   16.48607398
_cell_angle_alpha   90.00825398
_cell_angle_beta   89.99507770
_cell_angle_gamma   90.05103630
_symmetry_Int_Tables_number   1
_chemical_formula_structural   BaLaInIrO6
_chemical_formula_sum   'Ba36 La36 In36 Ir36 O216'
_cell_volume   5072.22760894
_cell_formula_units_Z   36
loop_
 _symmetry_equiv_pos_site_id
 _symmetry_equiv_pos_as_xyz
  1  'x, y, z'
loop_
 _atom_site_type_symbol
 _atom_site_label
 _atom_site_symmetry_multiplicity
 _atom_site_fract_x
 _atom_site_fract_y
 _atom_site_fract_z
 _atom_site_occupancy
  Ba  Ba0  1  0.17003150  0.32164857  0.37435242  1
  Ba  Ba1  1  0.66036695  0.84175267  0.12538433  1
  Ba  Ba2  1  0.49854119  0.32651165  0.37424410  1
  Ba  Ba3  1  0.32889566  0.15708530  0.87920417  1
  Ba  Ba4  1  0.17157969  0.65152700  0.87912120  1
  Ba  Ba5  1  0.33527110  0.51178782  0.62777469  1
  Ba  Ba6  1  0.00194572  0.82411571  0.87456754  1
  Ba  Ba7  1  0.83334281  0.33929716  0.12442826  1
  Ba  Ba8  1  0.00220456  0.49029174  0.87369559  1
  Ba  Ba9  1  0.66705816  0.82938708  0.87764954  1
  Ba  Ba10  1  0.32964165  0.49199522  0.87585377  1
  Ba  Ba11  1  0.50069605  0.65649950  0.87191551  1
  Ba  Ba12  1  0.83345159  0.32003097  0.87176410  1
  Ba  Ba13  1  0.16992110  0.67306620  0.12425025  1
  Ba  Ba14  1  -0.00462383  0.82917373  0.37488488  1
  Ba  Ba15  1  0.66474385  0.17207435  0.12500258  1
  Ba  Ba16  1  0.66685778  0.49196915  0.37238569  1
  Ba  Ba17  1  1.00007835  0.51171416  0.62752304  1
  Ba  Ba18  1  0.49698026  0.33881647  0.12435694  1
  Ba  Ba19  1  0.83358130  0.00489307  0.12560469  1
  Ba  Ba20  1  0.66325372  0.16357363  0.37170042  1
  Ba  Ba21  1  0.83402541  0.32787027  0.37515259  1
  Ba  Ba22  1  0.32822787  0.81993257  0.87322961  1
  Ba  Ba23  1  0.66705635  0.16116341  0.87929978  1
  Ba  Ba24  1  0.49640896  0.01052377  0.12184551  1
  Ba  Ba25  1  0.66835248  0.83127236  0.37498326  1
  Ba  Ba26  1  0.83248473  0.66000278  0.37867038  1
  Ba  Ba27  1  0.16523727  0.34672715  0.12231304  1
  Ba  Ba28  1  0.16604359  0.00676093  0.62790724  1
  Ba  Ba29  1  0.33719175  0.51043152  0.12196646  1
  Ba  Ba30  1  -0.00427883  0.48933255  0.37689368  1
  Ba  Ba31  1  0.66312818  0.84504311  0.62781868  1
  Ba  Ba32  1  0.83736027  0.00865238  0.62249661  1
  Ba  Ba33  1  0.33015649  0.15569355  0.37247688  1
  Ba  Ba34  1  0.49491797  0.32477266  0.87828587  1
  Ba  Ba35  1  0.17278051  0.98577122  0.87457232  1
  La  La36  1  0.66836643  0.18192047  0.62537009  1
  La  La37  1  0.33909282  0.84624400  0.11845430  1
  La  La38  1  0.16466219  0.01568626  0.11979715  1
  La  La39  1  0.49870773  0.35020938  0.62498675  1
  La  La40  1  -0.00286189  0.15143233  0.87459074  1
  La  La41  1  0.66668263  0.51085707  0.12362085  1
  La  La42  1  0.17648809  0.32281888  0.87737659  1
  La  La43  1  1.00887859  0.18325898  0.62877552  1
  La  La44  1  0.49298854  0.68426774  0.62786506  1
  La  La45  1  0.83308807  0.99281538  0.87450544  1
  La  La46  1  0.82827150  0.99253995  0.38066618  1
  La  La47  1  0.32957191  0.81926886  0.37397693  1
  La  La48  1  0.16442837  0.35360348  0.62534996  1
  La  La49  1  1.00881779  0.84474018  0.62974543  1
  La  La50  1  0.33324865  0.18032995  0.62671169  1
  La  La51  1  0.82989420  0.68185794  0.62521141  1
  La  La52  1  0.67088937  0.51523213  0.62440314  1
  La  La53  1  0.49188016  0.67993720  0.12065978  1
  La  La54  1  0.83435958  0.67365947  0.12852819  1
  La  La55  1  0.49235138  0.01604934  0.62752983  1
  La  La56  1  0.50292897  0.98750315  0.37242809  1
  La  La57  1  0.66051062  0.48424514  0.87602283  1
  La  La58  1  0.50150954  0.98418918  0.87729227  1
  La  La59  1  1.00544772  0.51480818  0.12997855  1
  La  La60  1  1.00604264  0.18135590  0.12118635  1
  La  La61  1  -0.00268941  0.15679988  0.37567847  1
  La  La62  1  0.33724164  0.84924708  0.62908591  1
  La  La63  1  0.16290466  0.67708007  0.63576700  1
  La  La64  1  0.32570047  0.47976715  0.37145027  1
  La  La65  1  0.17626964  0.98506248  0.37259219  1
  La  La66  1  0.83649204  0.65439110  0.87409114  1
  La  La67  1  1.00267308  0.84972639  0.12319261  1
  La  La68  1  0.17057334  0.64383664  0.37586653  1
  La  La69  1  0.83536339  0.34462971  0.62218736  1
  La  La70  1  0.50956973  0.65359174  0.37194139  1
  La  La71  1  0.33922358  0.18174339  0.12309323  1
  In  In72  1  0.00519045  0.00395873  0.50027652  1
  In  In73  1  0.33474409  0.66903347  0.25121707  1
  In  In74  1  0.00626344  0.00218058  0.25136124  1
  In  In75  1  0.83433634  0.83064014  -0.00023350  1
  In  In76  1  0.83693702  0.16465955  0.00105556  1
  In  In77  1  0.49710624  0.50115028  0.24657107  1
  In  In78  1  0.83137488  0.49829492  0.75139680  1
  In  In79  1  0.33327252  0.33393659  0.75050159  1
  In  In80  1  0.00580169  0.67092266  0.25229597  1
  In  In81  1  0.66469092  0.00577248  0.74799217  1
  In  In82  1  0.33298391  0.00370391  0.75245098  1
  In  In83  1  0.49548598  0.16455544  0.25128455  1
  In  In84  1  0.83685881  0.49930209  0.24725602  1
  In  In85  1  0.83258233  0.49818292  -0.00094828  1
  In  In86  1  0.66190076  0.67107430  0.50229112  1
  In  In87  1  0.83561016  0.16337380  0.25289308  1
  In  In88  1  0.66462275  0.66941679  0.24559221  1
  In  In89  1  0.83487947  0.83736957  0.50253525  1
  In  In90  1  0.66169383  0.00604651  0.50279172  1
  In  In91  1  0.83513342  0.16812790  0.74495915  1
  In  In92  1  0.33386604  0.66669600  0.49886232  1
  In  In93  1  0.66662936  0.00086128  0.00150946  1
  In  In94  1  0.00377555  0.66900671  0.50272733  1
  In  In95  1  0.83565321  0.83259742  0.24663065  1
  In  In96  1  0.83483900  0.83641815  0.74943340  1
  In  In97  1  0.16926253  0.82890557  0.49905646  1
  In  In98  1  0.66546868  0.66729972  0.75113725  1
  In  In99  1  0.66505474  0.33285133  0.00114276  1
  In  In100  1  0.49639941  0.50316108  0.50025149  1
  In  In101  1  0.16770144  0.83020518  0.00281709  1
  In  In102  1  0.00310964  0.33088010  0.25146298  1
  In  In103  1  0.83384715  0.50180648  0.50301826  1
  In  In104  1  0.33295514  0.32978601  0.50227446  1
  In  In105  1  0.66387483  0.33355848  0.50041445  1
  In  In106  1  0.16796340  0.16396066  0.49989354  1
  In  In107  1  0.00217213  0.33321212  -0.00566402  1
  Ir  Ir108  1  0.49784709  0.16374804  0.50607261  1
  Ir  Ir109  1  0.00799972  0.33057912  0.74900744  1
  Ir  Ir110  1  0.33131784  0.33471006  0.00099709  1
  Ir  Ir111  1  0.66375157  0.33404717  0.24805653  1
  Ir  Ir112  1  0.49280299  0.16535262  -0.00498872  1
  Ir  Ir113  1  0.32842792  0.33239447  0.24639881  1
  Ir  Ir114  1  0.49052315  0.83862475  0.49925657  1
  Ir  Ir115  1  0.50017778  0.16733427  0.74884679  1
  Ir  Ir116  1  0.33668257  -0.00051110  0.49698699  1
  Ir  Ir117  1  0.66354393  -0.00029275  0.25172908  1
  Ir  Ir118  1  0.16807632  0.49856986  0.50040865  1
  Ir  Ir119  1  0.16892895  0.16567390  -0.00002912  1
  Ir  Ir120  1  0.66025084  0.33368507  0.74653840  1
  Ir  Ir121  1  0.00349394  0.33004044  0.50527183  1
  Ir  Ir122  1  0.33001504  -0.00174667  0.24988386  1
  Ir  Ir123  1  0.16932598  0.50011734  0.24962951  1
  Ir  Ir124  1  0.16997617  0.82848678  0.74896336  1
  Ir  Ir125  1  0.49015417  0.83915813  0.25073904  1
  Ir  Ir126  1  0.16555905  0.16782182  0.75234221  1
  Ir  Ir127  1  0.16896109  0.16425436  0.24442961  1
  Ir  Ir128  1  0.49595573  0.83484799  0.74909273  1
  Ir  Ir129  1  0.33246693  -0.00106145  0.00328655  1
  Ir  Ir130  1  0.16554592  0.50156161  0.00221807  1
  Ir  Ir131  1  0.33524295  0.66502903  -0.00223995  1
  Ir  Ir132  1  0.33050890  0.66550979  0.74823307  1
  Ir  Ir133  1  0.83762125  0.17087689  0.50229556  1
  Ir  Ir134  1  0.00549239  0.00032701  -0.00213809  1
  Ir  Ir135  1  0.17124579  0.83545159  0.24839917  1
  Ir  Ir136  1  0.49589478  0.83154029  -0.00157992  1
  Ir  Ir137  1  0.00505050  -0.00032198  0.75437693  1
  Ir  Ir138  1  0.50179334  0.50111841  -0.00499991  1
  Ir  Ir139  1  0.50382469  0.49843366  0.75113846  1
  Ir  Ir140  1  -0.00142830  0.66631677  0.75554924  1
  Ir  Ir141  1  0.16505177  0.49936173  0.75051350  1
  Ir  Ir142  1  -0.00268457  0.66439251  -0.00453021  1
  Ir  Ir143  1  0.66351539  0.66606568  0.00077025  1
  O  O144  1  0.31265697  0.32209623  0.12309370  1
  O  O145  1  0.30071379  0.32053608  0.62840330  1
  O  O146  1  0.32236540  0.67202403  0.11844686  1
  O  O147  1  0.30140877  0.66799258  0.62857052  1
  O  O148  1  0.30052874  0.98642107  0.12777425  1
  O  O149  1  0.31730444  0.99100566  0.61843286  1
  O  O150  1  0.64625180  0.33298341  0.12988759  1
  O  O151  1  0.63202468  0.32039649  0.62956154  1
  O  O152  1  0.62597763  0.65595593  0.11631804  1
  O  O153  1  0.62443537  0.65372995  0.62751865  1
  O  O154  1  0.64340183  1.00027302  0.13249300  1
  O  O155  1  0.62547300  1.00243707  0.62530985  1
  O  O156  1  0.98749526  0.31696161  0.12232988  1
  O  O157  1  0.97358744  0.32135309  0.62781546  1
  O  O158  1  0.97376436  0.65579281  0.11439609  1
  O  O159  1  0.97040550  0.66718519  0.63869960  1
  O  O160  1  0.98918950  0.99786619  0.11736948  1
  O  O161  1  0.98884242  0.98972045  0.63461214  1
  O  O162  1  0.20232633  0.15403704  0.12183982  1
  O  O163  1  0.19691467  0.16154979  0.63368929  1
  O  O164  1  0.18968973  0.50767223  0.12583496  1
  O  O165  1  0.18862952  0.49308868  0.62606415  1
  O  O166  1  0.20336123  0.82938139  0.13130712  1
  O  O167  1  0.20230557  0.82200628  0.62865581  1
  O  O168  1  0.50752563  0.16531066  0.11671682  1
  O  O169  1  0.52973920  0.15206388  0.62826621  1
  O  O170  1  0.52712001  0.49971771  0.11481438  1
  O  O171  1  0.53187568  0.49173169  0.63311810  1
  O  O172  1  0.51064832  0.81868423  0.12564273  1
  O  O173  1  0.51394429  0.82302919  0.62260288  1
  O  O174  1  0.87045903  0.16151568  0.12757551  1
  O  O175  1  0.87147313  0.16864998  0.62044836  1
  O  O176  1  0.87130335  0.49984059  0.11980903  1
  O  O177  1  0.85367297  0.47868944  0.62971475  1
  O  O178  1  0.87051077  0.81528137  0.11976549  1
  O  O179  1  0.87444992  0.82782338  0.62850308  1
  O  O180  1  0.13993167  0.16649820  0.36610697  1
  O  O181  1  0.13535739  0.17809309  0.87561995  1
  O  O182  1  0.14574060  0.50191259  0.37513207  1
  O  O183  1  0.14861096  0.49323492  0.87742511  1
  O  O184  1  0.14687445  0.84821068  0.36691646  1
  O  O185  1  0.15329824  0.83101282  0.87116570  1
  O  O186  1  0.47814372  0.17115127  0.38523031  1
  O  O187  1  0.47427492  0.17206186  0.87026203  1
  O  O188  1  0.45920868  0.51461200  0.37297489  1
  O  O189  1  0.47884604  0.49953070  0.87259335  1
  O  O190  1  0.46213314  0.85340186  0.37572372  1
  O  O191  1  0.47339938  0.84714448  0.87382829  1
  O  O192  1  0.81367204  0.17316385  0.38461542  1
  O  O193  1  0.82240418  0.16003040  0.86997939  1
  O  O194  1  0.81689075  0.50101877  0.37581984  1
  O  O195  1  0.79704040  0.51325874  0.87366749  1
  O  O196  1  0.81942757  0.85277393  0.37220796  1
  O  O197  1  0.82058729  0.85229118  0.87547505  1
  O  O198  1  0.04439968  0.01803895  0.37410351  1
  O  O199  1  0.02842545  0.01112154  0.87556271  1
  O  O200  1  0.02336489  0.32885922  0.38559632  1
  O  O201  1  0.04152190  0.33421329  0.86699647  1
  O  O202  1  0.04188819  0.67741642  0.37726430  1
  O  O203  1  0.02442977  0.66717815  0.87517595  1
  O  O204  1  0.36430157  0.00464586  0.37291966  1
  O  O205  1  0.36284334  0.00115720  0.88163435  1
  O  O206  1  0.34289663  0.33833301  0.36931050  1
  O  O207  1  0.34384004  0.33505814  0.87958159  1
  O  O208  1  0.37358860  0.68317307  0.37483363  1
  O  O209  1  0.35252394  0.66178437  0.87305901  1
  O  O210  1  0.68734295  0.00292000  0.37310402  1
  O  O211  1  0.69466574  0.00464088  0.87369174  1
  O  O212  1  0.67950884  0.33180089  0.36933560  1
  O  O213  1  0.68194055  0.34402467  0.86646151  1
  O  O214  1  0.67804923  0.67767536  0.37386792  1
  O  O215  1  0.69656632  0.67014297  0.88138417  1
  O  O216  1  0.07438517  0.09743711  0.02189496  1
  O  O217  1  0.06765987  0.10421482  0.52753018  1
  O  O218  1  0.07322185  0.43487292  0.02244766  1
  O  O219  1  0.07512892  0.42340728  0.52757606  1
  O  O220  1  0.06591152  0.75818775  0.02246167  1
  O  O221  1  0.07964613  0.75696680  0.54397530  1
  O  O222  1  0.39667141  0.09600519  0.02131911  1
  O  O223  1  0.39994436  0.09779067  0.52940840  1
  O  O224  1  0.40774169  0.42619475  0.01680628  1
  O  O225  1  0.40628174  0.42260726  0.51966417  1
  O  O226  1  0.40466472  0.75892858  0.02099476  1
  O  O227  1  0.39443300  0.77747320  0.52089631  1
  O  O228  1  0.74380311  0.09060403  0.01906749  1
  O  O229  1  0.74044830  0.10753574  0.52306433  1
  O  O230  1  0.72712802  0.43787048  0.01785544  1
  O  O231  1  0.73647160  0.42596400  0.53075452  1
  O  O232  1  0.73602797  0.75029291  0.02348191  1
  O  O233  1  0.74406172  0.75725030  0.52899289  1
  O  O234  1  0.10174972  0.25515269  0.01528730  1
  O  O235  1  0.09679370  0.26550177  0.53027295  1
  O  O236  1  0.08806929  0.59026509  0.02423499  1
  O  O237  1  0.10991358  0.59720074  0.52010841  1
  O  O238  1  0.09783605  0.93067675  0.02425211  1
  O  O239  1  0.09421588  0.92105041  0.51692789  1
  O  O240  1  0.41750944  0.25538687  0.02106357  1
  O  O241  1  0.43337647  0.25628758  0.53435221  1
  O  O242  1  0.43327155  0.59790180  0.01738221  1
  O  O243  1  0.43082015  0.60394905  0.53124464  1
  O  O244  1  0.42174647  0.92199536  0.02344683  1
  O  O245  1  0.43198459  0.93750904  0.52314605  1
  O  O246  1  0.75904424  0.25953683  0.00888949  1
  O  O247  1  0.76748062  0.26212398  0.52906538  1
  O  O248  1  0.75294219  0.59910920  0.02870270  1
  O  O249  1  0.75803198  0.59520949  0.53496297  1
  O  O250  1  0.75686193  0.92110579  0.01605244  1
  O  O251  1  0.75437153  0.93163247  0.51443029  1
  O  O252  1  0.23100018  0.06195149  0.26610743  1
  O  O253  1  0.23637561  0.07817591  0.77019778  1
  O  O254  1  0.24039854  0.40972378  0.26845172  1
  O  O255  1  0.23011480  0.40317334  0.76532920  1
  O  O256  1  0.23277065  0.73901315  0.27787956  1
  O  O257  1  0.23438023  0.73126047  0.76478625  1
  O  O258  1  0.56849671  0.06756760  0.27214006  1
  O  O259  1  0.55793336  0.07066716  0.77396739  1
  O  O260  1  0.57482608  0.40627186  0.26370417  1
  O  O261  1  0.56542300  0.40021886  0.76670996  1
  O  O262  1  0.55325408  0.74333925  0.26538559  1
  O  O263  1  0.56710129  0.74529840  0.76231480  1
  O  O264  1  0.90669568  0.06643854  0.28720612  1
  O  O265  1  0.91432594  0.06797570  0.77399306  1
  O  O266  1  0.90826923  0.40155641  0.26310506  1
  O  O267  1  0.91505529  0.39831397  0.76554341  1
  O  O268  1  0.90529239  0.73332159  0.26392486  1
  O  O269  1  0.90614283  0.73203130  0.77746793  1
  O  O270  1  0.26124731  0.23318433  0.25746395  1
  O  O271  1  0.25291580  0.23940623  0.77249323  1
  O  O272  1  0.26334947  0.56923212  0.27790751  1
  O  O273  1  0.25904268  0.57053245  0.76546360  1
  O  O274  1  0.26643409  0.90174327  0.27759119  1
  O  O275  1  0.26099790  0.90259904  0.75814229  1
  O  O276  1  0.58829685  0.24522669  0.26084207  1
  O  O277  1  0.59739710  0.23257790  0.76225602  1
  O  O278  1  0.58878059  0.57742607  0.26758362  1
  O  O279  1  0.59909761  0.56182300  0.77382771  1
  O  O280  1  0.58524838  0.91022469  0.27215600  1
  O  O281  1  0.58136303  0.90903425  0.77148972  1
  O  O282  1  0.94056056  0.22654339  0.27132889  1
  O  O283  1  0.94406127  0.23516951  0.76817453  1
  O  O284  1  0.93839271  0.57048044  0.25551608  1
  O  O285  1  0.92456506  0.58000595  0.77512663  1
  O  O286  1  0.93834740  0.90380201  0.24612066  1
  O  O287  1  0.93370269  0.91392238  0.77108878  1
  O  O288  1  0.26663859  0.22954867  0.49245888  1
  O  O289  1  0.25661111  0.24364567  0.97944417  1
  O  O290  1  0.26222362  0.56465843  0.47044411  1
  O  O291  1  0.26365451  0.57236313  0.98693241  1
  O  O292  1  0.27227273  0.90404719  0.47525969  1
  O  O293  1  0.26550949  0.90660474  0.98936823  1
  O  O294  1  0.59380556  0.22721478  0.49641559  1
  O  O295  1  0.58174397  0.23879680  0.98555760  1
  O  O296  1  0.58803204  0.57711780  0.47444255  1
  O  O297  1  0.59737611  0.56846571  0.97352524  1
  O  O298  1  0.58013602  0.90672211  0.47889493  1
  O  O299  1  0.57976818  0.91057761  0.98103500  1
  O  O300  1  0.94001304  0.23187973  0.48352069  1
  O  O301  1  0.94198401  0.22691285  0.97803533  1
  O  O302  1  0.93059726  0.57447662  0.49054095  1
  O  O303  1  0.92262000  0.58093263  0.97031032  1
  O  O304  1  0.92003493  0.92457539  0.47724953  1
  O  O305  1  0.93927078  0.90789430  0.99031266  1
  O  O306  1  0.23851299  0.05981292  0.47635010  1
  O  O307  1  0.23714212  0.06762404  0.98823279  1
  O  O308  1  0.23600067  0.40667690  0.48759735  1
  O  O309  1  0.23554359  0.40472508  0.97938610  1
  O  O310  1  0.23755383  0.73437270  0.46467508  1
  O  O311  1  0.24559524  0.73622449  0.98610181  1
  O  O312  1  0.55592475  0.06800158  0.48048415  1
  O  O313  1  0.56061461  0.07341966  0.97457869  1
  O  O314  1  0.56542840  0.40188473  0.49368179  1
  O  O315  1  0.57219140  0.41321160  0.97657115  1
  O  O316  1  0.55019679  0.74174563  0.48100326  1
  O  O317  1  0.57028804  0.74073244  0.97979093  1
  O  O318  1  0.90371315  0.08040278  0.47448087  1
  O  O319  1  0.91228621  0.06275406  0.97165532  1
  O  O320  1  0.90995511  0.39437502  0.49485718  1
  O  O321  1  0.90547761  0.40318833  0.97571914  1
  O  O322  1  0.91120240  0.74403113  0.48519344  1
  O  O323  1  0.90418668  0.72941447  0.97253840  1
  O  O324  1  0.10102174  0.25339655  0.22635759  1
  O  O325  1  0.10084526  0.26221305  0.72069405  1
  O  O326  1  0.10325505  0.59263947  0.23811594  1
  O  O327  1  0.09618531  0.59788476  0.73100661  1
  O  O328  1  0.11081576  0.93183029  0.22380019  1
  O  O329  1  0.09432145  0.91803221  0.72924853  1
  O  O330  1  0.41471914  0.25673757  0.23316022  1
  O  O331  1  0.43130244  0.25845911  0.72028085  1
  O  O332  1  0.43273990  0.60457406  0.22302332  1
  O  O333  1  0.43440861  0.59783778  0.72816389  1
  O  O334  1  0.42489696  0.93425008  0.23221844  1
  O  O335  1  0.42803583  0.92779635  0.72676180  1
  O  O336  1  0.75315590  0.26010696  0.23636449  1
  O  O337  1  0.75768013  0.27039329  0.72166203  1
  O  O338  1  0.75693253  0.58953613  0.21425885  1
  O  O339  1  0.76102576  0.59459867  0.71775874  1
  O  O340  1  0.75245812  0.92922313  0.23787050  1
  O  O341  1  0.76000309  0.93127624  0.73323266  1
  O  O342  1  0.07795413  0.09934440  0.21675375  1
  O  O343  1  0.07037681  0.10044730  0.73231755  1
  O  O344  1  0.07554666  0.43373554  0.22841174  1
  O  O345  1  0.07764231  0.42330779  0.72421305  1
  O  O346  1  0.07637030  0.77343836  0.22013134  1
  O  O347  1  0.07303724  0.75835889  0.72653322  1
  O  O348  1  0.39334846  0.09338361  0.22462982  1
  O  O349  1  0.40580019  0.10080735  0.72315634  1
  O  O350  1  0.39825570  0.42388594  0.23943728  1
  O  O351  1  0.41401850  0.42571639  0.72903336  1
  O  O352  1  0.39223737  0.78003821  0.23431076  1
  O  O353  1  0.39991917  0.76096150  0.72329617  1
  O  O354  1  0.73701625  0.08700914  0.23759827  1
  O  O355  1  0.73489145  0.10375194  0.71905434  1
  O  O356  1  0.73131465  0.42664942  0.22571895  1
  O  O357  1  0.72207326  0.42964951  0.72890987  1
  O  O358  1  0.74502190  0.75455399  0.21854755  1
  O  O359  1  0.74681010  0.75404897  0.72550447  1
