# generated using pymatgen
data_BaLaInIrO6
_symmetry_space_group_name_H-M   'P 1'
_cell_length_a   17.53777427
_cell_length_b   17.57440719
_cell_length_c   16.50187942
_cell_angle_alpha   89.99479140
_cell_angle_beta   90.00074593
_cell_angle_gamma   89.96531495
_symmetry_Int_Tables_number   1
_chemical_formula_structural   BaLaInIrO6
_chemical_formula_sum   'Ba36 La36 In36 Ir36 O216'
_cell_volume   5086.14208798
_cell_formula_units_Z   36
loop_
 _symmetry_equiv_pos_site_id
 _symmetry_equiv_pos_as_xyz
  1  'x, y, z'
loop_
 _atom_site_type_symbol
 _atom_site_label
 _atom_site_symmetry_multiplicity
 _atom_site_fract_x
 _atom_site_fract_y
 _atom_site_fract_z
 _atom_site_occupancy
  Ba  Ba0  1  0.33017571  0.82879744  0.37831269  1
  Ba  Ba1  1  0.99753399  0.50957934  0.62923001  1
  Ba  Ba2  1  0.50602338  0.01214254  0.62592681  1
  Ba  Ba3  1  0.33667184  0.82855584  0.87659144  1
  Ba  Ba4  1  0.83705930  0.99041503  0.87386571  1
  Ba  Ba5  1  0.50036746  0.01027710  0.12318633  1
  Ba  Ba6  1  0.33463925  0.17291605  0.12479926  1
  Ba  Ba7  1  -0.00074414  0.82322343  0.37125822  1
  Ba  Ba8  1  0.66096841  0.82463808  0.87474472  1
  Ba  Ba9  1  0.50511497  0.99628809  0.87637474  1
  Ba  Ba10  1  0.83282937  0.34020777  0.12722674  1
  Ba  Ba11  1  0.99880049  0.17370655  0.62716594  1
  Ba  Ba12  1  0.50171217  0.67248349  0.62588757  1
  Ba  Ba13  1  0.83261865  0.01405736  0.12177086  1
  Ba  Ba14  1  0.00072933  0.15636223  0.37703566  1
  Ba  Ba15  1  0.16435299  0.33877453  0.12154037  1
  Ba  Ba16  1  0.33526154  0.15936986  0.87392776  1
  Ba  Ba17  1  0.16209833  0.32860917  0.37578335  1
  Ba  Ba18  1  0.99431265  0.83948155  0.61903758  1
  Ba  Ba19  1  1.00519194  0.17560611  0.12779463  1
  Ba  Ba20  1  0.66667347  0.48996280  0.87384765  1
  Ba  Ba21  1  0.16518634  0.00748700  0.12511757  1
  Ba  Ba22  1  0.67482295  0.17614230  0.62574933  1
  Ba  Ba23  1  0.33134336  0.48983073  0.37850303  1
  Ba  Ba24  1  0.83854302  0.65457539  0.37282616  1
  Ba  Ba25  1  0.66514681  0.48820567  0.37945087  1
  Ba  Ba26  1  0.66743296  0.17576203  0.12483116  1
  Ba  Ba27  1  0.83307628  0.65290456  0.87232152  1
  Ba  Ba28  1  0.16664510  0.99488431  0.37798349  1
  Ba  Ba29  1  0.82864510  0.67736193  0.62513988  1
  Ba  Ba30  1  0.16538612  0.65674876  0.37809739  1
  Ba  Ba31  1  1.00502692  0.50732284  0.12139687  1
  Ba  Ba32  1  0.49864602  0.99395359  0.37223428  1
  Ba  Ba33  1  0.50258350  0.32409951  0.87058313  1
  Ba  Ba34  1  0.16915927  0.99026276  0.87483508  1
  Ba  Ba35  1  0.66597499  0.50527793  0.12301181  1
  La  La36  1  0.33120391  0.48713563  0.87543668  1
  La  La37  1  0.83263925  0.32338222  0.87825457  1
  La  La38  1  0.33239032  0.84971161  0.12491027  1
  La  La39  1  -0.00764011  0.48532824  0.87480604  1
  La  La40  1  0.16571781  0.65213269  0.87619402  1
  La  La41  1  0.84067771  0.32382085  0.37847669  1
  La  La42  1  0.49516360  0.67972671  0.12135736  1
  La  La43  1  0.50244561  0.34556102  0.62860777  1
  La  La44  1  0.16533430  0.67713107  0.12766602  1
  La  La45  1  0.50808924  0.65145442  0.37365412  1
  La  La46  1  0.50425259  0.32044666  0.37758561  1
  La  La47  1  -0.00950498  0.81582635  0.87631288  1
  La  La48  1  0.33467363  0.51331391  0.12927976  1
  La  La49  1  0.33974685  0.18182885  0.61936779  1
  La  La50  1  0.66236425  0.15370089  0.87651388  1
  La  La51  1  -0.00371215  0.15085255  0.88135578  1
  La  La52  1  0.67482397  0.85257239  0.62515774  1
  La  La53  1  0.49368712  0.34164323  0.12691485  1
  La  La54  1  0.16110785  0.68030759  0.62395304  1
  La  La55  1  0.84053415  0.98395075  0.37299554  1
  La  La56  1  0.16258400  0.01120269  0.62426824  1
  La  La57  1  0.33367934  0.84847663  0.62717073  1
  La  La58  1  -0.00186983  0.49151355  0.37174545  1
  La  La59  1  0.82864306  0.68140957  0.12229829  1
  La  La60  1  0.16940923  0.32033247  0.87397315  1
  La  La61  1  1.00283612  0.84491470  0.12263851  1
  La  La62  1  0.33611951  0.51213010  0.62664893  1
  La  La63  1  0.16098486  0.34661454  0.62201562  1
  La  La64  1  0.82863754  0.35017136  0.62711485  1
  La  La65  1  0.65651702  0.81954423  0.37463549  1
  La  La66  1  0.32736927  0.15349036  0.37444943  1
  La  La67  1  0.50644007  0.64745441  0.87484443  1
  La  La68  1  0.82654339  0.01368969  0.61693160  1
  La  La69  1  0.67083753  0.15703693  0.37286551  1
  La  La70  1  0.67178385  0.85315626  0.12317232  1
  La  La71  1  0.67483409  0.51512137  0.62858681  1
  In  In72  1  0.50072094  0.83104783  -0.00011473  1
  In  In73  1  -0.00006975  0.33432737  -0.00075421  1
  In  In74  1  0.16907351  0.49898035  0.24874721  1
  In  In75  1  0.66624364  0.33496818  0.00095633  1
  In  In76  1  0.33207870  0.33364763  0.74866421  1
  In  In77  1  0.33317925  0.66796719  0.50490989  1
  In  In78  1  0.66800647  0.66486046  0.24759802  1
  In  In79  1  0.83270593  0.49736512  0.49877497  1
  In  In80  1  0.33544598  0.66796038  0.25114648  1
  In  In81  1  0.16654273  0.16727536  -0.00213064  1
  In  In82  1  0.00055200  -0.00431221  0.74840281  1
  In  In83  1  0.50260365  0.16943560  0.25395688  1
  In  In84  1  0.83427837  0.16841182  0.25008434  1
  In  In85  1  0.83698438  0.17067270  0.75141120  1
  In  In86  1  0.16529919  0.82806900  -0.00552808  1
  In  In87  1  -0.00143482  -0.00053967  0.25025461  1
  In  In88  1  0.83170953  0.83164350  0.75181310  1
  In  In89  1  0.50182535  0.17231053  -0.00068202  1
  In  In90  1  0.33400084  0.00236302  0.50407472  1
  In  In91  1  0.33482730  0.00078123  -0.00194366  1
  In  In92  1  0.66698403  0.00337181  0.49287597  1
  In  In93  1  0.50026752  0.83266802  0.74580843  1
  In  In94  1  0.49983474  0.83268604  0.50274523  1
  In  In95  1  0.16598162  0.83115374  0.24952798  1
  In  In96  1  0.66460303  0.66470407  0.00099562  1
  In  In97  1  0.16521265  0.50010614  0.75206080  1
  In  In98  1  0.33515887  0.00511007  0.74712671  1
  In  In99  1  0.50039227  0.49863060  0.24960223  1
  In  In100  1  0.16648408  0.17018525  0.50318551  1
  In  In101  1  -0.00036350  0.66325412  0.50043099  1
  In  In102  1  0.16739187  0.17021647  0.25125350  1
  In  In103  1  0.49974034  0.49665795  0.50338647  1
  In  In104  1  -0.00331181  0.66405872  0.24363662  1
  In  In105  1  0.33039315  0.66724318  0.75352440  1
  In  In106  1  0.66794139  0.66866456  0.49866947  1
  In  In107  1  0.49956502  0.83231050  0.24869207  1
  Ir  Ir108  1  0.16601214  0.16890586  0.74697846  1
  Ir  Ir109  1  0.66911830  0.33491361  0.74596350  1
  Ir  Ir110  1  0.83260665  0.16840298  -0.00353107  1
  Ir  Ir111  1  0.66769413  0.32963826  0.50182575  1
  Ir  Ir112  1  -0.00428966  0.33338980  0.50668470  1
  Ir  Ir113  1  0.83413712  0.49644638  0.75521067  1
  Ir  Ir114  1  0.82839463  0.83390500  0.24682597  1
  Ir  Ir115  1  0.82934940  0.83833045  0.49677428  1
  Ir  Ir116  1  0.83353259  0.17075863  0.49987155  1
  Ir  Ir117  1  0.66429547  0.66322792  0.75151010  1
  Ir  Ir118  1  -0.00171778  0.66508484  -0.00128299  1
  Ir  Ir119  1  0.83650349  0.50009729  -0.00005099  1
  Ir  Ir120  1  0.33159872  0.66050441  -0.00234362  1
  Ir  Ir121  1  0.49356201  0.49731817  -0.00112399  1
  Ir  Ir122  1  0.83343254  0.49584839  0.24573665  1
  Ir  Ir123  1  0.66759587  0.33388962  0.25770850  1
  Ir  Ir124  1  0.67329932  0.00112147  0.24943802  1
  Ir  Ir125  1  -0.00274590  -0.00227791  -0.00161093  1
  Ir  Ir126  1  0.33735045  0.33523282  0.25156428  1
  Ir  Ir127  1  0.83497414  0.83165578  0.00277506  1
  Ir  Ir128  1  0.16749432  0.49514701  0.50470924  1
  Ir  Ir129  1  0.33469950  0.33321449  0.50175472  1
  Ir  Ir130  1  0.33458752  0.00142372  0.25082054  1
  Ir  Ir131  1  0.00197238  0.33298519  0.74986916  1
  Ir  Ir132  1  0.16077920  0.82884530  0.74875481  1
  Ir  Ir133  1  0.50250554  0.49703106  0.74840800  1
  Ir  Ir134  1  0.16480015  0.83291993  0.50517588  1
  Ir  Ir135  1  0.00281205  0.66662384  0.75196045  1
  Ir  Ir136  1  0.16649713  0.50365617  -0.00450776  1
  Ir  Ir137  1  0.67106915  0.00393662  0.74969954  1
  Ir  Ir138  1  0.33165781  0.34126993  0.00102479  1
  Ir  Ir139  1  -0.00330148  0.33788873  0.25498458  1
  Ir  Ir140  1  0.50161062  0.17532477  0.50115463  1
  Ir  Ir141  1  0.50623311  0.17165312  0.74196813  1
  Ir  Ir142  1  0.67328671  0.00063899  -0.00041113  1
  Ir  Ir143  1  -0.00509797  -0.00188851  0.50224125  1
  O  O144  1  0.31293761  0.32950844  0.12888327  1
  O  O145  1  0.30068775  0.32064281  0.62084427  1
  O  O146  1  0.29853764  0.64843757  0.11321398  1
  O  O147  1  0.29343594  0.64635012  0.63036507  1
  O  O148  1  0.31830120  1.00346899  0.13221452  1
  O  O149  1  0.29666708  0.99578970  0.62761140  1
  O  O150  1  0.63577444  0.33205653  0.13556891  1
  O  O151  1  0.63743192  0.32766974  0.62350553  1
  O  O152  1  0.63257675  0.65972209  0.12366303  1
  O  O153  1  0.65253397  0.65524811  0.63131540  1
  O  O154  1  0.65043443  0.99135173  0.12501712  1
  O  O155  1  0.65957115  0.99729890  0.62650430  1
  O  O156  1  0.98514044  0.33404071  0.13200278  1
  O  O157  1  0.96534693  0.32619180  0.62903214  1
  O  O158  1  0.96220084  0.65878565  0.11531274  1
  O  O159  1  0.97986473  0.66416827  0.63133372  1
  O  O160  1  0.97864715  0.99045631  0.11772599  1
  O  O161  1  0.96218217  0.99832352  0.62097218  1
  O  O162  1  0.18070158  0.17532862  0.12542389  1
  O  O163  1  0.20025371  0.16217572  0.62892183  1
  O  O164  1  0.19685084  0.49499484  0.11359271  1
  O  O165  1  0.19875020  0.48513333  0.62505532  1
  O  O166  1  0.19608883  0.81439335  0.11989225  1
  O  O167  1  0.19325687  0.81861207  0.62852087  1
  O  O168  1  0.51582855  0.18240372  0.12831002  1
  O  O169  1  0.52745582  0.17776523  0.62111689  1
  O  O170  1  0.51490430  0.48222841  0.11823333  1
  O  O171  1  0.53730772  0.48525418  0.63044427  1
  O  O172  1  0.53842383  0.81859982  0.12428478  1
  O  O173  1  0.54511574  0.82589549  0.62586716  1
  O  O174  1  0.85400963  0.17006450  0.11798978  1
  O  O175  1  0.84942640  0.15408851  0.62085428  1
  O  O176  1  0.85738519  0.49492557  0.12143166  1
  O  O177  1  0.84837396  0.48958475  0.63382187  1
  O  O178  1  0.86463042  0.82595668  0.12510871  1
  O  O179  1  0.84329579  0.84071735  0.61861643  1
  O  O180  1  0.15233844  0.17284519  0.37794128  1
  O  O181  1  0.13273994  0.17688024  0.86446453  1
  O  O182  1  0.13626050  0.49990783  0.38402555  1
  O  O183  1  0.12926299  0.51507829  0.87782453  1
  O  O184  1  0.14915015  0.83817261  0.38377447  1
  O  O185  1  0.12753403  0.83313755  0.86765267  1
  O  O186  1  0.46855256  0.18125937  0.38287878  1
  O  O187  1  0.48852989  0.16785421  0.86209128  1
  O  O188  1  0.47945334  0.50716161  0.37694484  1
  O  O189  1  0.46772669  0.50766271  0.87427495  1
  O  O190  1  0.48140154  0.84184743  0.37435028  1
  O  O191  1  0.48901578  0.84142829  0.87286575  1
  O  O192  1  0.80659775  0.18521006  0.38052649  1
  O  O193  1  0.80185096  0.17904585  0.87661792  1
  O  O194  1  0.81676651  0.49180017  0.36647627  1
  O  O195  1  0.81613294  0.49623227  0.87784093  1
  O  O196  1  0.79625836  0.84398060  0.36962138  1
  O  O197  1  0.81215269  0.83177293  0.88273538  1
  O  O198  1  0.01444861  -0.00401097  0.38362150  1
  O  O199  1  0.01773750  0.00612592  0.87924603  1
  O  O200  1  0.01100620  0.35432856  0.38191285  1
  O  O201  1  0.03290804  0.34732743  0.86697115  1
  O  O202  1  0.01190701  0.66117499  0.37228830  1
  O  O203  1  0.03053784  0.67641869  0.87587205  1
  O  O204  1  0.34799397  0.00185549  0.37231320  1
  O  O205  1  0.35363088  -0.00269332  0.87005821  1
  O  O206  1  0.36855010  0.33971456  0.37732066  1
  O  O207  1  0.35404036  0.34787901  0.88014388  1
  O  O208  1  0.37049380  0.67042191  0.37844659  1
  O  O209  1  0.36872657  0.66849351  0.88149907  1
  O  O210  1  0.70276075  0.01271464  0.36795722  1
  O  O211  1  0.69004095  0.01539010  0.87478332  1
  O  O212  1  0.70160425  0.33365117  0.38083227  1
  O  O213  1  0.69730144  0.33801239  0.86613383  1
  O  O214  1  0.69455663  0.68503831  0.37238538  1
  O  O215  1  0.68139098  0.66362450  0.87157984  1
  O  O216  1  0.06411613  0.09117269  0.00812994  1
  O  O217  1  0.07268383  0.08326970  0.52386372  1
  O  O218  1  0.07570843  0.43438369  0.00700878  1
  O  O219  1  0.07499415  0.42051873  0.53006942  1
  O  O220  1  0.06333287  0.75795723  0.02360023  1
  O  O221  1  0.07866692  0.75722301  0.51783587  1
  O  O222  1  0.41544382  0.09270657  0.00987370  1
  O  O223  1  0.40709356  0.10877924  0.52165346  1
  O  O224  1  0.39437368  0.43758967  0.02000041  1
  O  O225  1  0.40176753  0.42177466  0.53517628  1
  O  O226  1  0.39549637  0.75185063  0.02872974  1
  O  O227  1  0.39902305  0.76567518  0.53487689  1
  O  O228  1  0.74145538  0.09853296  0.01146055  1
  O  O229  1  0.74351223  0.09937771  0.51012812  1
  O  O230  1  0.74560884  0.42844134  0.01457523  1
  O  O231  1  0.73202632  0.42275173  0.53015159  1
  O  O232  1  0.74218937  0.76296605  0.02864988  1
  O  O233  1  0.73260523  0.77638506  0.51811594  1
  O  O234  1  0.09278084  0.26231672  -0.00039983  1
  O  O235  1  0.09225098  0.26725205  0.52612688  1
  O  O236  1  0.10075532  0.60269658  0.01983986  1
  O  O237  1  0.10201644  0.58876389  0.52846711  1
  O  O238  1  0.08188909  0.92178251  0.01930146  1
  O  O239  1  0.09342795  0.93042274  0.52795224  1
  O  O240  1  0.42697488  0.27672570  0.02015383  1
  O  O241  1  0.43216702  0.26952417  0.52788447  1
  O  O242  1  0.42704874  0.59407233  0.02514591  1
  O  O243  1  0.41610692  0.58153718  0.53380294  1
  O  O244  1  0.41932662  0.91488191  0.02908302  1
  O  O245  1  0.42420115  0.92774733  0.52537329  1
  O  O246  1  0.76566164  0.26065492  0.01070628  1
  O  O247  1  0.76939500  0.26917660  0.52418305  1
  O  O248  1  0.76908772  0.59479767  0.02105163  1
  O  O249  1  0.75690015  0.58726443  0.51761211  1
  O  O250  1  0.76253889  0.92164055  0.02404626  1
  O  O251  1  0.76997439  0.93609326  0.51268769  1
  O  O252  1  0.25124918  0.07806225  0.27105567  1
  O  O253  1  0.23582833  0.08142524  0.76684109  1
  O  O254  1  0.24339304  0.39941036  0.26427747  1
  O  O255  1  0.23796645  0.40588784  0.77800377  1
  O  O256  1  0.23533515  0.73395253  0.26316570  1
  O  O257  1  0.22147597  0.73204462  0.77199211  1
  O  O258  1  0.58583235  0.07640886  0.27124646  1
  O  O259  1  0.58243570  0.08157626  0.76893277  1
  O  O260  1  0.57130140  0.39563212  0.27550171  1
  O  O261  1  0.57300426  0.40068931  0.76174995  1
  O  O262  1  0.56920861  0.73560915  0.27855236  1
  O  O263  1  0.56958878  0.72649705  0.77356977  1
  O  O264  1  0.90094975  0.07019788  0.27416954  1
  O  O265  1  0.92000174  0.08474529  0.77267374  1
  O  O266  1  0.90042780  0.40253141  0.27417001  1
  O  O267  1  0.90529626  0.40064343  0.77834464  1
  O  O268  1  0.89474766  0.74091262  0.25738963  1
  O  O269  1  0.91151284  0.73618807  0.76909879  1
  O  O270  1  0.27619066  0.23996062  0.27567787  1
  O  O271  1  0.25074097  0.24335268  0.77232338  1
  O  O272  1  0.26841796  0.56541779  0.25799109  1
  O  O273  1  0.26202572  0.56937260  0.78448597  1
  O  O274  1  0.26266260  0.91108595  0.25412675  1
  O  O275  1  0.25079572  0.89449729  0.76195014  1
  O  O276  1  0.60006385  0.24289311  0.28742444  1
  O  O277  1  0.60461892  0.23827391  0.76954484  1
  O  O278  1  0.59264945  0.57290443  0.27356216  1
  O  O279  1  0.59296290  0.56990052  0.76981465  1
  O  O280  1  0.60831816  0.90610979  0.26578782  1
  O  O281  1  0.60016812  0.91588210  0.75903970  1
  O  O282  1  0.92476839  0.24912164  0.27351558  1
  O  O283  1  0.93265227  0.24634906  0.78287982  1
  O  O284  1  0.92850352  0.55900377  0.26642330  1
  O  O285  1  0.93498881  0.56678204  0.77644377  1
  O  O286  1  0.91611155  0.90493183  0.26837385  1
  O  O287  1  0.93211918  0.89763441  0.77415539  1
  O  O288  1  0.27501129  0.23807379  0.48017626  1
  O  O289  1  0.25951625  0.25464900  0.97582004  1
  O  O290  1  0.25374872  0.56587101  0.48629420  1
  O  O291  1  0.26377451  0.56704273  0.96843959  1
  O  O292  1  0.25229712  0.90374857  0.49720513  1
  O  O293  1  0.25711338  0.90417135  0.99170015  1
  O  O294  1  0.59978998  0.23810153  0.47097984  1
  O  O295  1  0.60044051  0.23784202  0.97308722  1
  O  O296  1  0.58984319  0.57512082  0.48662961  1
  O  O297  1  0.58236240  0.56701439  0.97963358  1
  O  O298  1  0.60598874  0.90172419  0.48160224  1
  O  O299  1  0.60329827  0.90987871  0.99290050  1
  O  O300  1  0.92573872  0.24223400  0.47905009  1
  O  O301  1  0.92231638  0.23875206  0.96958387  1
  O  O302  1  0.93351217  0.56142240  0.48203073  1
  O  O303  1  0.93397422  0.56673140  0.97389733  1
  O  O304  1  0.92081714  0.90853069  0.47340637  1
  O  O305  1  0.93222877  0.89720053  0.98015386  1
  O  O306  1  0.24574023  0.08029796  0.48441477  1
  O  O307  1  0.24171564  0.07794753  0.98347780  1
  O  O308  1  0.23759394  0.39893935  0.48737284  1
  O  O309  1  0.23393642  0.40991098  0.96735258  1
  O  O310  1  0.23227318  0.74091034  0.49153720  1
  O  O311  1  0.23617285  0.72367983  0.97298878  1
  O  O312  1  0.57395733  0.08563661  0.47608626  1
  O  O313  1  0.58802562  0.07679092  0.98565931  1
  O  O314  1  0.56945601  0.39042805  0.48392440  1
  O  O315  1  0.56455910  0.40713767  0.98404383  1
  O  O316  1  0.56779353  0.73388028  0.47006950  1
  O  O317  1  0.56033231  0.72615360  0.97864765  1
  O  O318  1  0.89663975  0.06735849  0.47845667  1
  O  O319  1  0.90839646  0.07875753  0.97460369  1
  O  O320  1  0.89669396  0.39368644  0.49234524  1
  O  O321  1  0.90508082  0.40667496  0.97261010  1
  O  O322  1  0.89940990  0.74672318  0.48651760  1
  O  O323  1  0.90594682  0.73767525  0.97723921  1
  O  O324  1  0.08531566  0.26733671  0.24328070  1
  O  O325  1  0.09795795  0.26644662  0.72319704  1
  O  O326  1  0.09939472  0.59664100  0.22310879  1
  O  O327  1  0.09857947  0.60258052  0.73147562  1
  O  O328  1  0.08248165  0.91533121  0.22678099  1
  O  O329  1  0.10035114  0.92594494  0.72105966  1
  O  O330  1  0.43613633  0.27630796  0.23977515  1
  O  O331  1  0.43083026  0.26121834  0.72061976  1
  O  O332  1  0.43087898  0.59618810  0.21642798  1
  O  O333  1  0.42761892  0.58304712  0.73219821  1
  O  O334  1  0.42103258  0.92721434  0.22837246  1
  O  O335  1  0.42030305  0.92219122  0.71712275  1
  O  O336  1  0.75573089  0.26414448  0.24048269  1
  O  O337  1  0.76751121  0.27301672  0.72950335  1
  O  O338  1  0.77212587  0.59371221  0.22266732  1
  O  O339  1  0.75830833  0.58683217  0.72899140  1
  O  O340  1  0.76217056  0.92799798  0.22668441  1
  O  O341  1  0.76087357  0.93214656  0.72700761  1
  O  O342  1  0.07680180  0.08932293  0.23878377  1
  O  O343  1  0.08487091  0.08916931  0.72402038  1
  O  O344  1  0.06579434  0.42965279  0.24576093  1
  O  O345  1  0.07429870  0.41918481  0.72568945  1
  O  O346  1  0.06752933  0.75840661  0.21626235  1
  O  O347  1  0.06765450  0.76084250  0.72819655  1
  O  O348  1  0.40765015  0.09204403  0.24802410  1
  O  O349  1  0.41030550  0.10648929  0.71939192  1
  O  O350  1  0.40118349  0.42779572  0.22317616  1
  O  O351  1  0.40931853  0.42802662  0.72333909  1
  O  O352  1  0.40436945  0.76123737  0.20947704  1
  O  O353  1  0.39735324  0.76246323  0.72470298  1
  O  O354  1  0.73694420  0.09552447  0.23671527  1
  O  O355  1  0.74682632  0.08850186  0.73600039  1
  O  O356  1  0.73693237  0.42638144  0.23210458  1
  O  O357  1  0.73684856  0.42931296  0.72326064  1
  O  O358  1  0.73878379  0.76610185  0.21692572  1
  O  O359  1  0.73031940  0.75989362  0.73021264  1
