# generated using pymatgen
data_BaLaInIrO6
_symmetry_space_group_name_H-M   'P 1'
_cell_length_a   17.53023323
_cell_length_b   17.55096508
_cell_length_c   16.49715139
_cell_angle_alpha   90.00689065
_cell_angle_beta   89.97057097
_cell_angle_gamma   90.04245067
_symmetry_Int_Tables_number   1
_chemical_formula_structural   BaLaInIrO6
_chemical_formula_sum   'Ba36 La36 In36 Ir36 O216'
_cell_volume   5075.71789798
_cell_formula_units_Z   36
loop_
 _symmetry_equiv_pos_site_id
 _symmetry_equiv_pos_as_xyz
  1  'x, y, z'
loop_
 _atom_site_type_symbol
 _atom_site_label
 _atom_site_symmetry_multiplicity
 _atom_site_fract_x
 _atom_site_fract_y
 _atom_site_fract_z
 _atom_site_occupancy
  Ba  Ba0  1  0.50070020  0.67591008  0.62325299  1
  Ba  Ba1  1  1.00214135  0.50596994  0.12083027  1
  Ba  Ba2  1  0.49463982  0.34274732  0.12470595  1
  Ba  Ba3  1  0.00421380  0.82379644  0.37684912  1
  Ba  Ba4  1  0.49855912  0.32490260  0.37530498  1
  Ba  Ba5  1  0.17576874  0.65780809  0.87571820  1
  Ba  Ba6  1  0.66850794  0.50790666  0.12589398  1
  Ba  Ba7  1  0.16214935  0.01466920  0.62199446  1
  Ba  Ba8  1  0.50378575  0.99049893  0.88033469  1
  Ba  Ba9  1  1.00489558  0.85049639  0.62683597  1
  Ba  Ba10  1  0.16516254  0.32065565  0.86888937  1
  Ba  Ba11  1  1.00190105  0.17259681  0.12482402  1
  Ba  Ba12  1  0.83260956  0.67974932  0.62480221  1
  Ba  Ba13  1  0.66572042  0.49106613  0.37468194  1
  Ba  Ba14  1  0.83392318  0.32211663  0.87310748  1
  Ba  Ba15  1  0.83619131  0.99064992  0.37380216  1
  Ba  Ba16  1  0.66501418  0.15959339  0.37972411  1
  Ba  Ba17  1  0.32718419  0.82172713  0.37854216  1
  Ba  Ba18  1  0.16808386  0.31648079  0.37636712  1
  Ba  Ba19  1  0.66445031  0.82596998  0.87393692  1
  Ba  Ba20  1  0.49948600  0.34301902  0.62278448  1
  Ba  Ba21  1  1.00450069  0.84385685  0.12743787  1
  Ba  Ba22  1  0.66399725  0.83684934  0.12640131  1
  Ba  Ba23  1  0.33032383  0.82052399  0.87322209  1
  Ba  Ba24  1  0.16485686  0.67529967  0.12611842  1
  Ba  Ba25  1  1.00455252  0.51065035  0.62428569  1
  Ba  Ba26  1  0.16814890  0.01202253  0.12724603  1
  Ba  Ba27  1  0.49887302  0.65524479  0.87027946  1
  Ba  Ba28  1  0.83285802  0.67387365  0.12905674  1
  Ba  Ba29  1  0.50027274  0.65692840  0.37558724  1
  Ba  Ba30  1  0.16038437  0.33972360  0.12301171  1
  Ba  Ba31  1  0.33112700  0.17579052  0.11806973  1
  Ba  Ba32  1  0.83627467  0.99259857  0.87825332  1
  Ba  Ba33  1  -0.00064102  0.15877811  0.87714933  1
  Ba  Ba34  1  0.82910783  0.33648436  0.11995981  1
  Ba  Ba35  1  0.16454344  0.34113405  0.62325637  1
  La  La36  1  0.83885277  0.31764727  0.37698236  1
  La  La37  1  -0.00227612  0.82281406  0.87854060  1
  La  La38  1  0.82892627  0.35086644  0.62620880  1
  La  La39  1  0.00599215  0.48684067  0.88060293  1
  La  La40  1  0.83445847  0.01133722  0.12528085  1
  La  La41  1  -0.00329423  0.15028231  0.37425033  1
  La  La42  1  0.34260638  0.84958182  0.13105636  1
  La  La43  1  0.16010793  0.68573784  0.62864009  1
  La  La44  1  0.33886935  0.51213808  0.12597141  1
  La  La45  1  0.67193103  0.85288099  0.62263515  1
  La  La46  1  0.66455071  0.15238911  0.87872468  1
  La  La47  1  0.66544234  0.82051351  0.37655232  1
  La  La48  1  0.67060914  0.17304257  0.12685285  1
  La  La49  1  0.66800334  0.51491716  0.62492328  1
  La  La50  1  0.66736761  0.18168660  0.62805095  1
  La  La51  1  0.83872764  0.65009336  0.37595582  1
  La  La52  1  0.66592123  0.49049857  0.87123535  1
  La  La53  1  0.17307969  0.64851450  0.37506603  1
  La  La54  1  0.49888957  0.32355346  0.87246355  1
  La  La55  1  0.32690888  0.48571329  0.87229908  1
  La  La56  1  0.32835749  0.15248706  0.37525468  1
  La  La57  1  0.49786224  0.00625247  0.62732308  1
  La  La58  1  0.00288343  0.49009732  0.36946592  1
  La  La59  1  0.33358508  0.18411524  0.62353599  1
  La  La60  1  0.83476815  0.00994712  0.62577637  1
  La  La61  1  0.32166474  0.15397028  0.86942602  1
  La  La62  1  0.33167813  0.84791452  0.62747882  1
  La  La63  1  0.33019677  0.48066080  0.37630407  1
  La  La64  1  0.33686681  0.51740752  0.62678261  1
  La  La65  1  0.16255600  0.99269392  0.37321670  1
  La  La66  1  1.00215547  0.17463409  0.62635141  1
  La  La67  1  0.49227888  0.01859855  0.12850551  1
  La  La68  1  0.16819009  0.99199061  0.87517516  1
  La  La69  1  0.50655279  0.98838663  0.37663309  1
  La  La70  1  0.49730627  0.67490319  0.12473358  1
  La  La71  1  0.83680741  0.65863434  0.88599052  1
  In  In72  1  0.33547570  -0.00160477  -0.00316583  1
  In  In73  1  0.83515899  0.50307139  0.75040461  1
  In  In74  1  0.66441826  -0.00342084  0.00598540  1
  In  In75  1  0.66881937  0.67055835  0.74817632  1
  In  In76  1  0.49784476  0.49943611  0.50040584  1
  In  In77  1  0.49693096  0.16599479  0.75085372  1
  In  In78  1  0.49950941  0.50060623  0.25013077  1
  In  In79  1  0.00006337  0.33234197  0.49995559  1
  In  In80  1  0.83210296  0.16418773  0.25247997  1
  In  In81  1  -0.00329907  0.33219884  0.74636813  1
  In  In82  1  0.49837696  0.16450492  0.50033225  1
  In  In83  1  0.83515087  0.83622108  0.75002290  1
  In  In84  1  0.66719182  0.66577180  -0.00083089  1
  In  In85  1  0.66581484  -0.00258334  0.25131545  1
  In  In86  1  0.66743291  0.00387565  0.75141807  1
  In  In87  1  0.16851536  0.50189852  0.74575163  1
  In  In88  1  0.00172547  0.66679540  0.25079758  1
  In  In89  1  0.32936371  0.32986560  0.24672467  1
  In  In90  1  0.66865696  0.33401010  0.49818715  1
  In  In91  1  0.83698192  0.83443314  0.49873153  1
  In  In92  1  0.49879794  0.83276343  0.25438972  1
  In  In93  1  0.17131689  0.83339713  0.24975757  1
  In  In94  1  0.16982972  0.83444500  0.00072783  1
  In  In95  1  0.49677110  0.83361551  0.50113808  1
  In  In96  1  0.66780456  0.66907047  0.49841607  1
  In  In97  1  -0.00136554  0.33134795  -0.00122875  1
  In  In98  1  0.49912154  0.83296793  0.74977523  1
  In  In99  1  0.49673999  0.17033598  -0.00342309  1
  In  In100  1  0.66158246  0.33148329  -0.00378203  1
  In  In101  1  0.83216739  0.49924753  -0.00050508  1
  In  In102  1  0.00163333  0.66564655  0.75222070  1
  In  In103  1  0.16720931  0.83558816  0.50077435  1
  In  In104  1  0.49768246  0.50008301  -0.00492437  1
  In  In105  1  0.83292799  0.49425297  0.25126114  1
  In  In106  1  0.83405352  0.83550655  0.00476219  1
  In  In107  1  0.00093979  0.33078334  0.25227668  1
  Ir  Ir108  1  0.49668622  0.49572489  0.74948043  1
  Ir  Ir109  1  0.32871783  0.33693981  -0.00500303  1
  Ir  Ir110  1  0.17206539  0.50078368  0.00018246  1
  Ir  Ir111  1  0.33014649  0.66634138  0.74605552  1
  Ir  Ir112  1  0.16853459  0.16407748  0.74656472  1
  Ir  Ir113  1  0.16766564  0.16509523  -0.00339801  1
  Ir  Ir114  1  0.16694327  0.83987645  0.75098053  1
  Ir  Ir115  1  0.33364938  0.00370551  0.50228982  1
  Ir  Ir116  1  0.00002036  -0.00087880  0.25008143  1
  Ir  Ir117  1  0.33357830  0.66555864  0.00289755  1
  Ir  Ir118  1  0.49756329  0.16585513  0.25180526  1
  Ir  Ir119  1  0.16580001  0.16034885  0.25371345  1
  Ir  Ir120  1  0.33443672  0.33393852  0.74772325  1
  Ir  Ir121  1  0.66471143  0.32683663  0.24939094  1
  Ir  Ir122  1  0.33822604  0.00411551  0.25414843  1
  Ir  Ir123  1  0.00688021  0.66629900  -0.00314936  1
  Ir  Ir124  1  0.00349774  0.00239996  -0.00001560  1
  Ir  Ir125  1  0.83119010  0.16255966  0.00006056  1
  Ir  Ir126  1  0.17032574  0.50161273  0.49770740  1
  Ir  Ir127  1  0.33164394  0.66375191  0.25190667  1
  Ir  Ir128  1  0.32835575  0.33321269  0.50307865  1
  Ir  Ir129  1  0.00541001  0.66175926  0.49954592  1
  Ir  Ir130  1  -0.00047281  0.00550855  0.50097290  1
  Ir  Ir131  1  0.83362644  0.16465440  0.74628514  1
  Ir  Ir132  1  0.00343480  0.00393015  0.75242702  1
  Ir  Ir133  1  0.83571831  0.49986302  0.49886547  1
  Ir  Ir134  1  0.32644467  0.66454378  0.50056690  1
  Ir  Ir135  1  0.16710061  0.16265598  0.49936600  1
  Ir  Ir136  1  0.66621343  0.00317122  0.50081243  1
  Ir  Ir137  1  0.32974615  0.00202727  0.74296044  1
  Ir  Ir138  1  0.17073061  0.50036739  0.25107565  1
  Ir  Ir139  1  0.49524172  0.82777483  0.00435946  1
  Ir  Ir140  1  0.83375686  0.83353832  0.25253616  1
  Ir  Ir141  1  0.66917591  0.66908619  0.25280768  1
  Ir  Ir142  1  0.66606395  0.33400563  0.74841923  1
  Ir  Ir143  1  0.83531620  0.16485559  0.50479572  1
  O  O144  1  0.30789109  0.33082756  0.11545387  1
  O  O145  1  0.30840139  0.31999879  0.62594818  1
  O  O146  1  0.31075143  0.64974329  0.12743845  1
  O  O147  1  0.29595715  0.65629212  0.62342703  1
  O  O148  1  0.31907311  0.99389881  0.13236876  1
  O  O149  1  0.30634225  0.98733708  0.62236069  1
  O  O150  1  0.64308397  0.31180175  0.12769722  1
  O  O151  1  0.65012346  0.32007863  0.62962903  1
  O  O152  1  0.63628850  0.66421634  0.13272383  1
  O  O153  1  0.64787206  0.65020963  0.62264943  1
  O  O154  1  0.62474936  0.99744633  0.12909028  1
  O  O155  1  0.63507199  0.99648935  0.61877852  1
  O  O156  1  0.98524626  0.33330408  0.12596397  1
  O  O157  1  0.96809387  0.31533285  0.62077506  1
  O  O158  1  0.98660392  0.66096524  0.11725682  1
  O  O159  1  0.98426325  0.66530062  0.61835350  1
  O  O160  1  0.97145561  0.99786112  0.12492729  1
  O  O161  1  0.97302200  1.00604246  0.62642164  1
  O  O162  1  0.18562685  0.16993572  0.12384304  1
  O  O163  1  0.19809490  0.16803973  0.62307326  1
  O  O164  1  0.20257840  0.49611221  0.12821947  1
  O  O165  1  0.20104573  0.49696549  0.61615635  1
  O  O166  1  0.20469455  0.83764530  0.12617867  1
  O  O167  1  0.19361260  0.83073458  0.62832770  1
  O  O168  1  0.52880524  0.16064823  0.13056544  1
  O  O169  1  0.52955968  0.14852851  0.62667870  1
  O  O170  1  0.51302176  0.50328724  0.12336135  1
  O  O171  1  0.52759344  0.49710851  0.63140391  1
  O  O172  1  0.50980513  0.81676271  0.12617200  1
  O  O173  1  0.53008100  0.84348811  0.62194728  1
  O  O174  1  0.85073052  0.16250494  0.12074257  1
  O  O175  1  0.86579473  0.15443001  0.62516719  1
  O  O176  1  0.85174455  0.49500977  0.12711181  1
  O  O177  1  0.85551556  0.49301040  0.61667442  1
  O  O178  1  0.85850947  0.82829353  0.13498489  1
  O  O179  1  0.85887651  0.84304066  0.62323477  1
  O  O180  1  0.13571962  0.15378480  0.37685714  1
  O  O181  1  0.14980936  0.15211752  0.87176098  1
  O  O182  1  0.13978405  0.51005050  0.37479948  1
  O  O183  1  0.14595577  0.50438327  0.87952689  1
  O  O184  1  0.15872137  0.85279480  0.37597629  1
  O  O185  1  0.13782031  0.84605810  0.87080554  1
  O  O186  1  0.46625465  0.16741091  0.37243978  1
  O  O187  1  0.45620443  0.17974346  0.87151015  1
  O  O188  1  0.46573590  0.49877293  0.37440099  1
  O  O189  1  0.46253847  0.49600492  0.86666370  1
  O  O190  1  0.47184458  0.85199054  0.37798775  1
  O  O191  1  0.47778431  0.83417782  0.88376926  1
  O  O192  1  0.81239982  0.17162389  0.38465564  1
  O  O193  1  0.80235967  0.16365503  0.87055937  1
  O  O194  1  0.81504143  0.50701844  0.38075009  1
  O  O195  1  0.79982599  0.51613542  0.87270336  1
  O  O196  1  0.80356566  0.83919544  0.37190301  1
  O  O197  1  0.81874392  0.83839418  0.87691078  1
  O  O198  1  0.02727249  0.01253148  0.37609829  1
  O  O199  1  0.03360315  0.00681760  0.87655749  1
  O  O200  1  0.02150653  0.34959313  0.37806829  1
  O  O201  1  0.01495377  0.34028766  0.87188899  1
  O  O202  1  0.03526294  0.65954103  0.38275921  1
  O  O203  1  0.02867834  0.68064875  0.87980318  1
  O  O204  1  0.36792403  0.01604751  0.37996784  1
  O  O205  1  0.35342608  0.01434772  0.86289425  1
  O  O206  1  0.34712552  0.34006894  0.38171109  1
  O  O207  1  0.36172797  0.34666625  0.87076523  1
  O  O208  1  0.35294979  0.66825811  0.37686616  1
  O  O209  1  0.35238506  0.66939561  0.87754521  1
  O  O210  1  0.68796170  0.00817792  0.38232303  1
  O  O211  1  0.68764340  0.01026144  0.87958904  1
  O  O212  1  0.69944576  0.32945041  0.37063230  1
  O  O213  1  0.68640420  0.34981429  0.86491934  1
  O  O214  1  0.70189023  0.67963059  0.37166155  1
  O  O215  1  0.70147698  0.67165562  0.87168514  1
  O  O216  1  0.07592293  0.09401653  0.01892443  1
  O  O217  1  0.06571251  0.10206533  0.51915243  1
  O  O218  1  0.08179505  0.43069862  0.00931476  1
  O  O219  1  0.07814315  0.43338535  0.51325446  1
  O  O220  1  0.07358593  0.76059702  0.01391337  1
  O  O221  1  0.07432483  0.75401191  0.52091199  1
  O  O222  1  0.41548494  0.08443645  0.02058452  1
  O  O223  1  0.39585112  0.09734571  0.52564513  1
  O  O224  1  0.38951126  0.43386876  0.01519563  1
  O  O225  1  0.39173600  0.42908323  0.52322874  1
  O  O226  1  0.39747091  0.76204215  0.03041026  1
  O  O227  1  0.39091468  0.76177077  0.52699148  1
  O  O228  1  0.74387230  0.09339052  0.02937420  1
  O  O229  1  0.73696345  0.09851131  0.53355272  1
  O  O230  1  0.73649118  0.42202974  0.01015078  1
  O  O231  1  0.74095805  0.43476968  0.52616964  1
  O  O232  1  0.74106331  0.76049017  0.01751528  1
  O  O233  1  0.73278746  0.77365825  0.51989079  1
  O  O234  1  0.09424890  0.25178345  0.00556211  1
  O  O235  1  0.09363065  0.24954860  0.51958420  1
  O  O236  1  0.09967451  0.59144223  0.01792420  1
  O  O237  1  0.10638194  0.59872556  0.52235843  1
  O  O238  1  0.09407726  0.93583463  0.01204497  1
  O  O239  1  0.09201208  0.93600601  0.50854515  1
  O  O240  1  0.42026010  0.26968894  0.01061729  1
  O  O241  1  0.41598438  0.25914568  0.52166845  1
  O  O242  1  0.42695382  0.60124491  0.02316002  1
  O  O243  1  0.41387934  0.59230650  0.52320904  1
  O  O244  1  0.42774532  0.92023013  0.02983757  1
  O  O245  1  0.42828011  0.93935095  0.52555461  1
  O  O246  1  0.75098174  0.24342457  0.01177116  1
  O  O247  1  0.77066043  0.25897510  0.52669770  1
  O  O248  1  0.76851953  0.60016530  0.01280915  1
  O  O249  1  0.77311871  0.59653380  0.50765926  1
  O  O250  1  0.76740286  0.93471523  0.03159701  1
  O  O251  1  0.75893341  0.93847715  0.52575877  1
  O  O252  1  0.24037486  0.06950113  0.28073509  1
  O  O253  1  0.23841938  0.07189483  0.77151080  1
  O  O254  1  0.23719329  0.41005141  0.27163820  1
  O  O255  1  0.24792638  0.40712322  0.76832637  1
  O  O256  1  0.23794768  0.72798361  0.27551436  1
  O  O257  1  0.23310292  0.73801400  0.75775985  1
  O  O258  1  0.56022262  0.07078447  0.27262999  1
  O  O259  1  0.57911848  0.08399704  0.78039455  1
  O  O260  1  0.57808223  0.40129814  0.26377468  1
  O  O261  1  0.56617471  0.40049490  0.77433197  1
  O  O262  1  0.58130937  0.74175047  0.27114151  1
  O  O263  1  0.56803860  0.73642933  0.76340657  1
  O  O264  1  0.91063430  0.07036896  0.26343419  1
  O  O265  1  0.89941171  0.06620471  0.75927712  1
  O  O266  1  0.90342354  0.40106167  0.28390638  1
  O  O267  1  0.89404976  0.39821981  0.74990282  1
  O  O268  1  0.89914794  0.73872252  0.27852646  1
  O  O269  1  0.90548811  0.73587125  0.77678355  1
  O  O270  1  0.26092403  0.22703488  0.27326265  1
  O  O271  1  0.26851551  0.23122284  0.76573678  1
  O  O272  1  0.26801873  0.56592966  0.27595100  1
  O  O273  1  0.27154918  0.56782246  0.76643162  1
  O  O274  1  0.27035901  0.91372315  0.26771049  1
  O  O275  1  0.25967062  0.91005023  0.76807107  1
  O  O276  1  0.59182211  0.23364710  0.26917952  1
  O  O277  1  0.59982342  0.24151632  0.77210238  1
  O  O278  1  0.59615061  0.58102994  0.26947298  1
  O  O279  1  0.59198046  0.55806788  0.77120584  1
  O  O280  1  0.59567114  0.90378484  0.28299195  1
  O  O281  1  0.58853010  0.91322781  0.76256946  1
  O  O282  1  0.92556048  0.23625337  0.28271436  1
  O  O283  1  0.92568103  0.22805856  0.76098540  1
  O  O284  1  0.92884477  0.57346527  0.27878433  1
  O  O285  1  0.93880207  0.56400297  0.77960256  1
  O  O286  1  0.92956486  0.90276168  0.26952713  1
  O  O287  1  0.94344471  0.90765374  0.77514061  1
  O  O288  1  0.26534848  0.22845910  0.48055808  1
  O  O289  1  0.26330260  0.23623970  0.96998266  1
  O  O290  1  0.26339968  0.56842654  0.46994941  1
  O  O291  1  0.27220131  0.56526585  0.98268150  1
  O  O292  1  0.26830439  0.91049212  0.49140346  1
  O  O293  1  0.25441366  0.91580316  0.97089707  1
  O  O294  1  0.59565881  0.23586170  0.49582175  1
  O  O295  1  0.58820434  0.24185354  0.95820801  1
  O  O296  1  0.59203748  0.57407734  0.48518750  1
  O  O297  1  0.59916251  0.56513253  0.97080613  1
  O  O298  1  0.60226230  0.91057368  0.47430533  1
  O  O299  1  0.58505819  0.89810488  0.98853001  1
  O  O300  1  0.92793082  0.22995922  0.47411977  1
  O  O301  1  0.91528795  0.23814977  0.98507549  1
  O  O302  1  0.93556094  0.56459365  0.47247428  1
  O  O303  1  0.93780146  0.57736944  0.96942459  1
  O  O304  1  0.93155707  0.91417418  0.48203408  1
  O  O305  1  0.94002997  0.90743983  0.97982545  1
  O  O306  1  0.23811772  0.07012932  0.47155992  1
  O  O307  1  0.24210228  0.07879127  0.97946401  1
  O  O308  1  0.23936505  0.40987726  0.47399457  1
  O  O309  1  0.23971619  0.40900208  0.97164544  1
  O  O310  1  0.23217036  0.72897342  0.48243255  1
  O  O311  1  0.24540186  0.73649982  0.98798483  1
  O  O312  1  0.56593551  0.06171350  0.47993648  1
  O  O313  1  0.58142670  0.08408047  0.98254030  1
  O  O314  1  0.57325527  0.40555257  0.48512790  1
  O  O315  1  0.56067884  0.39909093  0.97256612  1
  O  O316  1  0.57707927  0.74833575  0.47163433  1
  O  O317  1  0.55975705  0.73345070  0.99376824  1
  O  O318  1  0.90653304  0.07483838  0.48158024  1
  O  O319  1  0.90726815  0.07074254  0.99132172  1
  O  O320  1  0.89273882  0.39830642  0.48355562  1
  O  O321  1  0.91657207  0.41760980  0.97139597  1
  O  O322  1  0.90984125  0.72748463  0.47510091  1
  O  O323  1  0.91603519  0.73661704  0.97689798  1
  O  O324  1  0.09607384  0.25063074  0.24126305  1
  O  O325  1  0.09288548  0.24947147  0.72694151  1
  O  O326  1  0.10323839  0.59060086  0.24131978  1
  O  O327  1  0.10407256  0.60296735  0.72555966  1
  O  O328  1  0.09456585  0.93398562  0.24299683  1
  O  O329  1  0.10501963  0.94158902  0.74383112  1
  O  O330  1  0.42768947  0.25498101  0.23346196  1
  O  O331  1  0.42155979  0.26135597  0.72659621  1
  O  O332  1  0.42519019  0.60119587  0.22623199  1
  O  O333  1  0.42335284  0.59020785  0.72329000  1
  O  O334  1  0.43129015  0.93627386  0.22834267  1
  O  O335  1  0.41870460  0.92934770  0.71944436  1
  O  O336  1  0.75097575  0.25364851  0.23167096  1
  O  O337  1  0.76474361  0.26309895  0.72194723  1
  O  O338  1  0.75679045  0.59609294  0.24370262  1
  O  O339  1  0.75503676  0.58642869  0.71975003  1
  O  O340  1  0.76969526  0.92834697  0.22699370  1
  O  O341  1  0.76418656  0.93693744  0.72106212  1
  O  O342  1  0.06786753  0.09447103  0.23898208  1
  O  O343  1  0.06856521  0.10044599  0.72652586  1
  O  O344  1  0.07701611  0.43430353  0.23958394  1
  O  O345  1  0.07484268  0.42662435  0.73667847  1
  O  O346  1  0.07569885  0.75992064  0.23955464  1
  O  O347  1  0.07903007  0.76812548  0.73389108  1
  O  O348  1  0.40595602  0.09643088  0.22911715  1
  O  O349  1  0.39847179  0.09131878  0.71599325  1
  O  O350  1  0.39644187  0.43091685  0.23215739  1
  O  O351  1  0.39782694  0.43109803  0.72412207  1
  O  O352  1  0.39666977  0.75921812  0.22925738  1
  O  O353  1  0.39390069  0.76290103  0.72394258  1
  O  O354  1  0.73942785  0.09023484  0.22228585  1
  O  O355  1  0.73874633  0.10403663  0.72342347  1
  O  O356  1  0.73562327  0.41448845  0.23288624  1
  O  O357  1  0.72985115  0.42646450  0.72198484  1
  O  O358  1  0.73822462  0.76637856  0.23760639  1
  O  O359  1  0.73196455  0.77397166  0.71927086  1
