# generated using pymatgen
data_BaLaInIrO6
_symmetry_space_group_name_H-M   'P 1'
_cell_length_a   17.55344222
_cell_length_b   17.58507168
_cell_length_c   16.49825365
_cell_angle_alpha   90.00547176
_cell_angle_beta   89.99654701
_cell_angle_gamma   90.07187220
_symmetry_Int_Tables_number   1
_chemical_formula_structural   BaLaInIrO6
_chemical_formula_sum   'Ba36 La36 In36 Ir36 O216'
_cell_volume   5092.65280534
_cell_formula_units_Z   36
loop_
 _symmetry_equiv_pos_site_id
 _symmetry_equiv_pos_as_xyz
  1  'x, y, z'
loop_
 _atom_site_type_symbol
 _atom_site_label
 _atom_site_symmetry_multiplicity
 _atom_site_fract_x
 _atom_site_fract_y
 _atom_site_fract_z
 _atom_site_occupancy
  Ba  Ba0  1  0.99864445  0.17024675  0.62753816  1
  Ba  Ba1  1  0.66498843  0.82032109  0.36896171  1
  Ba  Ba2  1  0.83308567  0.34277223  0.62432540  1
  Ba  Ba3  1  0.33439951  0.15615688  0.87637498  1
  Ba  Ba4  1  0.49918474  0.34222856  0.12706193  1
  Ba  Ba5  1  0.66808739  0.83907973  0.61866099  1
  Ba  Ba6  1  0.33923303  0.84049924  0.62254739  1
  Ba  Ba7  1  0.50176567  0.98698133  0.87796281  1
  Ba  Ba8  1  0.33655491  0.50560487  0.12277380  1
  Ba  Ba9  1  0.16929192  0.00699827  0.62549417  1
  Ba  Ba10  1  0.50165762  0.67415805  0.62408100  1
  Ba  Ba11  1  0.66759913  0.18617622  0.12482638  1
  Ba  Ba12  1  1.00332302  0.51291394  0.12696897  1
  Ba  Ba13  1  0.83248560  0.00653260  0.12568722  1
  Ba  Ba14  1  0.16000531  0.33885535  0.62850301  1
  Ba  Ba15  1  0.83616751  0.67507309  0.13279245  1
  Ba  Ba16  1  0.00285678  0.15984054  0.37914333  1
  Ba  Ba17  1  0.66221023  0.82447215  0.87558567  1
  Ba  Ba18  1  0.16459336  0.00447949  0.12314600  1
  Ba  Ba19  1  0.16440845  0.32189157  0.87765584  1
  Ba  Ba20  1  0.33157967  0.15156001  0.37071700  1
  Ba  Ba21  1  0.50240226  0.65971811  0.37792993  1
  Ba  Ba22  1  -0.00546960  0.49087597  0.37289942  1
  Ba  Ba23  1  1.00110265  0.84330947  0.61989976  1
  Ba  Ba24  1  -0.00102333  0.15828694  0.87012312  1
  Ba  Ba25  1  0.49886649  0.66193698  0.87544659  1
  Ba  Ba26  1  0.16937845  0.66214194  0.87614534  1
  Ba  Ba27  1  0.83361034  0.98778507  0.87612804  1
  Ba  Ba28  1  0.49613540  0.00352681  0.62561842  1
  Ba  Ba29  1  0.83447757  0.65575795  0.37584037  1
  Ba  Ba30  1  0.66903607  0.51131037  0.62595837  1
  Ba  Ba31  1  0.33332098  0.82852034  0.87107101  1
  Ba  Ba32  1  1.00008350  0.84283138  0.12441460  1
  Ba  Ba33  1  0.66428662  0.49361233  0.37790428  1
  Ba  Ba34  1  0.33528331  0.82430204  0.37394155  1
  Ba  Ba35  1  0.50137625  0.01100365  0.12511222  1
  La  La36  1  -0.00136674  0.82084057  0.36985853  1
  La  La37  1  0.33414931  0.17705821  0.62395571  1
  La  La38  1  0.65361607  0.15274702  0.87966679  1
  La  La39  1  0.50650287  0.32119004  0.88489357  1
  La  La40  1  0.17273872  0.65259754  0.37452113  1
  La  La41  1  0.49008459  0.34388223  0.62364775  1
  La  La42  1  -0.00809956  0.48488712  0.87178160  1
  La  La43  1  0.15984501  0.68861695  0.12773578  1
  La  La44  1  0.16997416  0.98433466  0.37606282  1
  La  La45  1  0.32806617  0.48657317  0.38061742  1
  La  La46  1  0.67480587  0.84304273  0.12587246  1
  La  La47  1  0.34168674  0.18115122  0.12421339  1
  La  La48  1  1.00584315  0.17632045  0.11999299  1
  La  La49  1  0.17256605  0.98961191  0.87192834  1
  La  La50  1  0.99815439  0.51563202  0.62419067  1
  La  La51  1  0.83235422  0.32427101  0.37358649  1
  La  La52  1  0.67408307  0.18064069  0.61928997  1
  La  La53  1  0.83806974  0.66205802  0.87403558  1
  La  La54  1  0.66793730  0.51467983  0.13000959  1
  La  La55  1  0.32932642  0.48162039  0.87355504  1
  La  La56  1  0.33756605  0.84799982  0.12327509  1
  La  La57  1  0.82723640  0.01528240  0.62412584  1
  La  La58  1  0.50518990  0.31972591  0.37015967  1
  La  La59  1  0.83593741  0.31898598  0.87882572  1
  La  La60  1  0.83823713  0.97967844  0.37682626  1
  La  La61  1  0.66042189  0.15517435  0.36918402  1
  La  La62  1  0.82721909  0.68077370  0.62376678  1
  La  La63  1  0.50115579  0.68358188  0.12655730  1
  La  La64  1  0.17575611  0.31078944  0.38046312  1
  La  La65  1  0.16447457  0.68363099  0.62497090  1
  La  La66  1  0.33711268  0.51478872  0.63039010  1
  La  La67  1  0.82984117  0.35224349  0.13103802  1
  La  La68  1  0.00985512  0.83423432  0.87801671  1
  La  La69  1  0.66596998  0.48863736  0.87706447  1
  La  La70  1  0.16316829  0.34474877  0.12320975  1
  La  La71  1  0.50136747  0.98189377  0.37067959  1
  In  In72  1  0.16893347  0.16221507  0.24429387  1
  In  In73  1  0.49992687  0.49983444  0.75440891  1
  In  In74  1  -0.00168693  0.66932603  0.74891590  1
  In  In75  1  0.66492912  -0.00092980  0.74595665  1
  In  In76  1  -0.00022606  0.66704545  0.49934600  1
  In  In77  1  0.66732559  0.00010866  0.00155179  1
  In  In78  1  -0.00084019  0.00174314  0.25169366  1
  In  In79  1  0.00039087  -0.00267377  0.74852010  1
  In  In80  1  0.33358111  0.66490023  0.00224086  1
  In  In81  1  0.66708827  0.00113176  0.25057701  1
  In  In82  1  0.83352078  0.16621299  0.25203387  1
  In  In83  1  0.33344230  0.66592692  0.49919542  1
  In  In84  1  0.49951559  0.49766483  0.50009147  1
  In  In85  1  0.82639126  0.16647045  0.75061618  1
  In  In86  1  0.00082806  0.33460463  0.49818935  1
  In  In87  1  -0.00369623  0.33433924  0.74879879  1
  In  In88  1  0.83217844  0.16719165  0.00161701  1
  In  In89  1  0.66368873  0.33512169  0.75120672  1
  In  In90  1  0.33526388  0.00149611  0.74857795  1
  In  In91  1  0.00143881  0.33118006  0.25135573  1
  In  In92  1  0.50140649  0.16865752  0.74732845  1
  In  In93  1  0.83225356  0.16565150  0.49271529  1
  In  In94  1  0.66889819  0.66620160  -0.00176593  1
  In  In95  1  0.16706604  0.50264646  -0.00011759  1
  In  In96  1  0.00084659  0.00128458  -0.00197025  1
  In  In97  1  0.16748320  0.49792960  0.25277919  1
  In  In98  1  0.83436293  0.83342945  0.75045147  1
  In  In99  1  0.33379710  0.33421280  0.25336991  1
  In  In100  1  0.16374234  0.50288951  0.74870325  1
  In  In101  1  -0.00298628  0.33392164  0.00232439  1
  In  In102  1  0.50263100  0.83340391  0.49915621  1
  In  In103  1  0.16489531  0.49924794  0.50387605  1
  In  In104  1  0.33387038  0.66367955  0.24726487  1
  In  In105  1  0.50096801  0.50215695  0.00116587  1
  In  In106  1  0.00190791  0.66781180  -0.00049055  1
  In  In107  1  0.50138989  0.16350464  0.49883077  1
  Ir  Ir108  1  0.17178798  0.83682701  0.00024220  1
  Ir  Ir109  1  0.82996894  0.50245647  0.25009098  1
  Ir  Ir110  1  0.33265427  0.00072848  0.49490085  1
  Ir  Ir111  1  0.82998977  0.50326213  -0.00123516  1
  Ir  Ir112  1  0.67192995  0.66682436  0.74840329  1
  Ir  Ir113  1  0.17375526  0.16495185  0.00010966  1
  Ir  Ir114  1  0.83724389  0.83463641  0.49429939  1
  Ir  Ir115  1  0.50074428  0.83384265  0.24404384  1
  Ir  Ir116  1  0.66616810  0.33985743  0.25068499  1
  Ir  Ir117  1  0.16807929  0.83420163  0.25255684  1
  Ir  Ir118  1  0.49981324  0.83268598  0.00363649  1
  Ir  Ir119  1  0.82957330  0.50417836  0.75424387  1
  Ir  Ir120  1  0.16946726  0.83358616  0.74547366  1
  Ir  Ir121  1  0.33253624  0.00058922  0.00310704  1
  Ir  Ir122  1  0.00220026  -0.00196353  0.49640498  1
  Ir  Ir123  1  0.17012345  0.16509999  0.75231504  1
  Ir  Ir124  1  0.49714443  0.16970265  0.00456022  1
  Ir  Ir125  1  0.83229168  0.82758755  0.00249561  1
  Ir  Ir126  1  0.16554109  0.83556865  0.49771800  1
  Ir  Ir127  1  0.66221118  0.66470417  0.25012818  1
  Ir  Ir128  1  0.33324379  0.32937234  -0.00346421  1
  Ir  Ir129  1  0.50117940  0.50106433  0.25054222  1
  Ir  Ir130  1  0.33166890  0.33056713  0.74783012  1
  Ir  Ir131  1  0.17014659  0.16088519  0.50218674  1
  Ir  Ir132  1  0.66266943  0.33379324  0.49544018  1
  Ir  Ir133  1  0.67055682  0.34139413  0.00406110  1
  Ir  Ir134  1  0.66764825  0.00009301  0.49489260  1
  Ir  Ir135  1  0.83356746  0.82923912  0.25101403  1
  Ir  Ir136  1  0.83066778  0.49777787  0.50007305  1
  Ir  Ir137  1  0.67199932  0.66603031  0.49994676  1
  Ir  Ir138  1  0.49672551  0.16661520  0.25024553  1
  Ir  Ir139  1  0.33201296  0.32932911  0.50474219  1
  Ir  Ir140  1  0.00448420  0.67180216  0.25110563  1
  Ir  Ir141  1  0.33216878  0.66668858  0.75099586  1
  Ir  Ir142  1  0.33382486  -0.00385010  0.24813684  1
  Ir  Ir143  1  0.50108354  0.82828531  0.75252518  1
  O  O144  1  0.30469009  0.32621221  0.11876885  1
  O  O145  1  0.30585325  0.31532868  0.62609772  1
  O  O146  1  0.29335937  0.66067721  0.12599000  1
  O  O147  1  0.30155085  0.65744059  0.63050686  1
  O  O148  1  0.31178353  0.98679449  0.12548503  1
  O  O149  1  0.31931025  0.99602487  0.61590513  1
  O  O150  1  0.64477232  0.34683886  0.12799123  1
  O  O151  1  0.62803248  0.32732314  0.61570358  1
  O  O152  1  0.63778720  0.65542793  0.12999024  1
  O  O153  1  0.65114779  0.66730511  0.62392488  1
  O  O154  1  0.65243190  0.98013629  0.12659397  1
  O  O155  1  0.64368644  0.99467549  0.61189017  1
  O  O156  1  0.96294654  0.31678280  0.12527737  1
  O  O157  1  0.98295637  0.32380104  0.62373730  1
  O  O158  1  0.98789773  0.67574749  0.13057500  1
  O  O159  1  0.96350676  0.66019910  0.62286919  1
  O  O160  1  0.98432418  0.99572846  0.12444319  1
  O  O161  1  0.96891780  0.99645300  0.61584703  1
  O  O162  1  0.20730913  0.15805181  0.11657743  1
  O  O163  1  0.19935562  0.16229646  0.62861881  1
  O  O164  1  0.19193473  0.48125800  0.12627469  1
  O  O165  1  0.20510724  0.49207008  0.62700674  1
  O  O166  1  0.19798203  0.82662370  0.12603678  1
  O  O167  1  0.19175529  0.82228770  0.62212779  1
  O  O168  1  0.51770777  0.16707944  0.12850503  1
  O  O169  1  0.53720238  0.16798830  0.62074880  1
  O  O170  1  0.53229471  0.49422100  0.13110149  1
  O  O171  1  0.51925599  0.48002426  0.62850725  1
  O  O172  1  0.53347265  0.82933038  0.12409804  1
  O  O173  1  0.51347711  0.83606318  0.63168906  1
  O  O174  1  0.86988051  0.16314366  0.12830153  1
  O  O175  1  0.84863696  0.15400139  0.61784423  1
  O  O176  1  0.85426023  0.48997930  0.12361378  1
  O  O177  1  0.86030509  0.49699137  0.62935243  1
  O  O178  1  0.85220777  0.83365531  0.12725901  1
  O  O179  1  0.85262177  0.82424289  0.61455076  1
  O  O180  1  0.15419349  0.16766271  0.38015561  1
  O  O181  1  0.14782045  0.16411894  0.87619723  1
  O  O182  1  0.14001007  0.52059659  0.37769670  1
  O  O183  1  0.12868931  0.50612668  0.87413019  1
  O  O184  1  0.13742364  0.84488812  0.37574717  1
  O  O185  1  0.14537798  0.84594819  0.87303873  1
  O  O186  1  0.47942602  0.17984405  0.37073098  1
  O  O187  1  0.48145898  0.17879123  0.88465678  1
  O  O188  1  0.46886526  0.50378727  0.37057151  1
  O  O189  1  0.46385137  0.50560614  0.87652315  1
  O  O190  1  0.48397345  0.83882632  0.36580363  1
  O  O191  1  0.48160018  0.82488441  0.88043188  1
  O  O192  1  0.79114855  0.18555697  0.37422815  1
  O  O193  1  0.78751016  0.18229005  0.87563287  1
  O  O194  1  0.80875184  0.50335389  0.37642813  1
  O  O195  1  0.79959920  0.52017860  0.87639051  1
  O  O196  1  0.81203936  0.83976575  0.37315219  1
  O  O197  1  0.81307810  0.81927635  0.88341093  1
  O  O198  1  0.03475229  0.00095890  0.37911487  1
  O  O199  1  0.03528644  -0.00589844  0.87407529  1
  O  O200  1  0.04293786  0.33608790  0.37612728  1
  O  O201  1  0.01612679  0.35053877  0.87518759  1
  O  O202  1  0.03196740  0.67433009  0.37197912  1
  O  O203  1  0.01604099  0.69256461  0.87442824  1
  O  O204  1  0.36331661  -0.00045216  0.36928923  1
  O  O205  1  0.35102363  0.00084248  0.88250224  1
  O  O206  1  0.36684711  0.33989418  0.38647250  1
  O  O207  1  0.36634934  0.33689576  0.87051325  1
  O  O208  1  0.35215216  0.67271714  0.37185861  1
  O  O209  1  0.35086934  0.67510005  0.87036807  1
  O  O210  1  0.69984391  0.00826764  0.37763937  1
  O  O211  1  0.68265892  0.00901835  0.87515360  1
  O  O212  1  0.69513192  0.33780905  0.37302737  1
  O  O213  1  0.70024015  0.34802144  0.88522500  1
  O  O214  1  0.68737628  0.66573262  0.37624828  1
  O  O215  1  0.70006785  0.66935804  0.86835509  1
  O  O216  1  0.07971229  0.10207351  0.02044604  1
  O  O217  1  0.07478883  0.09058431  0.52147354  1
  O  O218  1  0.07967770  0.41786429  0.02508048  1
  O  O219  1  0.06289531  0.43722067  0.52840536  1
  O  O220  1  0.08280601  0.76603158  0.01505837  1
  O  O221  1  0.07826935  0.76455380  0.51504279  1
  O  O222  1  0.40037858  0.09791755  0.02779870  1
  O  O223  1  0.39883724  0.09482104  0.51824283  1
  O  O224  1  0.40655173  0.41672580  0.01021596  1
  O  O225  1  0.39554611  0.42151978  0.53004721  1
  O  O226  1  0.40984598  0.76397990  0.03087915  1
  O  O227  1  0.41255487  0.75628449  0.51310032  1
  O  O228  1  0.73653191  0.09705588  0.01972751  1
  O  O229  1  0.73082590  0.09351452  0.51774430  1
  O  O230  1  0.73195795  0.43949465  0.02526043  1
  O  O231  1  0.73452505  0.42533089  0.51788292  1
  O  O232  1  0.73714971  0.76355084  0.02753826  1
  O  O233  1  0.75221770  0.75299891  0.51967499  1
  O  O234  1  0.10229261  0.25477175  0.02667467  1
  O  O235  1  0.10304701  0.25188242  0.51174334  1
  O  O236  1  0.10120334  0.60349780  0.02736433  1
  O  O237  1  0.09627047  0.60087560  0.53189619  1
  O  O238  1  0.09920721  0.92280568  0.00819027  1
  O  O239  1  0.09743607  0.93007225  0.51420017  1
  O  O240  1  0.42176240  0.25653960  0.02438716  1
  O  O241  1  0.42544887  0.26217352  0.52813613  1
  O  O242  1  0.43669401  0.60196175  0.02947172  1
  O  O243  1  0.41827022  0.58136359  0.52737960  1
  O  O244  1  0.42278065  0.92313175  0.02734993  1
  O  O245  1  0.42691367  0.93413937  0.50084010  1
  O  O246  1  0.76512557  0.27955491  0.02715844  1
  O  O247  1  0.74752559  0.26283423  0.51942176  1
  O  O248  1  0.76541675  0.59323791  0.02123038  1
  O  O249  1  0.76468537  0.59481553  0.52342474  1
  O  O250  1  0.76170705  0.91595677  0.01595346  1
  O  O251  1  0.76792150  0.93548930  0.51604323  1
  O  O252  1  0.23800918  0.05807177  0.27116547  1
  O  O253  1  0.23677754  0.07291746  0.77178881  1
  O  O254  1  0.24132278  0.40256031  0.29063785  1
  O  O255  1  0.24600305  0.40371334  0.77447922  1
  O  O256  1  0.22685231  0.73593493  0.26868943  1
  O  O257  1  0.23831441  0.73852751  0.76172847  1
  O  O258  1  0.56498683  0.07483039  0.27735112  1
  O  O259  1  0.57458038  0.07741822  0.77263170  1
  O  O260  1  0.56650895  0.40370810  0.27607397  1
  O  O261  1  0.57066470  0.40512326  0.78777154  1
  O  O262  1  0.56712951  0.73613488  0.25975272  1
  O  O263  1  0.57545566  0.73360910  0.76453652  1
  O  O264  1  0.89737409  0.06367705  0.28252596  1
  O  O265  1  0.90435203  0.07053884  0.75994463  1
  O  O266  1  0.89449207  0.40817400  0.26752791  1
  O  O267  1  0.89245031  0.41240196  0.78231923  1
  O  O268  1  0.91232381  0.74337906  0.27524662  1
  O  O269  1  0.89164459  0.72675647  0.76016961  1
  O  O270  1  0.25731089  0.24102382  0.26744371  1
  O  O271  1  0.26552759  0.23524295  0.76375921  1
  O  O272  1  0.26771616  0.56487345  0.28055205  1
  O  O273  1  0.26845543  0.57189607  0.77259604  1
  O  O274  1  0.26823204  0.89774548  0.26066206  1
  O  O275  1  0.25274646  0.91138442  0.76416793  1
  O  O276  1  0.59446632  0.24216921  0.27546736  1
  O  O277  1  0.58923014  0.24495200  0.78888210  1
  O  O278  1  0.59447376  0.56849150  0.26650407  1
  O  O279  1  0.60452777  0.57292875  0.77354077  1
  O  O280  1  0.58553512  0.90955651  0.26865099  1
  O  O281  1  0.58837072  0.90055067  0.76337540  1
  O  O282  1  0.91867355  0.24836450  0.28417562  1
  O  O283  1  0.91209255  0.24991232  0.77390762  1
  O  O284  1  0.93019651  0.57758146  0.26356007  1
  O  O285  1  0.92565058  0.56612534  0.77628205  1
  O  O286  1  0.92585547  0.89920137  0.27636866  1
  O  O287  1  0.93703165  0.89419583  0.77495639  1
  O  O288  1  0.26440062  0.23292053  0.48335671  1
  O  O289  1  0.26428061  0.23623609  0.98315817  1
  O  O290  1  0.26221076  0.56911659  0.47354863  1
  O  O291  1  0.27007270  0.56418561  0.97085231  1
  O  O292  1  0.25618687  0.91102836  0.47218938  1
  O  O293  1  0.26124204  0.91009523  0.98057607  1
  O  O294  1  0.59674244  0.24225874  0.46750773  1
  O  O295  1  0.59625634  0.24485947  0.97879751  1
  O  O296  1  0.59402710  0.58065233  0.48974812  1
  O  O297  1  0.60438801  0.56550684  0.97895832  1
  O  O298  1  0.59382076  0.91356012  0.47177903  1
  O  O299  1  0.58744729  0.90385126  0.98799370  1
  O  O300  1  0.91711395  0.24867275  0.47257898  1
  O  O301  1  0.92097500  0.24565240  0.97043558  1
  O  O302  1  0.92244174  0.56628814  0.48873381  1
  O  O303  1  0.92600698  0.56743815  0.97290746  1
  O  O304  1  0.93116346  0.90615020  0.46569443  1
  O  O305  1  0.92775178  0.89327681  0.97769288  1
  O  O306  1  0.23629825  0.06547283  0.47811116  1
  O  O307  1  0.23722014  0.06690724  0.97555878  1
  O  O308  1  0.23977083  0.39541795  0.47482229  1
  O  O309  1  0.24973907  0.40344990  0.97508698  1
  O  O310  1  0.22850470  0.73935028  0.48139935  1
  O  O311  1  0.24136975  0.74855085  0.98787645  1
  O  O312  1  0.57567113  0.06758729  0.46415927  1
  O  O313  1  0.57182296  0.08512060  0.98470483  1
  O  O314  1  0.56570498  0.39615645  0.47398848  1
  O  O315  1  0.57588579  0.40396821  0.97527141  1
  O  O316  1  0.58698399  0.74259619  0.48802099  1
  O  O317  1  0.56892776  0.74046683  0.99386601  1
  O  O318  1  0.90582664  0.06119241  0.47484173  1
  O  O319  1  0.90902644  0.07468565  0.97642847  1
  O  O320  1  0.89460674  0.40601703  0.47493042  1
  O  O321  1  0.89461343  0.41086066  0.97662052  1
  O  O322  1  0.91370883  0.75052493  0.47166042  1
  O  O323  1  0.89677889  0.73330700  0.98761067  1
  O  O324  1  0.09522255  0.25738784  0.21273011  1
  O  O325  1  0.09576354  0.25168373  0.74195854  1
  O  O326  1  0.10109131  0.60916173  0.23148241  1
  O  O327  1  0.09266161  0.59932861  0.71613014  1
  O  O328  1  0.10215600  0.92712177  0.24337840  1
  O  O329  1  0.09874073  0.92075463  0.73295773  1
  O  O330  1  0.42474794  0.25585559  0.23270036  1
  O  O331  1  0.42472750  0.26445456  0.72142215  1
  O  O332  1  0.43971420  0.59523759  0.22362317  1
  O  O333  1  0.41871018  0.59283689  0.72905671  1
  O  O334  1  0.42926760  0.92638275  0.22856339  1
  O  O335  1  0.42705071  0.91705229  0.74484294  1
  O  O336  1  0.76132926  0.27820760  0.22864164  1
  O  O337  1  0.74601369  0.25702372  0.71750491  1
  O  O338  1  0.75262354  0.59109970  0.22837169  1
  O  O339  1  0.76857829  0.60287194  0.72800938  1
  O  O340  1  0.75979729  0.91626081  0.23741573  1
  O  O341  1  0.76736877  0.93118584  0.72492090  1
  O  O342  1  0.06595401  0.10172701  0.22580078  1
  O  O343  1  0.08271220  0.09282040  0.73557947  1
  O  O344  1  0.07549504  0.42264200  0.22552383  1
  O  O345  1  0.05840045  0.43888389  0.72933631  1
  O  O346  1  0.06984846  0.76954193  0.23892468  1
  O  O347  1  0.08164420  0.76146304  0.72811981  1
  O  O348  1  0.39901619  0.09679400  0.22608882  1
  O  O349  1  0.40210639  0.10006804  0.72484999  1
  O  O350  1  0.41124642  0.43116714  0.23718940  1
  O  O351  1  0.39775301  0.42238789  0.72459220  1
  O  O352  1  0.40984554  0.76400982  0.21571950  1
  O  O353  1  0.40696818  0.75577843  0.73185710  1
  O  O354  1  0.72925329  0.10290660  0.23915650  1
  O  O355  1  0.73512516  0.09311177  0.71278816  1
  O  O356  1  0.73431180  0.43547509  0.22642103  1
  O  O357  1  0.73632931  0.43780637  0.74342541  1
  O  O358  1  0.73268606  0.76015976  0.22694504  1
  O  O359  1  0.73787346  0.75653489  0.72805250  1
