# generated using pymatgen
data_BaLaInIrO6
_symmetry_space_group_name_H-M   'P 1'
_cell_length_a   17.52288038
_cell_length_b   17.56565907
_cell_length_c   16.51827310
_cell_angle_alpha   89.96216245
_cell_angle_beta   89.95077063
_cell_angle_gamma   89.89440150
_symmetry_Int_Tables_number   1
_chemical_formula_structural   BaLaInIrO6
_chemical_formula_sum   'Ba36 La36 In36 Ir36 O216'
_cell_volume   5084.32841501
_cell_formula_units_Z   36
loop_
 _symmetry_equiv_pos_site_id
 _symmetry_equiv_pos_as_xyz
  1  'x, y, z'
loop_
 _atom_site_type_symbol
 _atom_site_label
 _atom_site_symmetry_multiplicity
 _atom_site_fract_x
 _atom_site_fract_y
 _atom_site_fract_z
 _atom_site_occupancy
  Ba  Ba0  1  0.83995004  0.32631506  0.38243027  1
  Ba  Ba1  1  0.49258410  0.65797574  0.37261402  1
  Ba  Ba2  1  0.16481848  0.99061343  0.37778104  1
  Ba  Ba3  1  0.49580303  0.67626644  0.61840459  1
  Ba  Ba4  1  0.16963030  0.65910054  0.37299606  1
  Ba  Ba5  1  0.66516420  0.49405122  0.37340626  1
  Ba  Ba6  1  1.00011776  0.50750352  0.62419121  1
  Ba  Ba7  1  0.33174365  0.49341644  0.36962997  1
  Ba  Ba8  1  0.83584553  0.00861979  0.62410552  1
  Ba  Ba9  1  1.00379339  0.17583664  0.12682204  1
  Ba  Ba10  1  0.16369048  0.01244918  0.62146128  1
  Ba  Ba11  1  0.66904668  0.16162938  0.37878516  1
  Ba  Ba12  1  0.16636650  0.00875231  0.12838687  1
  Ba  Ba13  1  0.82991310  0.67713956  0.12483205  1
  Ba  Ba14  1  0.33468098  0.82808598  0.87791167  1
  Ba  Ba15  1  0.50143574  0.98541718  0.87373114  1
  Ba  Ba16  1  1.00323386  0.84112249  0.12168019  1
  Ba  Ba17  1  0.32739304  0.82491921  0.37436484  1
  Ba  Ba18  1  1.00179949  0.50382931  0.12760233  1
  Ba  Ba19  1  0.16594675  0.32353641  0.37854253  1
  Ba  Ba20  1  0.50019703  0.00555621  0.12492843  1
  Ba  Ba21  1  1.00323341  0.84365049  0.62490951  1
  Ba  Ba22  1  0.66573282  0.16050274  0.87329006  1
  Ba  Ba23  1  0.83175129  0.65504049  0.87091671  1
  Ba  Ba24  1  0.33269497  0.84120354  0.12771017  1
  Ba  Ba25  1  0.00249568  0.82199811  0.37595066  1
  Ba  Ba26  1  0.66280106  0.82394898  0.87094839  1
  Ba  Ba27  1  0.33008584  0.50426245  0.12066979  1
  Ba  Ba28  1  0.33037482  0.15970320  0.87694472  1
  Ba  Ba29  1  0.66869185  0.51004490  0.61967030  1
  Ba  Ba30  1  0.83583750  0.34686687  0.62716103  1
  Ba  Ba31  1  0.49984889  0.98762450  0.37734509  1
  Ba  Ba32  1  0.50246623  0.33688462  0.12460612  1
  Ba  Ba33  1  0.33443763  0.49182541  0.87208097  1
  Ba  Ba34  1  0.50167118  0.67110214  0.12856535  1
  Ba  Ba35  1  0.16662554  0.32612134  0.87836785  1
  La  La36  1  0.33949030  0.85068584  0.61836159  1
  La  La37  1  0.32965008  0.15217185  0.37480927  1
  La  La38  1  -0.00572381  0.14977424  0.87660443  1
  La  La39  1  0.83819360  0.98194615  0.87767635  1
  La  La40  1  0.83989511  0.32078851  0.87314401  1
  La  La41  1  -0.00424411  0.48074461  0.87105373  1
  La  La42  1  0.50321433  0.33347183  0.38209725  1
  La  La43  1  0.15989085  0.35018388  0.62930260  1
  La  La44  1  0.49843839  0.34884289  0.62665993  1
  La  La45  1  0.33632560  0.17309522  0.12847423  1
  La  La46  1  0.82695198  0.35133309  0.12834102  1
  La  La47  1  0.16640960  0.68205234  0.62502078  1
  La  La48  1  0.67057541  0.18411093  0.62543716  1
  La  La49  1  -0.00456534  0.81723841  0.87347759  1
  La  La50  1  0.16102607  0.68104741  0.12504034  1
  La  La51  1  0.16987313  0.33984273  0.12361260  1
  La  La52  1  0.65755024  0.49077724  0.86873183  1
  La  La53  1  0.67702147  0.51706609  0.12800782  1
  La  La54  1  0.50622121  0.65599911  0.87441985  1
  La  La55  1  0.50145014  0.32179593  0.87744102  1
  La  La56  1  0.49870161  0.01524753  0.62334324  1
  La  La57  1  0.66961015  0.84782908  0.62499713  1
  La  La58  1  0.84096305  0.64536296  0.37639205  1
  La  La59  1  0.00122501  0.48682593  0.38042591  1
  La  La60  1  0.33557224  0.51529626  0.62324095  1
  La  La61  1  0.16861763  0.65361467  0.87193765  1
  La  La62  1  0.84417880  0.98699834  0.37355759  1
  La  La63  1  0.66947553  0.18048008  0.12674868  1
  La  La64  1  0.82676148  0.67515323  0.62169747  1
  La  La65  1  0.66032717  0.82098310  0.37875055  1
  La  La66  1  0.82771491  0.01766417  0.12466836  1
  La  La67  1  -0.00147707  0.15186892  0.38172092  1
  La  La68  1  0.17165124  0.98587136  0.87764591  1
  La  La69  1  0.67296431  0.85256851  0.12567859  1
  La  La70  1  1.00825082  0.18388057  0.62197940  1
  La  La71  1  0.33302285  0.18643314  0.62339457  1
  In  In72  1  0.33356683  0.00159269  0.00154499  1
  In  In73  1  0.00269823  0.00098251  0.75141118  1
  In  In74  1  0.66820866  0.00321645  -0.00297687  1
  In  In75  1  0.83333401  0.49849828  -0.00455897  1
  In  In76  1  0.16478079  0.16852535  0.75290274  1
  In  In77  1  0.16504372  0.83356512  0.25063640  1
  In  In78  1  0.66892762  0.00231662  0.49963411  1
  In  In79  1  -0.00211052  -0.00048210  0.24581558  1
  In  In80  1  0.50239602  0.49830710  -0.00056002  1
  In  In81  1  0.66913536  0.00448924  0.25342052  1
  In  In82  1  0.16309441  0.50104937  -0.00118204  1
  In  In83  1  0.83214966  0.83135621  0.49863926  1
  In  In84  1  0.49835608  0.16969229  0.49960543  1
  In  In85  1  0.33195649  0.33078819  -0.00122414  1
  In  In86  1  0.66813749  0.66877743  -0.00306315  1
  In  In87  1  -0.00034506  0.66096612  0.74856184  1
  In  In88  1  0.66796031  0.66981064  0.25351390  1
  In  In89  1  0.66910564  0.33496676  0.50055430  1
  In  In90  1  0.49882758  0.16923596  0.74916008  1
  In  In91  1  0.83253950  0.83266513  0.25095389  1
  In  In92  1  0.00163371  0.32923637  0.25052206  1
  In  In93  1  0.83474175  0.83070227  0.74908379  1
  In  In94  1  0.33112319  0.66553157  0.24422192  1
  In  In95  1  0.50078493  0.16789222  0.25279955  1
  In  In96  1  0.67037892  0.33529221  -0.00224147  1
  In  In97  1  0.33149788  0.00333157  0.74850197  1
  In  In98  1  0.83550099  0.17027873  0.25340557  1
  In  In99  1  0.33313646  0.33074967  0.25281498  1
  In  In100  1  0.50109422  0.82975246  0.00358308  1
  In  In101  1  0.66644109  0.00252327  0.74730525  1
  In  In102  1  0.33438411  0.67099381  0.75045935  1
  In  In103  1  0.50197507  0.49631146  0.24615085  1
  In  In104  1  -0.00017531  0.66209916  -0.00133678  1
  In  In105  1  0.83407103  0.16597386  0.74944397  1
  In  In106  1  0.49753077  0.50248560  0.49947701  1
  In  In107  1  0.00111715  0.66491385  0.50118681  1
  Ir  Ir108  1  0.33034941  0.66748907  -0.00467716  1
  Ir  Ir109  1  -0.00280946  0.32941030  -0.00197276  1
  Ir  Ir110  1  0.83887414  0.16793854  0.50577617  1
  Ir  Ir111  1  0.50102145  0.82982187  0.74088015  1
  Ir  Ir112  1  0.67079470  0.33292898  0.25002264  1
  Ir  Ir113  1  0.49808426  0.49955372  0.74801801  1
  Ir  Ir114  1  0.32648369  0.66718210  0.50285120  1
  Ir  Ir115  1  0.00058387  0.00033719  -0.00369337  1
  Ir  Ir116  1  0.33053381  0.33548882  0.50596354  1
  Ir  Ir117  1  0.66692721  0.66918164  0.50131646  1
  Ir  Ir118  1  0.16935910  0.83342144  0.50611839  1
  Ir  Ir119  1  -0.00078839  0.65858110  0.25141169  1
  Ir  Ir120  1  0.33138442  0.00178440  0.50208336  1
  Ir  Ir121  1  0.50039943  0.83094003  0.49956842  1
  Ir  Ir122  1  0.00541326  0.33367680  0.50519684  1
  Ir  Ir123  1  0.50120398  0.16803389  0.00081226  1
  Ir  Ir124  1  0.16733874  0.49956201  0.74692948  1
  Ir  Ir125  1  0.16134823  0.49755677  0.25292807  1
  Ir  Ir126  1  0.66694617  0.33820720  0.75201868  1
  Ir  Ir127  1  0.66318259  0.66419086  0.74258678  1
  Ir  Ir128  1  0.83729493  0.83717914  0.00032039  1
  Ir  Ir129  1  0.16143046  0.83350576  -0.00690497  1
  Ir  Ir130  1  0.83758668  0.16884543  0.00028491  1
  Ir  Ir131  1  0.33227311  0.00199877  0.25338545  1
  Ir  Ir132  1  0.00144651  0.33422672  0.75154053  1
  Ir  Ir133  1  0.16047984  0.16606206  0.00270541  1
  Ir  Ir134  1  0.16907330  0.16660362  0.25223915  1
  Ir  Ir135  1  0.00074867  0.00379714  0.50023539  1
  Ir  Ir136  1  0.83513662  0.49708454  0.25356885  1
  Ir  Ir137  1  0.33209426  0.33698884  0.74474173  1
  Ir  Ir138  1  0.16753736  0.83289255  0.75073827  1
  Ir  Ir139  1  0.17030159  0.16948062  0.49916279  1
  Ir  Ir140  1  0.50205322  0.83390409  0.25650246  1
  Ir  Ir141  1  0.83631364  0.50119788  0.50180046  1
  Ir  Ir142  1  0.17085971  0.49915282  0.50341109  1
  Ir  Ir143  1  0.82835088  0.49813600  0.74904996  1
  O  O144  1  0.30022734  0.31436443  0.12550579  1
  O  O145  1  0.29609997  0.32825553  0.62482208  1
  O  O146  1  0.29655816  0.66332761  0.11299604  1
  O  O147  1  0.30321750  0.65726376  0.62453562  1
  O  O148  1  0.31603281  1.00722479  0.13239903  1
  O  O149  1  0.31233552  0.98884269  0.62065367  1
  O  O150  1  0.65634320  0.32287079  0.12930297  1
  O  O151  1  0.63660992  0.32716536  0.63245696  1
  O  O152  1  0.65422240  0.65373517  0.12479217  1
  O  O153  1  0.64278085  0.66067837  0.62304378  1
  O  O154  1  0.65205016  0.99157085  0.12372371  1
  O  O155  1  0.63087968  0.98674443  0.62290320  1
  O  O156  1  0.96791589  0.33053964  0.11801451  1
  O  O157  1  0.98384242  0.32220773  0.62820112  1
  O  O158  1  0.98104878  0.66182669  0.13147380  1
  O  O159  1  0.96561992  0.66238923  0.62518169  1
  O  O160  1  0.96679807  0.99802713  0.11477025  1
  O  O161  1  0.98765001  1.00108147  0.62069643  1
  O  O162  1  0.19716637  0.16482266  0.12910347  1
  O  O163  1  0.19712031  0.16699234  0.61957630  1
  O  O164  1  0.17324554  0.48057407  0.13192061  1
  O  O165  1  0.20103320  0.48682449  0.62547686  1
  O  O166  1  0.17831719  0.82084914  0.11385869  1
  O  O167  1  0.19981284  0.82242389  0.63036412  1
  O  O168  1  0.53212736  0.16322704  0.11947219  1
  O  O169  1  0.53333411  0.16449955  0.62509020  1
  O  O170  1  0.54328946  0.49421867  0.12141338  1
  O  O171  1  0.51780028  0.48888889  0.62841882  1
  O  O172  1  0.53384713  0.83078302  0.13723865  1
  O  O173  1  0.53075588  0.82909197  0.61906282  1
  O  O174  1  0.85699479  0.15883925  0.11848140  1
  O  O175  1  0.87162601  0.16713376  0.62297843  1
  O  O176  1  0.85055719  0.49287137  0.13183110  1
  O  O177  1  0.85305278  0.50735591  0.62574681  1
  O  O178  1  0.85564471  0.83203952  0.11802069  1
  O  O179  1  0.85672821  0.81134411  0.62375028  1
  O  O180  1  0.13662108  0.16962186  0.37583371  1
  O  O181  1  0.13016761  0.17339875  0.88330290  1
  O  O182  1  0.13752443  0.50596242  0.38017593  1
  O  O183  1  0.13296903  0.51086131  0.86689247  1
  O  O184  1  0.15464511  0.83021844  0.38453736  1
  O  O185  1  0.13361901  0.84531954  0.87087873  1
  O  O186  1  0.46538677  0.19186180  0.37747112  1
  O  O187  1  0.47920206  0.18204098  0.87823822  1
  O  O188  1  0.48334844  0.48502889  0.37566406  1
  O  O189  1  0.48156969  0.51317234  0.86633998  1
  O  O190  1  0.47448974  0.83277889  0.37894225  1
  O  O191  1  0.48416370  0.82673470  0.86038868  1
  O  O192  1  0.81971922  0.16838027  0.38680714  1
  O  O193  1  0.81664949  0.18216519  0.88097364  1
  O  O194  1  0.81502743  0.50486884  0.37839182  1
  O  O195  1  0.79806301  0.49362814  0.86675584  1
  O  O196  1  0.79707471  0.84944832  0.37651135  1
  O  O197  1  0.81427807  0.84272259  0.88143003  1
  O  O198  1  0.01353994  0.01389429  0.37952161  1
  O  O199  1  0.03549104  0.01232948  0.87921374  1
  O  O200  1  0.01572315  0.34573893  0.38402790  1
  O  O201  1  0.01960261  0.34371150  0.87336312  1
  O  O202  1  0.01912042  0.65460756  0.37017923  1
  O  O203  1  0.03308240  0.67184321  0.87227607  1
  O  O204  1  0.35213715  0.01257008  0.37902877  1
  O  O205  1  0.35053211  0.00210032  0.87396668  1
  O  O206  1  0.36416113  0.33732215  0.38704604  1
  O  O207  1  0.36274567  0.33430878  0.86496659  1
  O  O208  1  0.33869511  0.66792475  0.38122461  1
  O  O209  1  0.36610456  0.67098563  0.87541197  1
  O  O210  1  0.70851321  0.00664822  0.37738837  1
  O  O211  1  0.70168624  0.00510748  0.87331019  1
  O  O212  1  0.68860207  0.33436084  0.36916001  1
  O  O213  1  0.70370081  0.34455432  0.86972690  1
  O  O214  1  0.70183103  0.68002736  0.38339013  1
  O  O215  1  0.68177179  0.66664146  0.86114232  1
  O  O216  1  0.06561013  0.09710911  0.01545938  1
  O  O217  1  0.06946266  0.10594946  0.51766156  1
  O  O218  1  0.06316908  0.42289914  0.00705448  1
  O  O219  1  0.07865696  0.42653119  0.52422448  1
  O  O220  1  0.07301719  0.76377690  0.00559937  1
  O  O221  1  0.08088188  0.75849607  0.52277393  1
  O  O222  1  0.40683502  0.10098959  0.02378334  1
  O  O223  1  0.39736617  0.09654658  0.52512598  1
  O  O224  1  0.41238360  0.41970415  0.01124186  1
  O  O225  1  0.39728141  0.42584949  0.53320806  1
  O  O226  1  0.40042413  0.75293511  0.01872265  1
  O  O227  1  0.39571369  0.76454783  0.52124018  1
  O  O228  1  0.74283370  0.10432803  0.02449910  1
  O  O229  1  0.74319172  0.10448845  0.53025790  1
  O  O230  1  0.74004507  0.42800916  0.03228402  1
  O  O231  1  0.74678605  0.42849844  0.51438485  1
  O  O232  1  0.73971762  0.77496838  0.02090795  1
  O  O233  1  0.73160753  0.75854907  0.52761530  1
  O  O234  1  0.09559485  0.26560012  0.02629778  1
  O  O235  1  0.09935508  0.26277636  0.53046095  1
  O  O236  1  0.10245372  0.60122672  0.02338333  1
  O  O237  1  0.10426133  0.59249172  0.52695095  1
  O  O238  1  0.09558383  0.93127601  0.01424428  1
  O  O239  1  0.09707978  0.92669530  0.51695233  1
  O  O240  1  0.42688562  0.25243274  0.01739195  1
  O  O241  1  0.42163426  0.26948071  0.53600877  1
  O  O242  1  0.41946811  0.59614703  0.01282569  1
  O  O243  1  0.41453989  0.59288112  0.51719007  1
  O  O244  1  0.42135726  0.91912766  0.01396908  1
  O  O245  1  0.42924091  0.92842432  0.52814421  1
  O  O246  1  0.77390274  0.26420042  0.02219648  1
  O  O247  1  0.76298421  0.25486703  0.52730970  1
  O  O248  1  0.76005443  0.59163353  0.01426299  1
  O  O249  1  0.76841064  0.60202782  0.51680309  1
  O  O250  1  0.77702021  0.93536639  0.01850241  1
  O  O251  1  0.75343745  0.91992313  0.53215918  1
  O  O252  1  0.24139488  0.07584717  0.27677845  1
  O  O253  1  0.22841527  0.06836334  0.77411212  1
  O  O254  1  0.23001874  0.40470755  0.26374404  1
  O  O255  1  0.23595625  0.40440742  0.76574236  1
  O  O256  1  0.23848577  0.74049190  0.25024087  1
  O  O257  1  0.23050712  0.73597455  0.77206236  1
  O  O258  1  0.57216359  0.07476723  0.27220833  1
  O  O259  1  0.56579845  0.06928587  0.76208099  1
  O  O260  1  0.57441509  0.39217966  0.27318324  1
  O  O261  1  0.56944949  0.40708768  0.77668940  1
  O  O262  1  0.57343091  0.74810260  0.28008883  1
  O  O263  1  0.56404834  0.72791128  0.76338801  1
  O  O264  1  0.89746297  0.06624565  0.26605103  1
  O  O265  1  0.90179704  0.06967217  0.78337076  1
  O  O266  1  0.90138815  0.40319871  0.25996906  1
  O  O267  1  0.90238627  0.40343848  0.77648719  1
  O  O268  1  0.90369296  0.72501509  0.27416075  1
  O  O269  1  0.91445197  0.74329445  0.77832173  1
  O  O270  1  0.26190395  0.23001011  0.27678176  1
  O  O271  1  0.26595893  0.24302905  0.76012367  1
  O  O272  1  0.24872600  0.56773457  0.25741567  1
  O  O273  1  0.25396966  0.57258110  0.76623670  1
  O  O274  1  0.25984984  0.91477632  0.26270585  1
  O  O275  1  0.25732679  0.90177661  0.76505398  1
  O  O276  1  0.60596523  0.23892029  0.25828540  1
  O  O277  1  0.59154595  0.25432592  0.77464691  1
  O  O278  1  0.59467448  0.57529032  0.26430771  1
  O  O279  1  0.59286420  0.56887772  0.77050110  1
  O  O280  1  0.59691640  0.89999816  0.27602738  1
  O  O281  1  0.59265360  0.89464730  0.75599209  1
  O  O282  1  0.93880507  0.23071833  0.27851553  1
  O  O283  1  0.93291493  0.24209594  0.77496731  1
  O  O284  1  0.93168878  0.56163786  0.27917030  1
  O  O285  1  0.92499871  0.56011152  0.77441307  1
  O  O286  1  0.92355890  0.90693140  0.27721603  1
  O  O287  1  0.93076190  0.90671787  0.77799216  1
  O  O288  1  0.27000077  0.23450766  0.48101158  1
  O  O289  1  0.25161241  0.23285978  0.98737330  1
  O  O290  1  0.26492103  0.56590779  0.49029105  1
  O  O291  1  0.25711797  0.58269839  0.97009301  1
  O  O292  1  0.26479395  0.90301811  0.49113111  1
  O  O293  1  0.24757488  0.90833137  0.98166002  1
  O  O294  1  0.58996353  0.24644942  0.48134855  1
  O  O295  1  0.59028516  0.24222504  0.98307644  1
  O  O296  1  0.59415760  0.58116354  0.48292203  1
  O  O297  1  0.59552716  0.57141086  0.96684787  1
  O  O298  1  0.59540317  0.89413659  0.47837507  1
  O  O299  1  0.59808198  0.90326509  0.99032488  1
  O  O300  1  0.94019649  0.23379195  0.48471526  1
  O  O301  1  0.93435922  0.23379121  0.97332304  1
  O  O302  1  0.92815208  0.56747560  0.47617388  1
  O  O303  1  0.93472269  0.56115435  0.97221736  1
  O  O304  1  0.92659275  0.91568912  0.48071252  1
  O  O305  1  0.93464075  0.90468052  0.96877114  1
  O  O306  1  0.24203069  0.07884623  0.47413879  1
  O  O307  1  0.22653813  0.07235541  0.97956919  1
  O  O308  1  0.23863010  0.40383078  0.48456754  1
  O  O309  1  0.23702310  0.40753798  0.99275851  1
  O  O310  1  0.23192577  0.73466705  0.49735235  1
  O  O311  1  0.22903597  0.73677196  0.97095034  1
  O  O312  1  0.56789630  0.06989824  0.48833824  1
  O  O313  1  0.56999875  0.08039718  0.97975801  1
  O  O314  1  0.56555203  0.40098423  0.49245847  1
  O  O315  1  0.57743472  0.40497506  0.95937957  1
  O  O316  1  0.57386161  0.73860996  0.47461153  1
  O  O317  1  0.56562688  0.73110372  0.97690369  1
  O  O318  1  0.90753643  0.07362991  0.47600625  1
  O  O319  1  0.90348517  0.06884300  0.97162271  1
  O  O320  1  0.91393285  0.41173264  0.48370043  1
  O  O321  1  0.90166036  0.39414976  0.97458346  1
  O  O322  1  0.90110329  0.73217803  0.47187228  1
  O  O323  1  0.90723528  0.74479084  0.97845379  1
  O  O324  1  0.10601480  0.26275925  0.22690376  1
  O  O325  1  0.09546818  0.26841823  0.72556921  1
  O  O326  1  0.09661100  0.59447064  0.22682800  1
  O  O327  1  0.10327687  0.59403107  0.72241598  1
  O  O328  1  0.08911656  0.92289948  0.23632141  1
  O  O329  1  0.10209976  0.92675835  0.73664265  1
  O  O330  1  0.41812146  0.24831611  0.21899813  1
  O  O331  1  0.42504400  0.27039990  0.72096572  1
  O  O332  1  0.41940941  0.58782270  0.23278493  1
  O  O333  1  0.42330089  0.58623056  0.72526525  1
  O  O334  1  0.42370813  0.92846984  0.23498938  1
  O  O335  1  0.43503979  0.92523365  0.71878030  1
  O  O336  1  0.76920831  0.27164872  0.22847978  1
  O  O337  1  0.75481355  0.26414497  0.73169885  1
  O  O338  1  0.76751777  0.58976835  0.24390297  1
  O  O339  1  0.76312454  0.59766174  0.72411737  1
  O  O340  1  0.76613302  0.93438050  0.21926599  1
  O  O341  1  0.75755311  0.92182332  0.72971185  1
  O  O342  1  0.07675377  0.09857609  0.24046164  1
  O  O343  1  0.05927994  0.10893816  0.73293741  1
  O  O344  1  0.06830722  0.43139386  0.25059113  1
  O  O345  1  0.07423529  0.42722523  0.73027678  1
  O  O346  1  0.07073246  0.74784961  0.23369178  1
  O  O347  1  0.08154584  0.76038391  0.73027480  1
  O  O348  1  0.39713976  0.09461847  0.23970814  1
  O  O349  1  0.39964501  0.10097105  0.71693102  1
  O  O350  1  0.40780552  0.42038344  0.22825180  1
  O  O351  1  0.40293578  0.42978405  0.72012562  1
  O  O352  1  0.41446198  0.76166509  0.23785097  1
  O  O353  1  0.40329989  0.76930991  0.71932714  1
  O  O354  1  0.73724308  0.10563983  0.22063717  1
  O  O355  1  0.73356523  0.10397621  0.72011093  1
  O  O356  1  0.73650001  0.43152011  0.22707719  1
  O  O357  1  0.73463278  0.42935717  0.72906853  1
  O  O358  1  0.73164162  0.76997918  0.22660779  1
  O  O359  1  0.73354598  0.75393044  0.72102447  1
