# generated using pymatgen
data_BaLaInIrO6
_symmetry_space_group_name_H-M   'P 1'
_cell_length_a   17.50887370
_cell_length_b   17.53997550
_cell_length_c   16.48412243
_cell_angle_alpha   90.03677495
_cell_angle_beta   90.00229120
_cell_angle_gamma   89.93936458
_symmetry_Int_Tables_number   1
_chemical_formula_structural   BaLaInIrO6
_chemical_formula_sum   'Ba36 La36 In36 Ir36 O216'
_cell_volume   5062.35609243
_cell_formula_units_Z   36
loop_
 _symmetry_equiv_pos_site_id
 _symmetry_equiv_pos_as_xyz
  1  'x, y, z'
loop_
 _atom_site_type_symbol
 _atom_site_label
 _atom_site_symmetry_multiplicity
 _atom_site_fract_x
 _atom_site_fract_y
 _atom_site_fract_z
 _atom_site_occupancy
  Ba  Ba0  1  0.83081427  0.66045739  0.87399208  1
  Ba  Ba1  1  0.16523879  0.67911332  0.12131586  1
  Ba  Ba2  1  0.00030744  0.82775708  0.37524289  1
  Ba  Ba3  1  0.83464718  0.32101246  0.87712790  1
  Ba  Ba4  1  0.83019725  0.33972178  0.62629072  1
  Ba  Ba5  1  0.32966328  0.82616112  0.37421704  1
  Ba  Ba6  1  0.16164240  0.32392304  0.87702236  1
  Ba  Ba7  1  0.66853272  0.17281323  0.62491914  1
  Ba  Ba8  1  0.33573474  0.17542783  0.12359068  1
  Ba  Ba9  1  0.16716830  0.00656740  0.62796677  1
  Ba  Ba10  1  0.83332033  0.67674794  0.12740731  1
  Ba  Ba11  1  0.16655189  0.32246143  0.37244783  1
  Ba  Ba12  1  0.16217829  0.34267679  0.62655828  1
  Ba  Ba13  1  0.50132335  0.99173840  0.37709934  1
  Ba  Ba14  1  0.99906162  0.50733944  0.12345234  1
  Ba  Ba15  1  0.99787847  0.83826146  0.12359102  1
  Ba  Ba16  1  0.00060021  0.16101294  0.37871726  1
  Ba  Ba17  1  0.33002245  0.82321093  0.87741159  1
  Ba  Ba18  1  0.50092768  0.65810697  0.37317864  1
  Ba  Ba19  1  0.67137088  0.51082629  0.12550017  1
  Ba  Ba20  1  0.83166723  0.01054226  0.62749216  1
  Ba  Ba21  1  0.33411658  0.50800456  0.62270674  1
  Ba  Ba22  1  0.66687875  0.82801839  0.87384071  1
  Ba  Ba23  1  0.83635142  0.99218065  0.37966124  1
  Ba  Ba24  1  -0.00261235  0.49412029  0.37241589  1
  Ba  Ba25  1  0.16439847  0.99341389  0.37767962  1
  Ba  Ba26  1  0.83150132  0.98943806  0.86954894  1
  Ba  Ba27  1  0.50698882  0.65969333  0.87363702  1
  Ba  Ba28  1  0.49894065  0.32644731  0.37416356  1
  Ba  Ba29  1  0.49957815  0.01041823  0.12343686  1
  Ba  Ba30  1  0.66567466  0.83992629  0.62917937  1
  Ba  Ba31  1  0.16827024  0.34006857  0.12726162  1
  Ba  Ba32  1  0.67028677  0.84022159  0.12342113  1
  Ba  Ba33  1  0.83395740  0.66102366  0.37581754  1
  Ba  Ba34  1  0.67141484  0.15885381  0.87325128  1
  Ba  Ba35  1  0.49829953  0.34251003  0.62710891  1
  La  La36  1  1.00567923  0.51657225  0.62956220  1
  La  La37  1  0.49710695  0.34960373  0.12149858  1
  La  La38  1  0.33962471  0.85045126  0.12990586  1
  La  La39  1  1.00039118  0.85114271  0.62613658  1
  La  La40  1  0.16218424  0.68490537  0.62684578  1
  La  La41  1  0.83012044  0.00715810  0.12451111  1
  La  La42  1  0.33926853  0.17998117  0.62008250  1
  La  La43  1  0.17640302  0.65488453  0.36791357  1
  La  La44  1  0.16623055  0.00666328  0.12587434  1
  La  La45  1  -0.00041483  0.48291133  0.87266339  1
  La  La46  1  0.50530637  0.31840316  0.87354325  1
  La  La47  1  1.00419945  0.17364631  0.12556487  1
  La  La48  1  0.67172325  0.51431389  0.62421354  1
  La  La49  1  0.33323550  0.48785943  0.87316133  1
  La  La50  1  0.49775148  0.68556734  0.12326357  1
  La  La51  1  0.67306515  0.18044226  0.12205158  1
  La  La52  1  0.66346237  0.48732354  0.37216901  1
  La  La53  1  0.32474858  0.15100679  0.37426084  1
  La  La54  1  1.00219391  0.17988093  0.62704262  1
  La  La55  1  0.33990455  0.51218124  0.12222283  1
  La  La56  1  0.16527038  0.98588650  0.87730753  1
  La  La57  1  0.17191309  0.65276006  0.87856221  1
  La  La58  1  0.49366025  0.01651521  0.63064413  1
  La  La59  1  0.66465431  0.15258738  0.37755836  1
  La  La60  1  0.50055481  0.68200488  0.62173843  1
  La  La61  1  0.32736248  0.48547325  0.37575814  1
  La  La62  1  0.50941188  0.98651207  0.87715047  1
  La  La63  1  -0.01215406  0.14845069  0.87490010  1
  La  La64  1  0.83212149  0.68309460  0.62355698  1
  La  La65  1  0.34094304  0.85008513  0.62183231  1
  La  La66  1  -0.00585096  0.81925814  0.87321625  1
  La  La67  1  0.83881702  0.31711960  0.37540496  1
  La  La68  1  0.66110663  0.81575947  0.37669217  1
  La  La69  1  0.66217995  0.47972888  0.87494193  1
  La  La70  1  0.33041386  0.15505036  0.87354906  1
  La  La71  1  0.82871021  0.34975955  0.12560687  1
  In  In72  1  0.33576737  0.33199795  -0.00341294  1
  In  In73  1  0.33130488  0.00185581  0.75296712  1
  In  In74  1  0.16472426  0.50189689  0.50218673  1
  In  In75  1  0.16547264  0.83335781  0.50213449  1
  In  In76  1  0.33662149  0.33049272  0.24690434  1
  In  In77  1  0.66695716  0.66648201  -0.00040685  1
  In  In78  1  -0.00262808  0.33791808  0.50239242  1
  In  In79  1  0.33225246  0.33250262  0.49924000  1
  In  In80  1  0.16726060  0.83541927  0.24762782  1
  In  In81  1  0.16736210  0.16421544  0.50514386  1
  In  In82  1  0.16894408  0.49875449  0.00063090  1
  In  In83  1  0.66517460  -0.00445654  0.50017319  1
  In  In84  1  0.50184450  0.50386744  0.74790883  1
  In  In85  1  0.66601888  0.00028444  0.74898113  1
  In  In86  1  0.33054000  0.33403605  0.75268671  1
  In  In87  1  0.00132229  0.66727890  0.25040669  1
  In  In88  1  0.66873651  0.33403011  0.49912378  1
  In  In89  1  0.00252268  0.66408952  -0.00428219  1
  In  In90  1  0.83012663  0.83495164  0.25408951  1
  In  In91  1  0.83371324  0.50009545  0.74753050  1
  In  In92  1  0.33146335  0.66781333  0.74800718  1
  In  In93  1  0.49774936  0.83275381  0.75071729  1
  In  In94  1  -0.00271374  0.32921171  0.00379876  1
  In  In95  1  0.66568659  0.32997275  0.25083669  1
  In  In96  1  0.33211524  0.66614124  0.50053454  1
  In  In97  1  0.33513136  0.00237723  -0.00246345  1
  In  In98  1  0.50032712  0.16687432  0.49406244  1
  In  In99  1  0.50295705  0.83795465  0.25177444  1
  In  In100  1  0.00119215  0.66952778  0.50224186  1
  In  In101  1  0.16409685  0.16365740  -0.00393397  1
  In  In102  1  0.66674323  0.00258671  0.00208177  1
  In  In103  1  -0.00162417  0.33278973  0.24984277  1
  In  In104  1  0.83167706  0.50025361  -0.00398414  1
  In  In105  1  0.33647122  0.66719829  0.24691988  1
  In  In106  1  0.50273029  0.50302909  0.49842096  1
  In  In107  1  -0.00172326  0.00076648  0.24985317  1
  Ir  Ir108  1  0.83183809  0.50245846  0.50064484  1
  Ir  Ir109  1  0.50266226  0.17018760  0.00000355  1
  Ir  Ir110  1  0.66772590  0.00468799  0.24900661  1
  Ir  Ir111  1  0.83715867  0.16278812  0.00399741  1
  Ir  Ir112  1  0.00248371  0.00043830  0.75185699  1
  Ir  Ir113  1  0.82665428  0.49955956  0.25489491  1
  Ir  Ir114  1  0.67007448  0.66630455  0.50117830  1
  Ir  Ir115  1  0.33448508  0.00413686  0.24960340  1
  Ir  Ir116  1  0.16802788  0.16123730  0.24791484  1
  Ir  Ir117  1  0.83764286  0.16738691  0.75076570  1
  Ir  Ir118  1  -0.00155611  -0.00144659  -0.00081000  1
  Ir  Ir119  1  0.66424298  0.66444908  0.25344138  1
  Ir  Ir120  1  0.50039685  0.50178022  0.00007633  1
  Ir  Ir121  1  0.83376215  0.16651390  0.50043589  1
  Ir  Ir122  1  0.83697884  0.83673879  -0.00388264  1
  Ir  Ir123  1  0.17066742  0.49946535  0.24901322  1
  Ir  Ir124  1  0.16236180  0.16441917  0.75451642  1
  Ir  Ir125  1  0.66389431  0.33097301  0.75224225  1
  Ir  Ir126  1  0.83108902  0.83334282  0.50498598  1
  Ir  Ir127  1  0.83037635  0.16554419  0.24673328  1
  Ir  Ir128  1  0.33705448  0.66596485  -0.00218097  1
  Ir  Ir129  1  0.49523585  0.16792585  0.75386799  1
  Ir  Ir130  1  0.50139846  0.50220807  0.24387324  1
  Ir  Ir131  1  -0.00452258  0.00182331  0.50720172  1
  Ir  Ir132  1  0.50297104  0.16458808  0.24627644  1
  Ir  Ir133  1  0.83898419  0.83014426  0.75018910  1
  Ir  Ir134  1  0.33630343  -0.00205157  0.50105685  1
  Ir  Ir135  1  0.16330933  0.50257337  0.75239723  1
  Ir  Ir136  1  0.49632320  0.83224094  0.00309993  1
  Ir  Ir137  1  0.00000151  0.33131987  0.75145956  1
  Ir  Ir138  1  0.16692461  0.83663522  -0.00449486  1
  Ir  Ir139  1  0.66173926  0.32940686  0.00034668  1
  Ir  Ir140  1  0.67015953  0.66443816  0.74553110  1
  Ir  Ir141  1  0.50111002  0.83234187  0.50062251  1
  Ir  Ir142  1  0.00346004  0.66765914  0.74944116  1
  Ir  Ir143  1  0.16179875  0.83366334  0.75365398  1
  O  O144  1  0.31904129  0.33365402  0.12243588  1
  O  O145  1  0.31189653  0.31617608  0.62890597  1
  O  O146  1  0.31580894  0.65236941  0.11666080  1
  O  O147  1  0.29506088  0.66205633  0.62601220  1
  O  O148  1  0.30782225  0.99792230  0.12684256  1
  O  O149  1  0.31877817  0.99232157  0.62216652  1
  O  O150  1  0.63345770  0.32045007  0.12161594  1
  O  O151  1  0.64799759  0.32647228  0.63079490  1
  O  O152  1  0.63632816  0.66351603  0.13217447  1
  O  O153  1  0.63897011  0.65318971  0.62235443  1
  O  O154  1  0.64883974  1.00040749  0.13028797  1
  O  O155  1  0.63166217  1.00173770  0.62571964  1
  O  O156  1  0.96323018  0.31558713  0.12949544  1
  O  O157  1  0.98100634  0.32124375  0.63221345  1
  O  O158  1  0.98350647  0.66061483  0.12139539  1
  O  O159  1  0.96747735  0.65485461  0.63272656  1
  O  O160  1  0.96604674  0.99619355  0.11662256  1
  O  O161  1  0.97638678  0.98954407  0.63104477  1
  O  O162  1  0.18695574  0.14817387  0.12733862  1
  O  O163  1  0.20015628  0.16266892  0.63697034  1
  O  O164  1  0.20216554  0.49561786  0.12865338  1
  O  O165  1  0.18471763  0.49855013  0.63589016  1
  O  O166  1  0.20293481  0.83775715  0.11345863  1
  O  O167  1  0.19931678  0.82748173  0.63499632  1
  O  O168  1  0.53705152  0.16274568  0.12158960  1
  O  O169  1  0.51592378  0.15581771  0.63343983  1
  O  O170  1  0.52646917  0.48826844  0.12140961  1
  O  O171  1  0.53898182  0.49433895  0.62440430  1
  O  O172  1  0.51829479  0.82995576  0.12234703  1
  O  O173  1  0.51672347  0.82626563  0.61946839  1
  O  O174  1  0.86546687  0.15191293  0.12561471  1
  O  O175  1  0.86580586  0.16691313  0.62554181  1
  O  O176  1  0.84608219  0.48972351  0.13277589  1
  O  O177  1  0.86556225  0.49698176  0.61982099  1
  O  O178  1  0.84628644  0.84060825  0.11624884  1
  O  O179  1  0.86556081  0.82428207  0.62851151  1
  O  O180  1  0.15277333  0.16147774  0.36898320  1
  O  O181  1  0.12442203  0.16547736  0.86973848  1
  O  O182  1  0.14725075  0.51137883  0.36872536  1
  O  O183  1  0.13293319  0.51109807  0.86863030  1
  O  O184  1  0.15216347  0.84295152  0.37632264  1
  O  O185  1  0.12938353  0.84687352  0.87409886  1
  O  O186  1  0.46598373  0.16763742  0.36360546  1
  O  O187  1  0.46682178  0.18047206  0.87846636  1
  O  O188  1  0.46816509  0.50566000  0.36154363  1
  O  O189  1  0.47110528  0.50700714  0.88135742  1
  O  O190  1  0.48292876  0.83027026  0.38040070  1
  O  O191  1  0.47990461  0.83917519  0.88236538  1
  O  O192  1  0.80066926  0.17599131  0.37141270  1
  O  O193  1  0.81803101  0.16575376  0.87720580  1
  O  O194  1  0.79785166  0.50624789  0.37913113  1
  O  O195  1  0.79745479  0.49933758  0.87012935  1
  O  O196  1  0.79742233  0.83656987  0.38541370  1
  O  O197  1  0.81687732  0.83164868  0.87254634  1
  O  O198  1  0.01236750  0.00451740  0.38541072  1
  O  O199  1  0.03050657  0.01024759  0.87558667  1
  O  O200  1  0.01115438  0.33272122  0.37461079  1
  O  O201  1  0.01238209  0.34060999  0.87193343  1
  O  O202  1  0.03659716  0.66605528  0.37820608  1
  O  O203  1  0.03574436  0.68223482  0.86635254  1
  O  O204  1  0.35432338  0.01320031  0.37511341  1
  O  O205  1  0.37254232  0.01208661  0.87452266  1
  O  O206  1  0.35131214  0.34466916  0.37002785  1
  O  O207  1  0.37024017  0.34519010  0.87479103  1
  O  O208  1  0.35231569  0.67043898  0.37337651  1
  O  O209  1  0.35580892  0.67031777  0.87850468  1
  O  O210  1  0.68634427  0.01354697  0.36816542  1
  O  O211  1  0.67830567  0.00147504  0.87603809  1
  O  O212  1  0.70337225  0.34302928  0.37297010  1
  O  O213  1  0.68605904  0.33983151  0.87630477  1
  O  O214  1  0.68710530  0.68083288  0.37803541  1
  O  O215  1  0.68137268  0.67402110  0.86638596  1
  O  O216  1  0.06530417  0.08841748  0.02665641  1
  O  O217  1  0.06579866  0.09229287  0.52838846  1
  O  O218  1  0.07247575  0.42494995  0.00850376  1
  O  O219  1  0.06176571  0.43704703  0.52526195  1
  O  O220  1  0.07783119  0.76839456  0.00779759  1
  O  O221  1  0.06934597  0.76517977  0.53988771  1
  O  O222  1  0.41073028  0.10262988  0.01272538  1
  O  O223  1  0.40431992  0.08941088  0.52264990  1
  O  O224  1  0.40804884  0.43748963  0.02384757  1
  O  O225  1  0.40742619  0.42957106  0.50796609  1
  O  O226  1  0.40409587  0.76022336  0.03032963  1
  O  O227  1  0.40434119  0.76878956  0.52598013  1
  O  O228  1  0.74296214  0.09787394  0.02901827  1
  O  O229  1  0.74445999  0.09434464  0.50907745  1
  O  O230  1  0.73356498  0.41643249  0.01737221  1
  O  O231  1  0.73870489  0.43922030  0.52340136  1
  O  O232  1  0.74665840  0.76500283  0.00959848  1
  O  O233  1  0.74148950  0.75923324  0.52618501  1
  O  O234  1  0.08822903  0.25155339  0.02778938  1
  O  O235  1  0.08646194  0.25296115  0.51947303  1
  O  O236  1  0.10583958  0.60031455  0.00249830  1
  O  O237  1  0.09379887  0.59704815  0.53773894  1
  O  O238  1  0.10184150  0.93634500  0.01804757  1
  O  O239  1  0.08270733  0.92805675  0.52369770  1
  O  O240  1  0.44295647  0.26818092  0.01928023  1
  O  O241  1  0.42447600  0.25353745  0.52247075  1
  O  O242  1  0.43563161  0.59914570  0.02630399  1
  O  O243  1  0.43740673  0.60352023  0.52626893  1
  O  O244  1  0.41873283  0.91701963  0.02335928  1
  O  O245  1  0.43543034  0.92914639  0.52656749  1
  O  O246  1  0.76261124  0.25828602  0.03020528  1
  O  O247  1  0.76543475  0.25646977  0.51091986  1
  O  O248  1  0.76015422  0.59417765  0.01681599  1
  O  O249  1  0.76556107  0.59945744  0.52927598  1
  O  O250  1  0.76809369  0.93064620  0.01508835  1
  O  O251  1  0.76071234  0.92163675  0.52220065  1
  O  O252  1  0.24295972  0.07349571  0.27040905  1
  O  O253  1  0.23231725  0.07429649  0.78310279  1
  O  O254  1  0.24233217  0.41346570  0.26987228  1
  O  O255  1  0.23424648  0.41353753  0.77548660  1
  O  O256  1  0.23805338  0.73628367  0.26673185  1
  O  O257  1  0.22427121  0.73884955  0.77551351  1
  O  O258  1  0.57368117  0.07427720  0.27182252  1
  O  O259  1  0.55669345  0.07221188  0.77190695  1
  O  O260  1  0.57151468  0.41125971  0.26460500  1
  O  O261  1  0.57446018  0.40144764  0.77987436  1
  O  O262  1  0.57643710  0.73819297  0.26460077  1
  O  O263  1  0.57694076  0.73426829  0.75191938  1
  O  O264  1  0.89858585  0.07647905  0.26229334  1
  O  O265  1  0.91333449  0.07657172  0.77272265  1
  O  O266  1  0.89101722  0.40372653  0.26896563  1
  O  O267  1  0.91271861  0.40620622  0.76963428  1
  O  O268  1  0.90611031  0.74322351  0.26646893  1
  O  O269  1  0.91291287  0.73925837  0.77181578  1
  O  O270  1  0.26155089  0.23075731  0.26871641  1
  O  O271  1  0.25576181  0.23122153  0.78129900  1
  O  O272  1  0.26431278  0.56668849  0.26973654  1
  O  O273  1  0.25608722  0.56943455  0.78156914  1
  O  O274  1  0.26828531  0.91121787  0.25656476  1
  O  O275  1  0.24829937  0.90998157  0.77621075  1
  O  O276  1  0.59863465  0.22709635  0.27097671  1
  O  O277  1  0.58732044  0.24023181  0.77701938  1
  O  O278  1  0.59732158  0.56772403  0.27388355  1
  O  O279  1  0.60987180  0.56678779  0.76898465  1
  O  O280  1  0.60520087  0.90734870  0.27277614  1
  O  O281  1  0.58474185  0.91202556  0.77107036  1
  O  O282  1  0.91561080  0.23700610  0.27164913  1
  O  O283  1  0.93761360  0.23236272  0.76959350  1
  O  O284  1  0.91645340  0.56924208  0.26501440  1
  O  O285  1  0.94089177  0.57030630  0.77288746  1
  O  O286  1  0.92327530  0.91022635  0.26571765  1
  O  O287  1  0.93591585  0.90086649  0.77194556  1
  O  O288  1  0.26780263  0.22727633  0.47977175  1
  O  O289  1  0.26526048  0.23286393  0.97340282  1
  O  O290  1  0.26410680  0.56691468  0.47032585  1
  O  O291  1  0.27237917  0.57283469  0.97314718  1
  O  O292  1  0.26940880  0.90435258  0.49587946  1
  O  O293  1  0.25201683  0.91113750  0.97448579  1
  O  O294  1  0.59962331  0.23630482  0.47276114  1
  O  O295  1  0.59321639  0.23786884  0.97868707  1
  O  O296  1  0.60895014  0.57216746  0.47589477  1
  O  O297  1  0.59599304  0.56288213  0.97484362  1
  O  O298  1  0.59719199  0.89469446  0.47599548  1
  O  O299  1  0.58115162  0.91041122  0.98502485  1
  O  O300  1  0.91869829  0.24164885  0.48565357  1
  O  O301  1  0.93250231  0.22355572  0.98300727  1
  O  O302  1  0.92247834  0.56997055  0.48635730  1
  O  O303  1  0.93414302  0.56504461  0.96801288  1
  O  O304  1  0.92632504  0.90324401  0.49177823  1
  O  O305  1  0.93331556  0.90412604  0.97178480  1
  O  O306  1  0.24635808  0.06860952  0.48529952  1
  O  O307  1  0.23751795  0.07052444  0.96795371  1
  O  O308  1  0.23652753  0.40625009  0.48318665  1
  O  O309  1  0.24942053  0.41453658  0.96853084  1
  O  O310  1  0.22417518  0.72723511  0.48279439  1
  O  O311  1  0.23599094  0.73528739  0.97389441  1
  O  O312  1  0.57671815  0.07599561  0.48146153  1
  O  O313  1  0.56517051  0.07484364  0.97616849  1
  O  O314  1  0.58303151  0.41518901  0.46756699  1
  O  O315  1  0.56455020  0.40101908  0.97553332  1
  O  O316  1  0.57245126  0.73639814  0.48452890  1
  O  O317  1  0.56879417  0.74153697  0.99356382  1
  O  O318  1  0.90633479  0.07685163  0.48859202  1
  O  O319  1  0.90450531  0.06743012  0.97860330  1
  O  O320  1  0.89085738  0.40610070  0.47548235  1
  O  O321  1  0.89869058  0.40003221  0.99702377  1
  O  O322  1  0.90152155  0.74346930  0.49151697  1
  O  O323  1  0.91119069  0.74861056  0.97743999  1
  O  O324  1  0.09171185  0.24680912  0.22843392  1
  O  O325  1  0.09072865  0.25406306  0.72676150  1
  O  O326  1  0.10044402  0.58601767  0.23169160  1
  O  O327  1  0.09766885  0.60062008  0.72547241  1
  O  O328  1  0.09940987  0.93567826  0.22298903  1
  O  O329  1  0.09058866  0.92540828  0.73047983  1
  O  O330  1  0.44249192  0.26099388  0.22154779  1
  O  O331  1  0.42725514  0.25622440  0.73639119  1
  O  O332  1  0.43623753  0.59349496  0.21520360  1
  O  O333  1  0.43614037  0.60509953  0.72407946  1
  O  O334  1  0.42167960  0.92979140  0.23139047  1
  O  O335  1  0.42658576  0.93141613  0.72422731  1
  O  O336  1  0.76329479  0.25747018  0.21725302  1
  O  O337  1  0.76141387  0.25603142  0.73440748  1
  O  O338  1  0.75691769  0.59420327  0.23832429  1
  O  O339  1  0.76292731  0.59809303  0.71853729  1
  O  O340  1  0.76148786  0.93952057  0.22836616  1
  O  O341  1  0.76249967  0.91624601  0.73412895  1
  O  O342  1  0.07385684  0.09403531  0.22356344  1
  O  O343  1  0.06715999  0.09785125  0.72625149  1
  O  O344  1  0.08045765  0.42599188  0.23163322  1
  O  O345  1  0.06422847  0.43457303  0.73294702  1
  O  O346  1  0.07568039  0.76083160  0.23088478  1
  O  O347  1  0.06825867  0.76534211  0.72309845  1
  O  O348  1  0.40736959  0.09719509  0.23049801  1
  O  O349  1  0.39913996  0.10448181  0.72922723  1
  O  O350  1  0.41078083  0.43392076  0.21892578  1
  O  O351  1  0.40407639  0.43254046  0.73803116  1
  O  O352  1  0.40856373  0.76321476  0.21957395  1
  O  O353  1  0.39810805  0.76809851  0.72473818  1
  O  O354  1  0.73355795  0.10061136  0.22321021  1
  O  O355  1  0.74748873  0.09403900  0.73594719  1
  O  O356  1  0.73997793  0.42698291  0.23424248  1
  O  O357  1  0.72953876  0.42712804  0.72971750  1
  O  O358  1  0.73180461  0.75827031  0.24070535  1
  O  O359  1  0.74946090  0.75349145  0.72251691  1
