# generated using pymatgen
data_BaLaInIrO6
_symmetry_space_group_name_H-M   'P 1'
_cell_length_a   17.51694276
_cell_length_b   17.54758708
_cell_length_c   16.48517549
_cell_angle_alpha   90.04230681
_cell_angle_beta   90.00887451
_cell_angle_gamma   89.95736670
_symmetry_Int_Tables_number   1
_chemical_formula_structural   BaLaInIrO6
_chemical_formula_sum   'Ba36 La36 In36 Ir36 O216'
_cell_volume   5067.21169343
_cell_formula_units_Z   36
loop_
 _symmetry_equiv_pos_site_id
 _symmetry_equiv_pos_as_xyz
  1  'x, y, z'
loop_
 _atom_site_type_symbol
 _atom_site_label
 _atom_site_symmetry_multiplicity
 _atom_site_fract_x
 _atom_site_fract_y
 _atom_site_fract_z
 _atom_site_occupancy
  Ba  Ba0  1  0.83427568  0.65999490  0.87404782  1
  Ba  Ba1  1  0.16141335  0.67405293  0.12591427  1
  Ba  Ba2  1  1.00086676  0.51014864  0.12352254  1
  Ba  Ba3  1  0.83250280  0.32303159  0.87103742  1
  Ba  Ba4  1  0.67186103  0.17786099  0.12394737  1
  Ba  Ba5  1  1.00367482  0.83844208  0.12321778  1
  Ba  Ba6  1  0.82993539  0.34215532  0.12337702  1
  Ba  Ba7  1  0.49737774  0.32622788  0.37939810  1
  Ba  Ba8  1  0.33462758  0.84376021  0.62955788  1
  Ba  Ba9  1  0.66238348  0.82401921  0.38198895  1
  Ba  Ba10  1  0.16305923  0.00657132  0.62391013  1
  Ba  Ba11  1  0.50068611  0.33840922  0.12003849  1
  Ba  Ba12  1  0.66679401  0.50653813  0.62331418  1
  Ba  Ba13  1  0.16705170  0.67408717  0.62662037  1
  Ba  Ba14  1  1.00252807  0.17805501  0.12860734  1
  Ba  Ba15  1  0.33222142  0.17478983  0.12663127  1
  Ba  Ba16  1  0.83273320  0.65911170  0.37506246  1
  Ba  Ba17  1  1.00094684  0.17070572  0.62403576  1
  Ba  Ba18  1  0.83395631  0.67790186  0.12408332  1
  Ba  Ba19  1  1.00158070  0.83807716  0.63026933  1
  Ba  Ba20  1  0.66675717  0.16182777  0.87368558  1
  Ba  Ba21  1  0.83112292  0.67295496  0.62797809  1
  Ba  Ba22  1  0.83026605  0.00585196  0.62177701  1
  Ba  Ba23  1  -0.00078425  0.82514647  0.87482797  1
  Ba  Ba24  1  0.66673509  0.84211109  0.63085370  1
  Ba  Ba25  1  0.66636455  0.82598374  0.87538014  1
  Ba  Ba26  1  0.50053848  0.34355733  0.62217168  1
  Ba  Ba27  1  0.33756336  0.51364825  0.62090020  1
  Ba  Ba28  1  0.50350935  0.65683961  0.87069804  1
  Ba  Ba29  1  0.16599602  0.65674622  0.87177511  1
  Ba  Ba30  1  0.33533229  0.16161347  0.87331544  1
  Ba  Ba31  1  0.00134402  0.82570476  0.37882535  1
  Ba  Ba32  1  0.16439710  0.99333603  0.37801325  1
  Ba  Ba33  1  0.66268215  0.49271748  0.86931671  1
  Ba  Ba34  1  1.00172344  0.50418795  0.62463184  1
  Ba  Ba35  1  0.33416105  0.48837062  0.37792783  1
  La  La36  1  0.66541718  0.15185494  0.37402762  1
  La  La37  1  0.50405902  0.98958284  0.87881190  1
  La  La38  1  0.33642972  0.18074252  0.62400844  1
  La  La39  1  0.50786791  0.31935715  0.87021300  1
  La  La40  1  0.32396828  0.81726746  0.37974818  1
  La  La41  1  0.84002213  0.98247086  0.37398843  1
  La  La42  1  0.33787051  0.84847572  0.12397024  1
  La  La43  1  0.50845290  0.64828419  0.37849225  1
  La  La44  1  0.83336605  0.99091743  0.87424526  1
  La  La45  1  -0.00866843  0.14768389  0.87192290  1
  La  La46  1  -0.00363243  0.14945083  0.37496581  1
  La  La47  1  0.49595912  0.01347416  0.63126924  1
  La  La48  1  -0.00400686  0.48677251  0.36925502  1
  La  La49  1  0.67294758  0.84960910  0.12610324  1
  La  La50  1  0.66037679  0.48668003  0.37659030  1
  La  La51  1  0.49716457  0.01473933  0.12693435  1
  La  La52  1  0.67564373  0.51085681  0.12200581  1
  La  La53  1  0.16794970  0.65465061  0.37512167  1
  La  La54  1  0.83052842  0.01359086  0.12669934  1
  La  La55  1  0.49655959  0.68398290  0.62562947  1
  La  La56  1  -0.00821493  0.49322123  0.87613031  1
  La  La57  1  0.49723231  0.67992023  0.12317054  1
  La  La58  1  0.32792853  0.81663171  0.87230619  1
  La  La59  1  0.16700851  0.32487019  0.87125263  1
  La  La60  1  0.33421892  0.51229475  0.12376045  1
  La  La61  1  0.16222006  0.01387100  0.12036506  1
  La  La62  1  0.15445752  0.34729855  0.12887757  1
  La  La63  1  0.83977185  0.32030343  0.37322708  1
  La  La64  1  0.50106466  0.98995781  0.37509303  1
  La  La65  1  0.16591768  0.34559632  0.62560072  1
  La  La66  1  0.82736302  0.34738380  0.62903456  1
  La  La67  1  0.67439962  0.18115556  0.62504663  1
  La  La68  1  0.32972818  0.15661609  0.37306723  1
  La  La69  1  0.17002745  0.98682852  0.87024562  1
  La  La70  1  0.33003887  0.48504287  0.86999666  1
  La  La71  1  0.17112940  0.31865979  0.38027497  1
  In  In72  1  0.32868202  0.33441579  -0.00100064  1
  In  In73  1  0.33223875  -0.00174203  0.25219923  1
  In  In74  1  0.49892684  0.16600454  -0.00032231  1
  In  In75  1  0.50186119  0.16675572  0.50007533  1
  In  In76  1  0.66562621  0.66816697  0.00028227  1
  In  In77  1  0.16808670  0.49858325  -0.00445846  1
  In  In78  1  0.16784235  0.49909506  0.50010607  1
  In  In79  1  0.00013528  0.32875050  0.74943855  1
  In  In80  1  0.32847909  0.33581199  0.24638343  1
  In  In81  1  0.66813629  0.33202830  0.25395699  1
  In  In82  1  0.33423788  0.66504968  -0.00077520  1
  In  In83  1  -0.00036121  0.32944077  0.49996909  1
  In  In84  1  0.66571529  0.33504366  -0.00238704  1
  In  In85  1  -0.00170221  -0.00022419  0.50300084  1
  In  In86  1  0.16693691  0.16606943  0.74862826  1
  In  In87  1  0.00112092  0.66514734  0.74772718  1
  In  In88  1  0.83345272  0.50081434  0.49604039  1
  In  In89  1  0.50050508  0.49949398  -0.00003186  1
  In  In90  1  -0.00206930  0.66750565  0.25202736  1
  In  In91  1  0.33530670  0.66585771  0.24946875  1
  In  In92  1  0.66646850  0.00210841  0.00081837  1
  In  In93  1  0.49843583  0.83729752  0.75312195  1
  In  In94  1  0.49905372  0.83362997  0.25142740  1
  In  In95  1  0.16814234  0.83302316  0.50351335  1
  In  In96  1  0.66590243  0.66537974  0.74849937  1
  In  In97  1  0.33113459  0.00016317  -0.00307456  1
  In  In98  1  0.83074766  0.82955177  0.50213841  1
  In  In99  1  0.00031877  -0.00124450  0.24525784  1
  In  In100  1  0.17010375  0.83350154  0.24928044  1
  In  In101  1  0.66397069  0.00093430  0.50177528  1
  In  In102  1  0.83789197  0.16774833  0.00039819  1
  In  In103  1  0.00091438  0.66776626  -0.00090263  1
  In  In104  1  0.16144260  0.16763470  -0.00512588  1
  In  In105  1  0.49950729  0.16862069  0.25307367  1
  In  In106  1  0.66451712  0.66770141  0.25165658  1
  In  In107  1  0.50336028  0.49827288  0.24673031  1
  Ir  Ir108  1  0.49249631  0.83555795  0.49922011  1
  Ir  Ir109  1  0.17255991  0.83575138  -0.00339394  1
  Ir  Ir110  1  0.49407851  0.49837920  0.74533747  1
  Ir  Ir111  1  0.17175029  0.16707400  0.49906894  1
  Ir  Ir112  1  0.33963006  0.66799227  0.49953468  1
  Ir  Ir113  1  0.83012443  0.16938949  0.49910931  1
  Ir  Ir114  1  0.83272786  0.83920343  0.75442822  1
  Ir  Ir115  1  0.16414538  0.16861186  0.25489661  1
  Ir  Ir116  1  0.50082215  0.16584049  0.74466970  1
  Ir  Ir117  1  0.16862233  0.49618757  0.74962554  1
  Ir  Ir118  1  0.33622733  0.00313639  0.74902882  1
  Ir  Ir119  1  0.33638246  0.33382160  0.74705822  1
  Ir  Ir120  1  0.83342684  0.83967993  0.00371379  1
  Ir  Ir121  1  0.66531948  0.33132977  0.74407026  1
  Ir  Ir122  1  -0.00012065  -0.00258375  -0.00168177  1
  Ir  Ir123  1  0.66945333  0.00075742  0.25349757  1
  Ir  Ir124  1  0.66158556  0.66551751  0.50091165  1
  Ir  Ir125  1  0.49968881  0.83521936  0.00458788  1
  Ir  Ir126  1  0.16434956  0.49603845  0.25406402  1
  Ir  Ir127  1  0.00203790  0.33474071  0.00158935  1
  Ir  Ir128  1  0.00257468  0.66384128  0.49919401  1
  Ir  Ir129  1  0.33788137  0.00320830  0.50543031  1
  Ir  Ir130  1  0.83092780  0.49897063  0.24844011  1
  Ir  Ir131  1  0.83294922  0.16199685  0.74600993  1
  Ir  Ir132  1  0.17086012  0.83605869  0.75491744  1
  Ir  Ir133  1  0.50114894  0.50039184  0.50287287  1
  Ir  Ir134  1  0.83358815  0.16590418  0.25728720  1
  Ir  Ir135  1  0.83425936  0.49794799  0.00004653  1
  Ir  Ir136  1  0.33207243  0.33007236  0.50138140  1
  Ir  Ir137  1  0.00222270  0.33260988  0.25166776  1
  Ir  Ir138  1  0.83348560  0.49559757  0.75312387  1
  Ir  Ir139  1  0.66475717  0.00439287  0.75227868  1
  Ir  Ir140  1  0.67347425  0.33262863  0.50049661  1
  Ir  Ir141  1  0.33525611  0.66559375  0.74717434  1
  Ir  Ir142  1  0.82973755  0.83721693  0.24602185  1
  Ir  Ir143  1  -0.00080411  -0.00165038  0.75490814  1
  O  O144  1  0.28822337  0.33008631  0.12395990  1
  O  O145  1  0.30180979  0.32271466  0.62393583  1
  O  O146  1  0.30691595  0.64859728  0.12487332  1
  O  O147  1  0.31515122  0.66812346  0.62314341  1
  O  O148  1  0.29507791  0.98759220  0.12415439  1
  O  O149  1  0.31020706  0.99953444  0.62722603  1
  O  O150  1  0.65286759  0.33338283  0.12704571  1
  O  O151  1  0.64818645  0.31929611  0.62131400  1
  O  O152  1  0.63514552  0.65563049  0.12647145  1
  O  O153  1  0.63428249  0.66415860  0.61934396  1
  O  O154  1  0.63635139  0.99160400  0.13272761  1
  O  O155  1  0.63412082  1.00126838  0.63161563  1
  O  O156  1  0.97821817  0.33056289  0.12638754  1
  O  O157  1  0.96276103  0.32815143  0.62405557  1
  O  O158  1  0.98431300  0.66705350  0.12517472  1
  O  O159  1  0.98156743  0.66147345  0.62044734  1
  O  O160  1  0.96776461  0.99978085  0.11832323  1
  O  O161  1  0.98030498  1.00069126  0.63382514  1
  O  O162  1  0.18061101  0.15409159  0.13209381  1
  O  O163  1  0.20046468  0.16025905  0.61945769  1
  O  O164  1  0.19608862  0.48591500  0.13177436  1
  O  O165  1  0.19103279  0.48877842  0.62972214  1
  O  O166  1  0.20170843  0.82971632  0.11611597  1
  O  O167  1  0.18580775  0.83359782  0.63413865  1
  O  O168  1  0.52448111  0.15133817  0.12785585  1
  O  O169  1  0.53575214  0.15371594  0.62603301  1
  O  O170  1  0.54230062  0.48968373  0.12488873  1
  O  O171  1  0.51829808  0.49637188  0.62408138  1
  O  O172  1  0.53636858  0.82363046  0.12205450  1
  O  O173  1  0.51472108  0.82770099  0.61962083  1
  O  O174  1  0.85479130  0.15567356  0.13530518  1
  O  O175  1  0.85263317  0.16472886  0.62219928  1
  O  O176  1  0.85493579  0.49679510  0.12354292  1
  O  O177  1  0.85133293  0.48964525  0.63069247  1
  O  O178  1  0.85462854  0.84198224  0.12533230  1
  O  O179  1  0.84867885  0.83748500  0.63407014  1
  O  O180  1  0.13564506  0.18065976  0.37717238  1
  O  O181  1  0.12473364  0.18320639  0.87082796  1
  O  O182  1  0.13418001  0.50570819  0.37321180  1
  O  O183  1  0.13273470  0.49587213  0.86518009  1
  O  O184  1  0.15549043  0.83859843  0.37777272  1
  O  O185  1  0.14887180  0.84885876  0.87621428  1
  O  O186  1  0.46394097  0.16626428  0.37895339  1
  O  O187  1  0.48179038  0.17570702  0.86342430  1
  O  O188  1  0.48148112  0.50719047  0.38334665  1
  O  O189  1  0.46553802  0.50312822  0.86394952  1
  O  O190  1  0.46038456  0.84938149  0.37981981  1
  O  O191  1  0.46636930  0.84752181  0.88323649  1
  O  O192  1  0.80054698  0.17900356  0.37961849  1
  O  O193  1  0.81900961  0.15717538  0.86559090  1
  O  O194  1  0.80131755  0.50014323  0.36670800  1
  O  O195  1  0.81308491  0.49625685  0.87745956  1
  O  O196  1  0.81109615  0.84142388  0.36582427  1
  O  O197  1  0.81158605  0.85113995  0.88032948  1
  O  O198  1  0.01105188  0.00946272  0.37353454  1
  O  O199  1  0.03164763  0.00420188  0.87754217  1
  O  O200  1  0.03321756  0.34116474  0.37020279  1
  O  O201  1  0.02866426  0.34479026  0.88047628  1
  O  O202  1  0.02933770  0.66596368  0.37939934  1
  O  O203  1  0.01150909  0.65878317  0.87268550  1
  O  O204  1  0.36587662  0.01371619  0.38551682  1
  O  O205  1  0.36784562  0.00461930  0.86728081  1
  O  O206  1  0.34644487  0.33001199  0.38136056  1
  O  O207  1  0.36966157  0.34361216  0.86434720  1
  O  O208  1  0.37099207  0.67571813  0.38059955  1
  O  O209  1  0.35393341  0.67411059  0.86805750  1
  O  O210  1  0.70408264  0.01075188  0.37113277  1
  O  O211  1  0.69601568  0.00521620  0.87123149  1
  O  O212  1  0.70471065  0.34499911  0.38292099  1
  O  O213  1  0.68146434  0.33301264  0.86254738  1
  O  O214  1  0.68280739  0.66934789  0.38295087  1
  O  O215  1  0.68332719  0.67096018  0.87405208  1
  O  O216  1  0.06898857  0.08646867  0.01851407  1
  O  O217  1  0.07721145  0.09994225  0.50666527  1
  O  O218  1  0.07436636  0.42030102  0.02226762  1
  O  O219  1  0.07968646  0.41801717  0.52073902  1
  O  O220  1  0.08342452  0.76575735  0.00937565  1
  O  O221  1  0.07308578  0.75206605  0.51651290  1
  O  O222  1  0.40977815  0.08517205  0.02265315  1
  O  O223  1  0.40659585  0.09193754  0.53565290  1
  O  O224  1  0.39407124  0.43788819  0.02243724  1
  O  O225  1  0.40413599  0.42292465  0.51836753  1
  O  O226  1  0.40665326  0.76761960  0.02579017  1
  O  O227  1  0.40749933  0.75892819  0.52380414  1
  O  O228  1  0.75150188  0.08457270  0.02494801  1
  O  O229  1  0.73193857  0.10790887  0.51900814  1
  O  O230  1  0.73972875  0.43392725  0.01771602  1
  O  O231  1  0.74511190  0.41920932  0.52294739  1
  O  O232  1  0.73932106  0.77153042  0.02624242  1
  O  O233  1  0.73370464  0.75364745  0.52026538  1
  O  O234  1  0.09281291  0.26835291  0.02556416  1
  O  O235  1  0.10628136  0.26063224  0.52171874  1
  O  O236  1  0.09456076  0.59019835  0.01212858  1
  O  O237  1  0.09309571  0.59525356  0.51257785  1
  O  O238  1  0.10216527  0.93222945  0.02031592  1
  O  O239  1  0.08885994  0.92284898  0.51637975  1
  O  O240  1  0.42032819  0.25830741  0.00936084  1
  O  O241  1  0.41900436  0.25618914  0.52436561  1
  O  O242  1  0.43361714  0.59977071  0.03037981  1
  O  O243  1  0.43836848  0.60110215  0.52161990  1
  O  O244  1  0.43185015  0.92547206  0.03183604  1
  O  O245  1  0.43254378  0.93662994  0.52706475  1
  O  O246  1  0.76194866  0.25876822  0.00593463  1
  O  O247  1  0.76871759  0.26663012  0.52563842  1
  O  O248  1  0.76293863  0.58685657  0.02022790  1
  O  O249  1  0.75287626  0.59421669  0.51572715  1
  O  O250  1  0.76163684  0.92761347  0.02800228  1
  O  O251  1  0.75126284  0.92247044  0.51014521  1
  O  O252  1  0.23765349  0.08045848  0.27354560  1
  O  O253  1  0.24052696  0.06842706  0.77450320  1
  O  O254  1  0.22476356  0.40084123  0.27798195  1
  O  O255  1  0.24191008  0.40369723  0.77503071  1
  O  O256  1  0.24087025  0.73291335  0.28430445  1
  O  O257  1  0.24616258  0.74627557  0.77509192  1
  O  O258  1  0.57826283  0.06717870  0.28179086  1
  O  O259  1  0.56586470  0.06920001  0.77348918  1
  O  O260  1  0.57974244  0.40938505  0.28406350  1
  O  O261  1  0.56366365  0.40141204  0.76751952  1
  O  O262  1  0.56313621  0.73482735  0.27778493  1
  O  O263  1  0.57294369  0.74444882  0.75491142  1
  O  O264  1  0.89957785  0.07300737  0.27529218  1
  O  O265  1  0.90406851  0.06743764  0.77577078  1
  O  O266  1  0.90589797  0.40258004  0.27763259  1
  O  O267  1  0.91164101  0.41166868  0.77027722  1
  O  O268  1  0.89890939  0.74645767  0.26498868  1
  O  O269  1  0.90639639  0.75131208  0.76320215  1
  O  O270  1  0.25378611  0.23615309  0.27980645  1
  O  O271  1  0.26222448  0.24771770  0.76674712  1
  O  O272  1  0.25255616  0.56733980  0.27362486  1
  O  O273  1  0.26402906  0.56749255  0.77159692  1
  O  O274  1  0.27743036  0.89311295  0.27016995  1
  O  O275  1  0.26710948  0.90923387  0.77977244  1
  O  O276  1  0.60155881  0.23239628  0.28080168  1
  O  O277  1  0.59078189  0.24098714  0.76549315  1
  O  O278  1  0.59785850  0.57061344  0.28373783  1
  O  O279  1  0.58283605  0.56867528  0.75859391  1
  O  O280  1  0.59780348  0.91290230  0.27369178  1
  O  O281  1  0.59001186  0.91896357  0.77666588  1
  O  O282  1  0.93008141  0.23603213  0.28284947  1
  O  O283  1  0.92954427  0.22748836  0.77218698  1
  O  O284  1  0.92594853  0.56397776  0.27384529  1
  O  O285  1  0.92348242  0.56598574  0.77044433  1
  O  O286  1  0.91838028  0.90886855  0.26753358  1
  O  O287  1  0.92133761  0.91522533  0.77728511  1
  O  O288  1  0.26680458  0.23359485  0.47753601  1
  O  O289  1  0.24798672  0.24632691  0.96652377  1
  O  O290  1  0.26146740  0.58276253  0.47764724  1
  O  O291  1  0.27033241  0.56333799  0.97502277  1
  O  O292  1  0.27302810  0.90965293  0.48097488  1
  O  O293  1  0.26552518  0.90039271  0.97159144  1
  O  O294  1  0.60673454  0.23762979  0.47949581  1
  O  O295  1  0.58833329  0.24306037  0.97958724  1
  O  O296  1  0.59375927  0.56994622  0.47550289  1
  O  O297  1  0.59469847  0.57251431  0.98184524  1
  O  O298  1  0.57666778  0.91116907  0.47654662  1
  O  O299  1  0.58793593  0.90661041  0.98336833  1
  O  O300  1  0.92626097  0.23312403  0.46936612  1
  O  O301  1  0.93854274  0.23893173  0.97620533  1
  O  O302  1  0.93549348  0.56946695  0.47507487  1
  O  O303  1  0.92502118  0.56568884  0.97919125  1
  O  O304  1  0.91426691  0.91462679  0.48047026  1
  O  O305  1  0.92243354  0.91403095  0.97578513  1
  O  O306  1  0.24965829  0.07882905  0.47342890  1
  O  O307  1  0.22945694  0.06652171  0.97495861  1
  O  O308  1  0.23773240  0.39652952  0.48263700  1
  O  O309  1  0.23739615  0.40578476  0.95722669  1
  O  O310  1  0.24659764  0.73638326  0.47506821  1
  O  O311  1  0.24400496  0.74774496  0.97274267  1
  O  O312  1  0.57318275  0.07235087  0.46548111  1
  O  O313  1  0.56887247  0.06678922  0.97464683  1
  O  O314  1  0.58161808  0.40808991  0.47858926  1
  O  O315  1  0.56425512  0.40004540  0.96751104  1
  O  O316  1  0.55966835  0.73374206  0.48143534  1
  O  O317  1  0.56489733  0.74548582  0.98436735  1
  O  O318  1  0.89615540  0.07742516  0.47278872  1
  O  O319  1  0.91103390  0.06856813  0.97185268  1
  O  O320  1  0.90917996  0.40740377  0.46528323  1
  O  O321  1  0.91252337  0.40830869  0.97550099  1
  O  O322  1  0.91200217  0.73533475  0.48636087  1
  O  O323  1  0.90433962  0.75033587  0.98619153  1
  O  O324  1  0.10000976  0.26627327  0.23178356  1
  O  O325  1  0.09960914  0.26387955  0.71937381  1
  O  O326  1  0.09692855  0.58626306  0.24029591  1
  O  O327  1  0.09682596  0.58350151  0.73065476  1
  O  O328  1  0.10287774  0.93636511  0.22252767  1
  O  O329  1  0.09907167  0.93188381  0.74232839  1
  O  O330  1  0.42268914  0.26207578  0.23336342  1
  O  O331  1  0.42274330  0.25468936  0.71795393  1
  O  O332  1  0.43621052  0.60021142  0.22757140  1
  O  O333  1  0.43053790  0.59776811  0.72155982  1
  O  O334  1  0.43529266  0.93223766  0.22097388  1
  O  O335  1  0.43074877  0.93741252  0.72821949  1
  O  O336  1  0.77146243  0.26115220  0.24487595  1
  O  O337  1  0.76227229  0.25803233  0.71983419  1
  O  O338  1  0.76116887  0.58859685  0.22788945  1
  O  O339  1  0.75868676  0.58243604  0.73640309  1
  O  O340  1  0.76209206  0.93338029  0.22221463  1
  O  O341  1  0.76101671  0.93522845  0.73902494  1
  O  O342  1  0.07239034  0.10091167  0.24368753  1
  O  O343  1  0.06828203  0.08875952  0.74145832  1
  O  O344  1  0.07063215  0.42553475  0.22941169  1
  O  O345  1  0.08492335  0.42006838  0.72736936  1
  O  O346  1  0.07557219  0.75979962  0.23867728  1
  O  O347  1  0.08363142  0.76068992  0.74171469  1
  O  O348  1  0.40902283  0.08744931  0.23248678  1
  O  O349  1  0.40605341  0.09635236  0.71796219  1
  O  O350  1  0.39668451  0.43653341  0.22768098  1
  O  O351  1  0.40269234  0.42655044  0.72738433  1
  O  O352  1  0.40234231  0.76559567  0.21495576  1
  O  O353  1  0.40632694  0.75605018  0.73543840  1
  O  O354  1  0.74177051  0.09231527  0.23077304  1
  O  O355  1  0.73372657  0.09768073  0.72350893  1
  O  O356  1  0.73884640  0.43520277  0.22849167  1
  O  O357  1  0.74474607  0.41666562  0.72473547  1
  O  O358  1  0.73410307  0.77072778  0.22616338  1
  O  O359  1  0.74790070  0.76341655  0.73942568  1
