# generated using pymatgen
data_BaLaInIrO6
_symmetry_space_group_name_H-M   'P 1'
_cell_length_a   17.52429277
_cell_length_b   17.55039376
_cell_length_c   16.47164595
_cell_angle_alpha   90.00403418
_cell_angle_beta   89.99916603
_cell_angle_gamma   90.01790002
_symmetry_Int_Tables_number   1
_chemical_formula_structural   BaLaInIrO6
_chemical_formula_sum   'Ba36 La36 In36 Ir36 O216'
_cell_volume   5065.99015103
_cell_formula_units_Z   36
loop_
 _symmetry_equiv_pos_site_id
 _symmetry_equiv_pos_as_xyz
  1  'x, y, z'
loop_
 _atom_site_type_symbol
 _atom_site_label
 _atom_site_symmetry_multiplicity
 _atom_site_fract_x
 _atom_site_fract_y
 _atom_site_fract_z
 _atom_site_occupancy
  Ba  Ba0  1  0.50310337  0.65985667  0.37619512  1
  Ba  Ba1  1  0.33331090  0.49208079  0.87713090  1
  Ba  Ba2  1  0.16748647  0.65874011  0.87577997  1
  Ba  Ba3  1  0.83239399  0.67552471  0.12804586  1
  Ba  Ba4  1  0.33501129  0.50991331  0.13069650  1
  Ba  Ba5  1  0.66520341  0.17325491  0.62452905  1
  Ba  Ba6  1  0.17034480  0.32412793  0.37211345  1
  Ba  Ba7  1  0.33781997  0.84067925  0.12156794  1
  Ba  Ba8  1  0.00173992  0.48878351  0.37111409  1
  Ba  Ba9  1  0.49986437  0.32411798  0.37213883  1
  Ba  Ba10  1  0.16548009  0.67445353  0.12491582  1
  Ba  Ba11  1  -0.00046619  0.82523170  0.37814573  1
  Ba  Ba12  1  0.83061541  0.34084214  0.62624493  1
  Ba  Ba13  1  0.16384845  0.34392983  0.62497152  1
  Ba  Ba14  1  0.50130952  0.67486554  0.62921964  1
  Ba  Ba15  1  0.16707539  0.99149638  0.87469009  1
  Ba  Ba16  1  0.66608291  0.82800779  0.37852228  1
  Ba  Ba17  1  0.83704159  0.65926261  0.87890407  1
  Ba  Ba18  1  0.66620207  0.17302226  0.12058989  1
  Ba  Ba19  1  0.99779701  0.50496984  0.62400813  1
  Ba  Ba20  1  0.83571991  0.32502111  0.36957898  1
  Ba  Ba21  1  0.83475812  0.32475692  0.87634638  1
  Ba  Ba22  1  0.49794474  0.01197583  0.62360026  1
  Ba  Ba23  1  -0.00260575  0.15755364  0.87259066  1
  Ba  Ba24  1  0.66391286  0.83629298  0.12735171  1
  Ba  Ba25  1  0.16411455  0.01056519  0.62254744  1
  Ba  Ba26  1  0.50164074  0.65867632  0.87532849  1
  Ba  Ba27  1  0.66683572  0.15962892  0.37776763  1
  Ba  Ba28  1  0.83288417  0.98991113  0.87512664  1
  Ba  Ba29  1  0.16652200  0.00521027  0.12573313  1
  Ba  Ba30  1  0.50730961  0.99163910  0.86893802  1
  Ba  Ba31  1  0.66952269  0.50754914  0.12916293  1
  Ba  Ba32  1  0.66303444  0.49221151  0.87573868  1
  Ba  Ba33  1  0.49683938  0.34072979  0.62046157  1
  Ba  Ba34  1  0.99892070  0.51066759  0.12702757  1
  Ba  Ba35  1  0.33780915  0.17347709  0.62829782  1
  La  La36  1  0.83437580  0.98819886  0.37595901  1
  La  La37  1  0.32843931  0.48504882  0.37876182  1
  La  La38  1  0.49780326  0.34862994  0.12519508  1
  La  La39  1  0.50667788  0.32305496  0.87162483  1
  La  La40  1  0.99957673  0.84401504  0.62706245  1
  La  La41  1  0.16208804  0.35362061  0.12596864  1
  La  La42  1  0.82634977  0.68383782  0.62383721  1
  La  La43  1  0.33048315  0.15487021  0.87414228  1
  La  La44  1  0.82798481  0.34753060  0.12113370  1
  La  La45  1  0.66145975  0.48064313  0.37864987  1
  La  La46  1  1.00450672  0.18460524  0.62430412  1
  La  La47  1  0.16855812  0.64623773  0.37257176  1
  La  La48  1  0.33241403  0.81447981  0.86875047  1
  La  La49  1  0.66472393  0.81591226  0.87359052  1
  La  La50  1  1.00363649  0.18151301  0.12555701  1
  La  La51  1  0.49112497  0.01655244  0.13065728  1
  La  La52  1  0.66396575  0.15194771  0.87068903  1
  La  La53  1  0.17078416  0.98379235  0.37543335  1
  La  La54  1  0.33083869  0.15292447  0.37827831  1
  La  La55  1  0.32854142  0.81475900  0.37898382  1
  La  La56  1  0.33812592  0.18174086  0.12261740  1
  La  La57  1  0.17085242  0.32330366  0.87421620  1
  La  La58  1  -0.00536601  0.82102271  0.87948839  1
  La  La59  1  -0.00526970  0.15350149  0.37267231  1
  La  La60  1  0.50367685  0.99046085  0.37890179  1
  La  La61  1  0.16106946  0.68023134  0.62208198  1
  La  La62  1  -0.00598289  0.48686065  0.87691812  1
  La  La63  1  0.33722947  0.84711256  0.62730698  1
  La  La64  1  0.82917124  0.01307846  0.62515344  1
  La  La65  1  1.00737033  0.84225184  0.12318878  1
  La  La66  1  0.83681934  0.65383781  0.37070261  1
  La  La67  1  0.66786841  0.85159631  0.62724950  1
  La  La68  1  0.67365654  0.51660291  0.62389213  1
  La  La69  1  0.83132447  0.01254962  0.12691513  1
  La  La70  1  0.33433284  0.51323484  0.62471111  1
  La  La71  1  0.49883599  0.67902926  0.11826771  1
  In  In72  1  0.66569896  0.00072329  0.25122029  1
  In  In73  1  0.33182931  -0.00109555  0.49929094  1
  In  In74  1  0.33507444  -0.00211382  0.75466557  1
  In  In75  1  0.83344636  0.83431215  0.00480980  1
  In  In76  1  0.83344862  0.16575605  0.75052363  1
  In  In77  1  0.49841987  0.83135301  0.50336529  1
  In  In78  1  -0.00270564  0.66689728  0.49798666  1
  In  In79  1  0.83260879  0.50192323  0.75120119  1
  In  In80  1  0.16813401  0.16783583  0.00490154  1
  In  In81  1  0.66787127  0.66688453  0.25506060  1
  In  In82  1  0.50086323  0.49855877  0.74719959  1
  In  In83  1  0.16432254  0.83411776  0.74842497  1
  In  In84  1  0.00023588  -0.00035204  0.49887855  1
  In  In85  1  -0.00162557  0.66618191  0.74741031  1
  In  In86  1  0.83335196  0.49940705  0.25055570  1
  In  In87  1  0.16569332  0.16539114  0.74896390  1
  In  In88  1  0.49888235  0.50337225  0.50199163  1
  In  In89  1  0.49991498  0.16968098  -0.00191396  1
  In  In90  1  -0.00195571  0.00132586  0.00093679  1
  In  In91  1  0.66531242  -0.00274619  0.00179003  1
  In  In92  1  0.33065662  0.33167185  0.50417165  1
  In  In93  1  0.00142428  0.33461633  0.75029248  1
  In  In94  1  0.50042184  0.49898573  -0.00037620  1
  In  In95  1  0.83372234  0.49851790  0.49804039  1
  In  In96  1  0.16907054  0.83541123  -0.00185647  1
  In  In97  1  0.50037294  0.83792906  -0.00299717  1
  In  In98  1  0.50031732  0.50272196  0.25266376  1
  In  In99  1  0.49721470  0.83487683  0.25374824  1
  In  In100  1  0.83524995  0.16743814  0.49648085  1
  In  In101  1  0.33278828  0.66513187  0.00129689  1
  In  In102  1  0.33332695  0.33027924  0.24874003  1
  In  In103  1  0.16787568  0.16312586  0.25054327  1
  In  In104  1  0.16893865  0.83062987  0.25155457  1
  In  In105  1  0.00049494  0.33255971  0.00323275  1
  In  In106  1  0.66648910  0.32681475  0.24651876  1
  In  In107  1  0.16715935  0.50306040  0.74880193  1
  Ir  Ir108  1  0.00165418  0.66956305  0.25061532  1
  Ir  Ir109  1  0.49911282  0.16761076  0.49810963  1
  Ir  Ir110  1  -0.00304332  0.00021329  0.25082218  1
  Ir  Ir111  1  0.49941419  0.17171508  0.75020457  1
  Ir  Ir112  1  0.66398783  0.33287347  0.50355252  1
  Ir  Ir113  1  0.83183648  0.49996586  -0.00117373  1
  Ir  Ir114  1  0.66789761  0.66530986  -0.00164743  1
  Ir  Ir115  1  0.33311201  0.66695170  0.25608484  1
  Ir  Ir116  1  -0.00560600  -0.00411951  0.74648261  1
  Ir  Ir117  1  0.33519110  0.00218212  0.25119947  1
  Ir  Ir118  1  0.83972757  0.83672801  0.25456919  1
  Ir  Ir119  1  0.16855140  0.50098946  0.49795853  1
  Ir  Ir120  1  0.83913929  0.16429853  0.24529611  1
  Ir  Ir121  1  0.16203850  0.16565584  0.49609246  1
  Ir  Ir122  1  0.33136981  0.66613418  0.74298153  1
  Ir  Ir123  1  0.16690890  0.83038123  0.49910087  1
  Ir  Ir124  1  0.32581454  0.66613531  0.50097775  1
  Ir  Ir125  1  0.83247593  0.16607208  0.00332812  1
  Ir  Ir126  1  0.33564759  0.33326330  0.75530656  1
  Ir  Ir127  1  0.67180771  0.67062831  0.50373383  1
  Ir  Ir128  1  0.66427103  0.33222914  0.74963862  1
  Ir  Ir129  1  0.33250093  0.33345873  -0.00162981  1
  Ir  Ir130  1  0.66774911  -0.00118097  0.74617349  1
  Ir  Ir131  1  0.00493507  0.33102994  0.49272836  1
  Ir  Ir132  1  0.66750311  0.33038399  -0.00563831  1
  Ir  Ir133  1  0.33688329  0.00371435  0.00244246  1
  Ir  Ir134  1  0.00126181  0.32973665  0.24874499  1
  Ir  Ir135  1  0.50197452  0.83180758  0.74870409  1
  Ir  Ir136  1  0.66822084  0.00018826  0.50165356  1
  Ir  Ir137  1  0.00032586  0.66551008  0.00272719  1
  Ir  Ir138  1  0.66832357  0.67201375  0.74708764  1
  Ir  Ir139  1  0.16663393  0.50107633  0.25003633  1
  Ir  Ir140  1  0.16241568  0.49987282  0.00075280  1
  Ir  Ir141  1  0.83202613  0.83485613  0.74653041  1
  Ir  Ir142  1  0.83018499  0.83438819  0.50067871  1
  Ir  Ir143  1  0.49558607  0.16493228  0.25097171  1
  O  O144  1  0.29888768  0.32085350  0.11787844  1
  O  O145  1  0.31205563  0.32572207  0.63530971  1
  O  O146  1  0.31553796  0.67108532  0.13678430  1
  O  O147  1  0.29618116  0.65639057  0.62094430  1
  O  O148  1  0.31448315  0.99648925  0.12681057  1
  O  O149  1  0.31308294  0.99029076  0.62671704  1
  O  O150  1  0.63619511  0.32715664  0.11348899  1
  O  O151  1  0.64288293  0.32755271  0.62802513  1
  O  O152  1  0.63928881  0.66607062  0.11897485  1
  O  O153  1  0.64878130  0.65731428  0.62453028  1
  O  O154  1  0.62818350  0.99655547  0.12742172  1
  O  O155  1  0.64447401  0.99018902  0.62441620  1
  O  O156  1  0.96718758  0.32350782  0.13061363  1
  O  O157  1  0.98603430  0.32591752  0.61300593  1
  O  O158  1  0.97943189  0.66369652  0.12694329  1
  O  O159  1  0.96103493  0.66279300  0.62179945  1
  O  O160  1  0.96503091  0.98418726  0.13290444  1
  O  O161  1  0.96594817  0.98412017  0.62564075  1
  O  O162  1  0.20555856  0.15898972  0.12787813  1
  O  O163  1  0.18622002  0.16516782  0.61522352  1
  O  O164  1  0.18709831  0.49221577  0.12600764  1
  O  O165  1  0.19823800  0.49881760  0.61716208  1
  O  O166  1  0.18649980  0.83437932  0.12693229  1
  O  O167  1  0.20006577  0.82379513  0.61800899  1
  O  O168  1  0.51602919  0.15438911  0.12988229  1
  O  O169  1  0.51937478  0.16617061  0.62337631  1
  O  O170  1  0.52101762  0.48544867  0.12469760  1
  O  O171  1  0.53648019  0.50109148  0.62460737  1
  O  O172  1  0.51045067  0.81974980  0.12582563  1
  O  O173  1  0.53188255  0.83030697  0.62979685  1
  O  O174  1  0.86769059  0.15412411  0.12512641  1
  O  O175  1  0.86611783  0.15419298  0.62130536  1
  O  O176  1  0.84897235  0.49288487  0.11935698  1
  O  O177  1  0.84465865  0.49974734  0.62374557  1
  O  O178  1  0.87085990  0.83156942  0.13595290  1
  O  O179  1  0.86297273  0.82394312  0.62261633  1
  O  O180  1  0.13153794  0.16518205  0.37686018  1
  O  O181  1  0.14689993  0.18322264  0.87833992  1
  O  O182  1  0.14744378  0.50932702  0.37392330  1
  O  O183  1  0.13396934  0.50190192  0.88093599  1
  O  O184  1  0.14715232  0.84394745  0.37859449  1
  O  O185  1  0.13065997  0.83327711  0.87297782  1
  O  O186  1  0.46694111  0.16936962  0.37385659  1
  O  O187  1  0.46932515  0.18116141  0.87050053  1
  O  O188  1  0.46341436  0.50544012  0.37808767  1
  O  O189  1  0.48590220  0.49768426  0.87301076  1
  O  O190  1  0.46473101  0.84559377  0.37938965  1
  O  O191  1  0.46910495  0.83295261  0.86730000  1
  O  O192  1  0.81803551  0.17038946  0.36506792  1
  O  O193  1  0.80339124  0.16721689  0.88192772  1
  O  O194  1  0.79763146  0.50221797  0.37621219  1
  O  O195  1  0.81186287  0.50150356  0.88032403  1
  O  O196  1  0.81068227  0.85074980  0.37759546  1
  O  O197  1  0.80176299  0.83715636  0.86742701  1
  O  O198  1  0.03390334  0.01165472  0.36991842  1
  O  O199  1  0.01626214  0.00174315  0.86649128  1
  O  O200  1  0.02414836  0.32843454  0.37047174  1
  O  O201  1  0.03239840  0.33996230  0.87949568  1
  O  O202  1  0.03230921  0.67367673  0.37021491  1
  O  O203  1  0.01803717  0.68054175  0.88143527  1
  O  O204  1  0.36504911  0.01255817  0.37032264  1
  O  O205  1  0.35973335  0.01660386  0.88358665  1
  O  O206  1  0.34770844  0.34747199  0.37634354  1
  O  O207  1  0.36847902  0.33926140  0.87758185  1
  O  O208  1  0.35388922  0.67418093  0.38024119  1
  O  O209  1  0.35165011  0.67326705  0.86373328  1
  O  O210  1  0.69783246  0.00413198  0.38108652  1
  O  O211  1  0.68454707  0.01011162  0.86696284  1
  O  O212  1  0.68438709  0.33717545  0.38265985  1
  O  O213  1  0.68897223  0.33619448  0.87108309  1
  O  O214  1  0.70228069  0.67748714  0.38690024  1
  O  O215  1  0.68999115  0.67916045  0.87082977  1
  O  O216  1  0.06662397  0.09892238  0.02613793  1
  O  O217  1  0.06638323  0.10184514  0.52201882  1
  O  O218  1  0.07656536  0.42826623  0.02256849  1
  O  O219  1  0.07381074  0.42960674  0.51242629  1
  O  O220  1  0.06618347  0.75900575  0.02199594  1
  O  O221  1  0.07312810  0.76308001  0.52921401  1
  O  O222  1  0.40006226  0.09985059  0.02492005  1
  O  O223  1  0.40860694  0.09686737  0.50873167  1
  O  O224  1  0.40256746  0.41957361  0.02312859  1
  O  O225  1  0.39826892  0.43364688  0.52470026  1
  O  O226  1  0.41421517  0.75510754  0.00940138  1
  O  O227  1  0.38915081  0.76213414  0.52222508  1
  O  O228  1  0.74531888  0.09437709  0.01813467  1
  O  O229  1  0.74654659  0.08269406  0.52204474  1
  O  O230  1  0.74333033  0.42120118  0.02280188  1
  O  O231  1  0.72769932  0.42907434  0.52013987  1
  O  O232  1  0.73919350  0.75596385  0.01116515  1
  O  O233  1  0.73665731  0.76729920  0.53237738  1
  O  O234  1  0.09623301  0.26370578  0.03702231  1
  O  O235  1  0.09564492  0.25800857  0.51768098  1
  O  O236  1  0.09323458  0.59319275  0.01896876  1
  O  O237  1  0.10349855  0.59809890  0.51628916  1
  O  O238  1  0.08750404  0.92224772  0.02166777  1
  O  O239  1  0.09351960  0.92044158  0.51807742  1
  O  O240  1  0.42761386  0.26822484  0.02511040  1
  O  O241  1  0.42649537  0.25483510  0.51164582  1
  O  O242  1  0.42986781  0.59595892  0.02364892  1
  O  O243  1  0.41546906  0.59720374  0.52620703  1
  O  O244  1  0.43419672  0.94270936  0.02216413  1
  O  O245  1  0.41963002  0.91989759  0.52493639  1
  O  O246  1  0.76548642  0.26416754  0.02297200  1
  O  O247  1  0.75513211  0.26031078  0.51493907  1
  O  O248  1  0.75922356  0.59117875  0.01808510  1
  O  O249  1  0.76353391  0.60489040  0.52509591  1
  O  O250  1  0.76569705  0.93196783  0.03140724  1
  O  O251  1  0.76194311  0.92899254  0.52830281  1
  O  O252  1  0.23879141  0.06305644  0.28093138  1
  O  O253  1  0.24562267  0.07922628  0.77126492  1
  O  O254  1  0.23711631  0.41067292  0.25893143  1
  O  O255  1  0.24114445  0.39798940  0.77680727  1
  O  O256  1  0.23781317  0.73114659  0.28232217  1
  O  O257  1  0.24372766  0.73718972  0.76051189  1
  O  O258  1  0.55991791  0.07221479  0.27630482  1
  O  O259  1  0.57959118  0.08241518  0.77106580  1
  O  O260  1  0.58110971  0.40842071  0.26888584  1
  O  O261  1  0.57041185  0.39556619  0.76956234  1
  O  O262  1  0.57477439  0.74117162  0.26217737  1
  O  O263  1  0.57749117  0.74491059  0.77334688  1
  O  O264  1  0.90503470  0.06920208  0.27601845  1
  O  O265  1  0.90252451  0.06126353  0.75856258  1
  O  O266  1  0.91421485  0.40459959  0.26178576  1
  O  O267  1  0.91009991  0.41064698  0.77075824  1
  O  O268  1  0.90566038  0.73713367  0.27726055  1
  O  O269  1  0.90401901  0.74809526  0.76845078  1
  O  O270  1  0.26973889  0.22879607  0.27446909  1
  O  O271  1  0.26874834  0.24221456  0.78063679  1
  O  O272  1  0.26425618  0.56873656  0.27827602  1
  O  O273  1  0.26717714  0.57216472  0.76073439  1
  O  O274  1  0.26921582  0.90801057  0.28048327  1
  O  O275  1  0.26584914  0.89814985  0.77384154  1
  O  O276  1  0.58881481  0.23194334  0.26468174  1
  O  O277  1  0.59514201  0.23852039  0.77816208  1
  O  O278  1  0.60129400  0.56707207  0.28230179  1
  O  O279  1  0.59966457  0.58075263  0.76100014  1
  O  O280  1  0.58544618  0.91562280  0.28191158  1
  O  O281  1  0.60118154  0.89745545  0.76811069  1
  O  O282  1  0.93904329  0.22922371  0.26621345  1
  O  O283  1  0.92696951  0.23854345  0.75799656  1
  O  O284  1  0.92782945  0.58198016  0.27016669  1
  O  O285  1  0.93472051  0.56838088  0.77861877  1
  O  O286  1  0.92457990  0.91429020  0.28210006  1
  O  O287  1  0.93255411  0.89613167  0.76887571  1
  O  O288  1  0.25875378  0.22941382  0.47441507  1
  O  O289  1  0.26934358  0.24148755  0.97215317  1
  O  O290  1  0.26313991  0.56841521  0.47352950  1
  O  O291  1  0.25270013  0.57070113  0.98774104  1
  O  O292  1  0.25806345  0.90112081  0.47238166  1
  O  O293  1  0.27445400  0.90884328  0.97377829  1
  O  O294  1  0.59178993  0.23913381  0.48464128  1
  O  O295  1  0.59945197  0.24023702  0.96656246  1
  O  O296  1  0.60840375  0.57342402  0.48110540  1
  O  O297  1  0.59647467  0.57850089  0.98694425  1
  O  O298  1  0.59023520  0.91639963  0.48417738  1
  O  O299  1  0.60215780  0.89773279  0.97017632  1
  O  O300  1  0.94117396  0.23421406  0.47910281  1
  O  O301  1  0.92381697  0.23457547  0.98983536  1
  O  O302  1  0.92010728  0.57944464  0.46563629  1
  O  O303  1  0.93038164  0.56782760  0.97737028  1
  O  O304  1  0.91890347  0.90610381  0.48313367  1
  O  O305  1  0.93159958  0.89934454  0.97734580  1
  O  O306  1  0.23084684  0.07149715  0.47062664  1
  O  O307  1  0.24691361  0.07268284  0.98039599  1
  O  O308  1  0.23820717  0.41239965  0.47944805  1
  O  O309  1  0.22953800  0.39820442  0.98023189  1
  O  O310  1  0.23140441  0.73385318  0.47208645  1
  O  O311  1  0.24914369  0.74819367  0.97429562  1
  O  O312  1  0.57189180  0.07016080  0.47610524  1
  O  O313  1  0.57915867  0.08138278  0.97702913  1
  O  O314  1  0.57714745  0.40747338  0.47966725  1
  O  O315  1  0.57133485  0.39401867  0.97821253  1
  O  O316  1  0.57856271  0.73865999  0.48693451  1
  O  O317  1  0.58195590  0.73906464  0.98172291  1
  O  O318  1  0.90690351  0.07066903  0.46641313  1
  O  O319  1  0.89806161  0.07265904  0.99052722  1
  O  O320  1  0.91388061  0.40072009  0.48193406  1
  O  O321  1  0.90784116  0.41333346  0.98323635  1
  O  O322  1  0.89286892  0.74029469  0.47649786  1
  O  O323  1  0.91384815  0.73940211  0.98681864  1
  O  O324  1  0.09374721  0.26190722  0.22180850  1
  O  O325  1  0.09021999  0.25435210  0.72863953  1
  O  O326  1  0.09860547  0.59995352  0.24032582  1
  O  O327  1  0.10206584  0.60381820  0.72243647  1
  O  O328  1  0.08489587  0.92760989  0.23498390  1
  O  O329  1  0.08395129  0.92693668  0.72382594  1
  O  O330  1  0.43132508  0.25696946  0.21843193  1
  O  O331  1  0.43243593  0.26725492  0.73744532  1
  O  O332  1  0.43170113  0.60790877  0.22747536  1
  O  O333  1  0.41762453  0.59204720  0.72545671  1
  O  O334  1  0.43049535  0.94158843  0.23055917  1
  O  O335  1  0.42892456  0.91819505  0.72863763  1
  O  O336  1  0.77204856  0.25603007  0.21983212  1
  O  O337  1  0.75279197  0.26034712  0.73574255  1
  O  O338  1  0.76501862  0.59867405  0.24241949  1
  O  O339  1  0.76073675  0.60384493  0.72548779  1
  O  O340  1  0.77185740  0.93026690  0.23296965  1
  O  O341  1  0.76011643  0.92703232  0.71654970  1
  O  O342  1  0.06222169  0.09391511  0.22412214  1
  O  O343  1  0.06027931  0.09077111  0.72321193  1
  O  O344  1  0.07610940  0.42233523  0.22493323  1
  O  O345  1  0.07503557  0.42980656  0.73633324  1
  O  O346  1  0.06592817  0.76325992  0.22776704  1
  O  O347  1  0.07076544  0.76205566  0.71511717  1
  O  O348  1  0.39688635  0.10076249  0.22673597  1
  O  O349  1  0.41245831  0.09652736  0.74073190  1
  O  O350  1  0.41284030  0.41829279  0.22855359  1
  O  O351  1  0.39723517  0.42840053  0.72619416  1
  O  O352  1  0.39295229  0.76416251  0.24970254  1
  O  O353  1  0.39999890  0.76628031  0.72556131  1
  O  O354  1  0.74914126  0.09169221  0.22553739  1
  O  O355  1  0.74183112  0.08628063  0.72728561  1
  O  O356  1  0.74998252  0.41286912  0.22835626  1
  O  O357  1  0.72727548  0.42904014  0.72817761  1
  O  O358  1  0.75117457  0.76693859  0.23828469  1
  O  O359  1  0.73576443  0.76866568  0.72099792  1
