# generated using pymatgen
data_BaLaInIrO6
_symmetry_space_group_name_H-M   'P 1'
_cell_length_a   17.51589763
_cell_length_b   17.54467564
_cell_length_c   16.47822935
_cell_angle_alpha   89.97434013
_cell_angle_beta   90.02983034
_cell_angle_gamma   90.04379752
_symmetry_Int_Tables_number   1
_chemical_formula_structural   BaLaInIrO6
_chemical_formula_sum   'Ba36 La36 In36 Ir36 O216'
_cell_volume   5063.93422231
_cell_formula_units_Z   36
loop_
 _symmetry_equiv_pos_site_id
 _symmetry_equiv_pos_as_xyz
  1  'x, y, z'
loop_
 _atom_site_type_symbol
 _atom_site_label
 _atom_site_symmetry_multiplicity
 _atom_site_fract_x
 _atom_site_fract_y
 _atom_site_fract_z
 _atom_site_occupancy
  Ba  Ba0  1  0.32918202  0.84248064  0.62355703  1
  Ba  Ba1  1  0.16473259  0.32310123  0.37425791  1
  Ba  Ba2  1  0.16727121  0.33851247  0.62597862  1
  Ba  Ba3  1  0.33202788  0.83022218  0.87233787  1
  Ba  Ba4  1  0.50289931  0.32565436  0.37506965  1
  Ba  Ba5  1  0.16825411  0.00884477  0.62305683  1
  Ba  Ba6  1  0.16716308  0.32860106  0.87699717  1
  Ba  Ba7  1  0.66169833  0.81881125  0.87854031  1
  Ba  Ba8  1  0.83515549  0.99461472  0.87705934  1
  Ba  Ba9  1  0.33343731  0.50308549  0.62692944  1
  Ba  Ba10  1  0.66508953  0.47951573  0.87358853  1
  Ba  Ba11  1  0.33593326  0.84734499  0.12908921  1
  Ba  Ba12  1  0.66478299  0.84432303  0.12663672  1
  Ba  Ba13  1  -0.00178676  0.82675618  0.37726307  1
  Ba  Ba14  1  0.49562348  0.01177069  0.62709497  1
  Ba  Ba15  1  0.49453323  0.67654891  0.12922852  1
  Ba  Ba16  1  1.00486188  0.17665863  0.62394790  1
  Ba  Ba17  1  0.16647822  0.99749558  0.87476711  1
  Ba  Ba18  1  0.50311725  0.32394762  0.87390604  1
  Ba  Ba19  1  0.16677215  0.67734654  0.12569667  1
  Ba  Ba20  1  0.83304974  0.65073081  0.87480044  1
  Ba  Ba21  1  0.66948186  0.17557513  0.62287662  1
  Ba  Ba22  1  0.16794487  0.33861710  0.12436830  1
  Ba  Ba23  1  0.33082138  0.82474784  0.37878002  1
  Ba  Ba24  1  -0.00573974  0.82600567  0.87542216  1
  Ba  Ba25  1  1.00427679  0.50784849  0.62202134  1
  Ba  Ba26  1  0.33737456  0.49283578  0.87888757  1
  Ba  Ba27  1  0.32910902  0.16449285  0.87624090  1
  Ba  Ba28  1  0.33513805  0.17797509  0.12577638  1
  Ba  Ba29  1  0.83481557  0.32568654  0.87336290  1
  Ba  Ba30  1  0.16312531  0.67522663  0.62644280  1
  Ba  Ba31  1  0.66767530  0.48679142  0.37266039  1
  Ba  Ba32  1  0.00262176  0.16039915  0.37694107  1
  Ba  Ba33  1  0.99937623  0.84439189  0.62658323  1
  Ba  Ba34  1  1.00028916  0.50774464  0.12363646  1
  Ba  Ba35  1  0.16884939  0.00930221  0.12595924  1
  La  La36  1  0.84049654  0.31768488  0.37783919  1
  La  La37  1  0.66658518  0.17985244  0.12231800  1
  La  La38  1  0.00004682  0.15481997  0.87381142  1
  La  La39  1  -0.00282254  0.48263798  0.37634922  1
  La  La40  1  0.50219723  0.65287222  0.37801675  1
  La  La41  1  0.15990522  0.66018475  0.86816492  1
  La  La42  1  0.65900156  0.81269441  0.37266038  1
  La  La43  1  0.50112035  0.33923193  0.62727900  1
  La  La44  1  0.49140780  0.01360638  0.12124855  1
  La  La45  1  0.82968802  0.68305672  0.62231260  1
  La  La46  1  0.66420759  0.15376528  0.37388808  1
  La  La47  1  0.67536580  0.85191688  0.62527935  1
  La  La48  1  0.33226768  0.48554742  0.37305591  1
  La  La49  1  0.00131554  0.49331173  0.87266179  1
  La  La50  1  0.50896378  0.64896445  0.88035195  1
  La  La51  1  1.00898454  0.17618639  0.12188939  1
  La  La52  1  0.33370601  0.17606944  0.62366026  1
  La  La53  1  0.83127112  0.34955559  0.62433396  1
  La  La54  1  0.49937082  0.98319007  0.37013879  1
  La  La55  1  0.83923474  0.64787832  0.37393881  1
  La  La56  1  0.49663022  0.34858830  0.12411910  1
  La  La57  1  0.32504438  0.15246737  0.37344570  1
  La  La58  1  0.83702041  0.98696878  0.37780884  1
  La  La59  1  0.50158313  0.98464300  0.87502672  1
  La  La60  1  0.67300498  0.51091196  0.62387186  1
  La  La61  1  0.82944396  0.68135400  0.12275342  1
  La  La62  1  0.66458559  0.15828673  0.87204178  1
  La  La63  1  0.67204271  0.51540728  0.12606514  1
  La  La64  1  0.16909890  0.98579145  0.37542800  1
  La  La65  1  0.16602080  0.65262505  0.37421048  1
  La  La66  1  0.83340608  0.01528018  0.12827995  1
  La  La67  1  0.82765072  0.35378952  0.12400673  1
  La  La68  1  1.00626102  0.85037716  0.12388619  1
  La  La69  1  0.83050059  0.01799695  0.62425496  1
  La  La70  1  0.33314644  0.51379274  0.12195367  1
  La  La71  1  0.49195444  0.67935971  0.62765160  1
  In  In72  1  0.33313421  0.67002276  -0.00345723  1
  In  In73  1  -0.00067931  0.00262308  0.50153611  1
  In  In74  1  -0.00360460  0.33170868  -0.00100278  1
  In  In75  1  -0.00203224  0.66766779  0.25098677  1
  In  In76  1  0.33321686  0.00493061  0.75200155  1
  In  In77  1  0.16502245  0.49983859  0.25059994  1
  In  In78  1  0.16701510  0.50172023  0.00260939  1
  In  In79  1  0.83107875  0.83570330  0.75021878  1
  In  In80  1  0.66665920  -0.00065860  0.49428505  1
  In  In81  1  0.49918404  0.83205618  0.00266908  1
  In  In82  1  0.00041752  0.00455511  0.25296071  1
  In  In83  1  0.16610323  0.83548385  -0.00103275  1
  In  In84  1  0.50286812  0.83119283  0.74931494  1
  In  In85  1  -0.00357191  0.66819837  0.00329401  1
  In  In86  1  0.33504978  0.33268776  0.75195980  1
  In  In87  1  0.83271773  0.83510575  0.00304055  1
  In  In88  1  0.66647516  0.66383370  0.74710202  1
  In  In89  1  0.49996870  0.16722846  0.25074844  1
  In  In90  1  0.50739982  0.49669512  0.74619380  1
  In  In91  1  0.50463070  0.49752478  0.50093851  1
  In  In92  1  -0.00526728  0.66587820  0.74706339  1
  In  In93  1  0.66958517  0.33099277  0.25114815  1
  In  In94  1  0.66606032  0.00100109  0.24887497  1
  In  In95  1  0.83402432  0.17093162  0.00167725  1
  In  In96  1  0.33365584  0.66430648  0.50023922  1
  In  In97  1  0.66634748  0.00308988  0.00346183  1
  In  In98  1  0.50044657  0.49935917  0.25069760  1
  In  In99  1  0.16720158  0.50160367  0.75076061  1
  In  In100  1  -0.00526026  0.33063482  0.24756144  1
  In  In101  1  0.66765912  0.00272463  0.74974861  1
  In  In102  1  0.50459860  0.83229662  0.50213453  1
  In  In103  1  0.16693651  0.49764941  0.49789932  1
  In  In104  1  0.33377231  0.00149311  0.49896182  1
  In  In105  1  0.33561920  0.66715879  0.75148918  1
  In  In106  1  0.83299391  0.83348162  0.25268112  1
  In  In107  1  0.49795295  0.16743997  0.49560723  1
  Ir  Ir108  1  0.66574964  0.65972089  0.00544208  1
  Ir  Ir109  1  0.33498036  0.66751857  0.25525473  1
  Ir  Ir110  1  0.50624658  0.49542503  0.00424320  1
  Ir  Ir111  1  0.66954751  0.66416984  0.49579290  1
  Ir  Ir112  1  0.33657785  0.33027212  0.49596281  1
  Ir  Ir113  1  0.67363211  0.33091876  0.50055314  1
  Ir  Ir114  1  0.66832975  0.66585721  0.25156976  1
  Ir  Ir115  1  -0.00165766  0.00516715  0.75205291  1
  Ir  Ir116  1  0.67020823  0.32643244  0.74605455  1
  Ir  Ir117  1  0.16278053  0.16905517  0.75095048  1
  Ir  Ir118  1  0.16714395  0.83478977  0.25233311  1
  Ir  Ir119  1  0.16886327  0.16802147  0.49599871  1
  Ir  Ir120  1  0.82858847  0.49628776  0.00007159  1
  Ir  Ir121  1  0.16875232  0.16659476  0.24892321  1
  Ir  Ir122  1  0.16047091  0.83773229  0.74923214  1
  Ir  Ir123  1  -0.00464918  0.33121222  0.50064819  1
  Ir  Ir124  1  0.83413104  0.49411711  0.74581872  1
  Ir  Ir125  1  -0.00424854  0.33238669  0.74782457  1
  Ir  Ir126  1  0.83600033  0.16989181  0.74694314  1
  Ir  Ir127  1  0.50251657  0.16689305  -0.00393616  1
  Ir  Ir128  1  -0.00108001  0.00283050  0.00163833  1
  Ir  Ir129  1  0.33580867  0.00082400  0.24829706  1
  Ir  Ir130  1  0.82742906  0.83192298  0.49807508  1
  Ir  Ir131  1  -0.00391840  0.66754975  0.49595910  1
  Ir  Ir132  1  0.83063709  0.50046873  0.25123968  1
  Ir  Ir133  1  0.16685515  0.16729081  0.00244890  1
  Ir  Ir134  1  0.33627320  0.00792941  0.00219528  1
  Ir  Ir135  1  0.16060671  0.83087090  0.49818487  1
  Ir  Ir136  1  0.50108053  0.16877510  0.75092864  1
  Ir  Ir137  1  0.83389920  0.50030593  0.49954370  1
  Ir  Ir138  1  0.83185583  0.16853042  0.25022288  1
  Ir  Ir139  1  0.66381818  0.32989406  0.00162381  1
  Ir  Ir140  1  0.33560302  0.33475708  0.24929995  1
  Ir  Ir141  1  0.49990669  0.83119613  0.25329383  1
  Ir  Ir142  1  0.33748767  0.33261093  0.00637864  1
  Ir  Ir143  1  0.83170211  0.16965480  0.49911054  1
  O  O144  1  0.31498138  0.33515902  0.12852833  1
  O  O145  1  0.31731629  0.31775302  0.61575100  1
  O  O146  1  0.31655457  0.65663622  0.13543357  1
  O  O147  1  0.31101223  0.65644841  0.62476172  1
  O  O148  1  0.31675933  1.00358832  0.12585193  1
  O  O149  1  0.31949171  1.00719336  0.62495293  1
  O  O150  1  0.63506033  0.31919563  0.12042750  1
  O  O151  1  0.64063583  0.32774636  0.62255839  1
  O  O152  1  0.64286567  0.65148183  0.12925717  1
  O  O153  1  0.63661978  0.65310097  0.61259355  1
  O  O154  1  0.62642605  1.00815858  0.12737599  1
  O  O155  1  0.64696445  0.99704442  0.62077311  1
  O  O156  1  0.96284067  0.31415410  0.12477485  1
  O  O157  1  0.96883250  0.32791451  0.62358788  1
  O  O158  1  0.96148607  0.65696297  0.12933389  1
  O  O159  1  0.96505673  0.66190671  0.61403195  1
  O  O160  1  0.97347603  0.99527847  0.12379933  1
  O  O161  1  0.97014833  1.00496087  0.63041577  1
  O  O162  1  0.18855481  0.16691230  0.12689259  1
  O  O163  1  0.19528273  0.16806222  0.62135992  1
  O  O164  1  0.19851203  0.49548391  0.12928000  1
  O  O165  1  0.18076821  0.49859529  0.62204093  1
  O  O166  1  0.18588334  0.83559363  0.13362843  1
  O  O167  1  0.18070766  0.83137339  0.62103897  1
  O  O168  1  0.52967321  0.15678422  0.11730794  1
  O  O169  1  0.51977806  0.16893418  0.62989808  1
  O  O170  1  0.53286344  0.48970745  0.12392934  1
  O  O171  1  0.53871043  0.47735142  0.62022832  1
  O  O172  1  0.51598618  0.83650839  0.13406213  1
  O  O173  1  0.54331917  0.81710556  0.62320894  1
  O  O174  1  0.86959437  0.15578361  0.13385116  1
  O  O175  1  0.85794624  0.15591455  0.62161997  1
  O  O176  1  0.85114870  0.49158862  0.12632071  1
  O  O177  1  0.85719866  0.48745208  0.62187642  1
  O  O178  1  0.86907162  0.81925406  0.12920546  1
  O  O179  1  0.84952997  0.82038651  0.61516699  1
  O  O180  1  0.14865168  0.16753884  0.37072993  1
  O  O181  1  0.13566181  0.17057910  0.87669122  1
  O  O182  1  0.13295867  0.50757683  0.37602134  1
  O  O183  1  0.13539325  0.50896626  0.87691988  1
  O  O184  1  0.14526550  0.84558840  0.37415008  1
  O  O185  1  0.14265743  0.84328956  0.86863370  1
  O  O186  1  0.45977705  0.17724819  0.37149157  1
  O  O187  1  0.47862727  0.17336606  0.87405439  1
  O  O188  1  0.47213596  0.50740227  0.37602084  1
  O  O189  1  0.49213957  0.50465875  0.88118939  1
  O  O190  1  0.48280302  0.83476491  0.37128038  1
  O  O191  1  0.48452027  0.84614096  0.87692550  1
  O  O192  1  0.79839949  0.18130009  0.37415832  1
  O  O193  1  0.80446200  0.17073855  0.86757565  1
  O  O194  1  0.81016674  0.51063479  0.37647577  1
  O  O195  1  0.81062747  0.49114229  0.87364851  1
  O  O196  1  0.79505325  0.84658357  0.38021554  1
  O  O197  1  0.81156178  0.83988342  0.87637750  1
  O  O198  1  0.03206334  0.00610326  0.37689219  1
  O  O199  1  0.01829921  0.01684795  0.87791595  1
  O  O200  1  0.00850559  0.33800861  0.37896233  1
  O  O201  1  0.00884798  0.34946519  0.86836923  1
  O  O202  1  0.02717401  0.67233855  0.37967527  1
  O  O203  1  0.02123561  0.66706747  0.87486848  1
  O  O204  1  0.36209587  0.00869967  0.36767014  1
  O  O205  1  0.36293093  0.00839340  0.88254433  1
  O  O206  1  0.35771522  0.34511632  0.37069773  1
  O  O207  1  0.35345482  0.32880765  0.88613960  1
  O  O208  1  0.36751207  0.67140774  0.37187876  1
  O  O209  1  0.37755530  0.67052719  0.87540500  1
  O  O210  1  0.70548298  0.01739037  0.37211581  1
  O  O211  1  0.68743067  0.02109296  0.87613494  1
  O  O212  1  0.70494892  0.33336591  0.38005534  1
  O  O213  1  0.68816805  0.32214637  0.87348492  1
  O  O214  1  0.70323843  0.67517340  0.37386096  1
  O  O215  1  0.68125840  0.65916284  0.88467876  1
  O  O216  1  0.06675596  0.10092249  0.01832086  1
  O  O217  1  0.07965267  0.09733896  0.51523887  1
  O  O218  1  0.07306521  0.42167750  0.01311565  1
  O  O219  1  0.06419907  0.42229500  0.50597132  1
  O  O220  1  0.06365661  0.77228948  0.02713730  1
  O  O221  1  0.06491661  0.75986485  0.51799849  1
  O  O222  1  0.41100562  0.09783960  0.02210181  1
  O  O223  1  0.39319526  0.10815156  0.51460374  1
  O  O224  1  0.40961397  0.42603947  0.03216333  1
  O  O225  1  0.40562981  0.42075028  0.51364766  1
  O  O226  1  0.40365003  0.76299147  0.02132747  1
  O  O227  1  0.41310596  0.75637343  0.52114106  1
  O  O228  1  0.74027888  0.10038680  0.03157728  1
  O  O229  1  0.74620575  0.09637929  0.51531721  1
  O  O230  1  0.72969259  0.42752632  0.02932028  1
  O  O231  1  0.74142588  0.42755096  0.52822844  1
  O  O232  1  0.73319818  0.75006817  0.02586082  1
  O  O233  1  0.73317640  0.76081275  0.52326265  1
  O  O234  1  0.09102407  0.25082645  0.02034883  1
  O  O235  1  0.09180511  0.26275245  0.51588112  1
  O  O236  1  0.09307880  0.59758716  0.01620712  1
  O  O237  1  0.08783475  0.60119357  0.50940194  1
  O  O238  1  0.08785114  0.93279809  0.01880702  1
  O  O239  1  0.09075594  0.92121666  0.51212809  1
  O  O240  1  0.43711501  0.26428400  0.02559042  1
  O  O241  1  0.43095606  0.26822511  0.52231502  1
  O  O242  1  0.43467682  0.58180866  0.02053608  1
  O  O243  1  0.44045374  0.59857014  0.52025885  1
  O  O244  1  0.42957154  0.94183266  0.01704806  1
  O  O245  1  0.43457859  0.93286012  0.50225100  1
  O  O246  1  0.75898245  0.26731482  0.02954006  1
  O  O247  1  0.76975155  0.26848072  0.52199233  1
  O  O248  1  0.76157763  0.59179564  0.02936572  1
  O  O249  1  0.76532898  0.59562323  0.52516919  1
  O  O250  1  0.76638665  0.93469283  0.03193496  1
  O  O251  1  0.76691738  0.92735062  0.52559751  1
  O  O252  1  0.24115007  0.07113751  0.27593027  1
  O  O253  1  0.23535596  0.08233135  0.76472929  1
  O  O254  1  0.24871995  0.40754703  0.27415327  1
  O  O255  1  0.24645238  0.41101793  0.76409779  1
  O  O256  1  0.23627360  0.73656461  0.27749538  1
  O  O257  1  0.22912493  0.74762188  0.77132508  1
  O  O258  1  0.57062529  0.07028089  0.28478344  1
  O  O259  1  0.56576943  0.07587910  0.77559023  1
  O  O260  1  0.57282215  0.40222640  0.25968173  1
  O  O261  1  0.57923901  0.39120363  0.75982353  1
  O  O262  1  0.57023216  0.73509711  0.27815956  1
  O  O263  1  0.56339181  0.72210082  0.77463856  1
  O  O264  1  0.89285377  0.07313578  0.27655222  1
  O  O265  1  0.90863186  0.08017901  0.77290912  1
  O  O266  1  0.89169520  0.40311235  0.27074600  1
  O  O267  1  0.89818765  0.39518259  0.75324863  1
  O  O268  1  0.89719849  0.73160911  0.28062447  1
  O  O269  1  0.89742891  0.73482479  0.75238490  1
  O  O270  1  0.26775927  0.23695691  0.27282897  1
  O  O271  1  0.25276411  0.23920032  0.75834711  1
  O  O272  1  0.26706088  0.57657353  0.28021523  1
  O  O273  1  0.25125417  0.58686268  0.78653230  1
  O  O274  1  0.25687889  0.91303789  0.27676206  1
  O  O275  1  0.24950515  0.90970619  0.75896410  1
  O  O276  1  0.60703964  0.22731230  0.26676939  1
  O  O277  1  0.60312900  0.22985421  0.76946820  1
  O  O278  1  0.59340211  0.58015055  0.27163776  1
  O  O279  1  0.61134881  0.55793221  0.75150822  1
  O  O280  1  0.59354902  0.89875596  0.27846999  1
  O  O281  1  0.60135352  0.90326993  0.76216891  1
  O  O282  1  0.91715397  0.23846886  0.27698393  1
  O  O283  1  0.93107904  0.23573214  0.77157458  1
  O  O284  1  0.92574787  0.56294545  0.28011005  1
  O  O285  1  0.92723987  0.55746704  0.77110382  1
  O  O286  1  0.92182264  0.91448606  0.27435736  1
  O  O287  1  0.92820711  0.91706183  0.76487325  1
  O  O288  1  0.26884853  0.23347638  0.47597299  1
  O  O289  1  0.26035129  0.24165879  0.98795746  1
  O  O290  1  0.26174720  0.57085104  0.46277704  1
  O  O291  1  0.27026372  0.56840238  0.99650159  1
  O  O292  1  0.24750287  0.90896499  0.48216597  1
  O  O293  1  0.26408582  0.91847189  0.98758075  1
  O  O294  1  0.60720076  0.23665692  0.47445194  1
  O  O295  1  0.60384356  0.22753004  0.98048790  1
  O  O296  1  0.60232221  0.57530755  0.47364747  1
  O  O297  1  0.60087459  0.56278037  0.98845632  1
  O  O298  1  0.60504860  0.89701925  0.47021221  1
  O  O299  1  0.58995074  0.91131808  0.98307238  1
  O  O300  1  0.92045655  0.24189662  0.47942548  1
  O  O301  1  0.93316390  0.23112759  0.97292096  1
  O  O302  1  0.92842098  0.57077205  0.46911527  1
  O  O303  1  0.92402892  0.55735545  0.97606223  1
  O  O304  1  0.91456575  0.90789248  0.47907702  1
  O  O305  1  0.93424498  0.91006135  0.99231303  1
  O  O306  1  0.23456772  0.07537194  0.46895124  1
  O  O307  1  0.24218208  0.07891759  0.98514374  1
  O  O308  1  0.24932657  0.40329393  0.47744317  1
  O  O309  1  0.25025628  0.40331385  0.98830856  1
  O  O310  1  0.22854232  0.73886853  0.47579252  1
  O  O311  1  0.23010243  0.73528036  0.97102944  1
  O  O312  1  0.56853286  0.07080316  0.46641835  1
  O  O313  1  0.56498762  0.07568722  0.97076342  1
  O  O314  1  0.58386772  0.39831454  0.48231465  1
  O  O315  1  0.56941096  0.39680480  0.99028399  1
  O  O316  1  0.57904582  0.73026587  0.46568565  1
  O  O317  1  0.57146238  0.72583147  0.98518441  1
  O  O318  1  0.89638546  0.07247711  0.47782002  1
  O  O319  1  0.90902175  0.07174055  0.99102552  1
  O  O320  1  0.90039727  0.40348501  0.47560010  1
  O  O321  1  0.89252197  0.40164770  0.99664817  1
  O  O322  1  0.89225593  0.73112290  0.47777561  1
  O  O323  1  0.89400457  0.73085749  0.99017698  1
  O  O324  1  0.09040869  0.25169678  0.23022659  1
  O  O325  1  0.08981687  0.26448516  0.73774132  1
  O  O326  1  0.09864278  0.60210423  0.24324868  1
  O  O327  1  0.08883213  0.59445064  0.73725381  1
  O  O328  1  0.09574154  0.92426727  0.23519805  1
  O  O329  1  0.08848872  0.93430198  0.73072798  1
  O  O330  1  0.43145685  0.27004268  0.22412832  1
  O  O331  1  0.43391689  0.25963890  0.72674171  1
  O  O332  1  0.42057831  0.59242812  0.23471657  1
  O  O333  1  0.43801927  0.59393620  0.72756390  1
  O  O334  1  0.43712231  0.93338739  0.23351095  1
  O  O335  1  0.43055636  0.93325838  0.74562632  1
  O  O336  1  0.76889569  0.26233834  0.21920388  1
  O  O337  1  0.76924726  0.26311358  0.72189431  1
  O  O338  1  0.76508654  0.59836605  0.22723008  1
  O  O339  1  0.77094851  0.58955996  0.72015273  1
  O  O340  1  0.76499151  0.93459441  0.22390129  1
  O  O341  1  0.76550144  0.93189049  0.71622874  1
  O  O342  1  0.07294594  0.10063163  0.22499544  1
  O  O343  1  0.06906949  0.09934663  0.74204256  1
  O  O344  1  0.06624245  0.42591064  0.24266541  1
  O  O345  1  0.06316248  0.42278751  0.73786441  1
  O  O346  1  0.07174965  0.77111129  0.22947136  1
  O  O347  1  0.07382815  0.76545341  0.73770914  1
  O  O348  1  0.41086870  0.08553301  0.22563125  1
  O  O349  1  0.40487336  0.10836165  0.73025683  1
  O  O350  1  0.40050671  0.42876338  0.22604275  1
  O  O351  1  0.41934222  0.41642654  0.72735948  1
  O  O352  1  0.40482719  0.76129666  0.23517369  1
  O  O353  1  0.40961231  0.75908592  0.71903927  1
  O  O354  1  0.73991792  0.10457753  0.22154178  1
  O  O355  1  0.74948977  0.09668510  0.72839982  1
  O  O356  1  0.73783201  0.43225746  0.22181435  1
  O  O357  1  0.73757434  0.42370957  0.71834914  1
  O  O358  1  0.73693209  0.75548571  0.23039086  1
  O  O359  1  0.73237379  0.76108771  0.71919084  1
