# generated using pymatgen
data_BaLaInIrO6
_symmetry_space_group_name_H-M   'P 1'
_cell_length_a   17.51460714
_cell_length_b   17.53318920
_cell_length_c   16.48119469
_cell_angle_alpha   90.00641973
_cell_angle_beta   89.99971292
_cell_angle_gamma   90.04841719
_symmetry_Int_Tables_number   1
_chemical_formula_structural   BaLaInIrO6
_chemical_formula_sum   'Ba36 La36 In36 Ir36 O216'
_cell_volume   5061.15748969
_cell_formula_units_Z   36
loop_
 _symmetry_equiv_pos_site_id
 _symmetry_equiv_pos_as_xyz
  1  'x, y, z'
loop_
 _atom_site_type_symbol
 _atom_site_label
 _atom_site_symmetry_multiplicity
 _atom_site_fract_x
 _atom_site_fract_y
 _atom_site_fract_z
 _atom_site_occupancy
  Ba  Ba0  1  0.33064573  0.15932062  0.87824572  1
  Ba  Ba1  1  0.16324824  0.01384065  0.12624594  1
  Ba  Ba2  1  0.83706891  0.67255702  0.12330105  1
  Ba  Ba3  1  0.17051998  0.66047632  0.87081448  1
  Ba  Ba4  1  -0.00425918  0.15749325  0.37715520  1
  Ba  Ba5  1  0.49847678  0.99204494  0.37483821  1
  Ba  Ba6  1  0.16933807  0.65971741  0.37700675  1
  Ba  Ba7  1  0.16306012  0.01370830  0.62205508  1
  Ba  Ba8  1  0.83795871  0.65417145  0.37678175  1
  Ba  Ba9  1  0.49627442  0.33943478  0.12682333  1
  Ba  Ba10  1  0.32881169  0.17219136  0.62447777  1
  Ba  Ba11  1  0.16433818  0.32206311  0.37236044  1
  Ba  Ba12  1  0.66485524  0.17750742  0.12567755  1
  Ba  Ba13  1  1.00800290  0.50959113  0.12530544  1
  Ba  Ba14  1  0.00011550  0.15716166  0.87887449  1
  Ba  Ba15  1  0.49853076  0.32438278  0.87194088  1
  Ba  Ba16  1  0.66847528  0.84085551  0.62407833  1
  Ba  Ba17  1  0.16495094  0.99797878  0.87437757  1
  Ba  Ba18  1  0.83165739  0.67840275  0.62921186  1
  Ba  Ba19  1  0.66427228  0.15977980  0.37659574  1
  Ba  Ba20  1  1.00190786  0.17801982  0.62749860  1
  Ba  Ba21  1  0.66642246  0.51011950  0.62721629  1
  Ba  Ba22  1  0.66899014  0.82301139  0.37563184  1
  Ba  Ba23  1  0.49751269  0.00770356  0.12999644  1
  Ba  Ba24  1  0.50068949  0.65432240  0.87568022  1
  Ba  Ba25  1  0.16644652  0.34119478  0.12447279  1
  Ba  Ba26  1  0.83747086  0.66033472  0.87260761  1
  Ba  Ba27  1  0.33431203  0.50551046  0.62558551  1
  Ba  Ba28  1  1.00172845  0.84284459  0.62226041  1
  Ba  Ba29  1  0.33354291  0.48991901  0.37821325  1
  Ba  Ba30  1  0.83818856  0.98773331  0.87707949  1
  Ba  Ba31  1  -0.00278511  0.49402360  0.87306039  1
  Ba  Ba32  1  0.33160827  0.50646334  0.12829459  1
  Ba  Ba33  1  0.50526441  0.65917192  0.37560131  1
  Ba  Ba34  1  0.66902349  0.49443250  0.37916935  1
  Ba  Ba35  1  0.00122971  0.82698314  0.86668436  1
  La  La36  1  0.50509000  0.98760130  0.87168180  1
  La  La37  1  0.33777807  0.18254432  0.12386424  1
  La  La38  1  1.00418649  0.51691574  0.62298887  1
  La  La39  1  0.49650516  0.01449263  0.61884226  1
  La  La40  1  0.67160397  0.84289908  0.12739086  1
  La  La41  1  0.32370354  0.15724945  0.36782263  1
  La  La42  1  0.33830092  0.84629332  0.62652773  1
  La  La43  1  0.82773318  0.35013926  0.12586095  1
  La  La44  1  0.66972706  0.50583254  0.12634074  1
  La  La45  1  0.83154592  0.01274087  0.63038699  1
  La  La46  1  1.00534815  0.18063810  0.12749908  1
  La  La47  1  1.00272441  0.84660967  0.12328296  1
  La  La48  1  0.49656735  0.34495634  0.62271025  1
  La  La49  1  0.32380951  0.82164034  0.87986263  1
  La  La50  1  0.49966666  0.68192691  0.62008377  1
  La  La51  1  0.66016619  0.15224543  0.87324659  1
  La  La52  1  0.50182347  0.32139605  0.37965928  1
  La  La53  1  0.33490471  0.84067048  0.12241749  1
  La  La54  1  0.15737441  0.68183487  0.12611282  1
  La  La55  1  0.82993583  0.34577952  0.62311811  1
  La  La56  1  0.32849133  0.48278267  0.87577050  1
  La  La57  1  0.16003547  0.34163910  0.62435358  1
  La  La58  1  0.67060979  0.17991390  0.62766465  1
  La  La59  1  0.17113556  0.32001384  0.87777451  1
  La  La60  1  0.16862472  0.99452095  0.37724465  1
  La  La61  1  0.83787992  0.32026093  0.87318264  1
  La  La62  1  0.32963279  0.82157249  0.37443734  1
  La  La63  1  0.50112730  0.67879431  0.12565228  1
  La  La64  1  0.83849207  0.32254365  0.37243253  1
  La  La65  1  0.66329858  0.48851056  0.87591812  1
  La  La66  1  0.82835281  0.01160903  0.12480347  1
  La  La67  1  0.84107153  0.98187466  0.37622277  1
  La  La68  1  0.16467890  0.68278430  0.62530005  1
  La  La69  1  -0.00632910  0.48246932  0.37304667  1
  La  La70  1  0.66573119  0.81568309  0.87229470  1
  La  La71  1  -0.00494211  0.81833271  0.37520671  1
  In  In72  1  0.33292864  0.66596984  0.24864687  1
  In  In73  1  0.66856685  -0.00081316  0.25178979  1
  In  In74  1  -0.00303371  0.00185871  0.74767242  1
  In  In75  1  0.16581604  0.49983456  0.50043434  1
  In  In76  1  0.50024872  0.83450325  0.49754981  1
  In  In77  1  0.33385369  0.33084642  0.74599532  1
  In  In78  1  0.50006286  0.83260754  0.24892158  1
  In  In79  1  0.66887259  0.00089706  0.50140241  1
  In  In80  1  0.16624217  0.83821156  0.00231281  1
  In  In81  1  0.49912140  0.16390110  -0.00330550  1
  In  In82  1  0.49671410  0.16572448  0.25299893  1
  In  In83  1  0.66680224  0.33259277  -0.00149867  1
  In  In84  1  0.66699614  -0.00384272  -0.00349267  1
  In  In85  1  0.33311267  0.33495537  0.25389744  1
  In  In86  1  0.49811797  0.50055582  0.49901246  1
  In  In87  1  0.00028522  0.66977123  -0.00168485  1
  In  In88  1  0.66783691  0.66410549  0.00057331  1
  In  In89  1  0.66697158  0.33486199  0.50172474  1
  In  In90  1  0.83315637  0.16860283  0.00254664  1
  In  In91  1  0.33336535  0.66317213  0.00241303  1
  In  In92  1  0.83187043  0.16592851  0.50249405  1
  In  In93  1  0.16558160  0.16811317  0.75026342  1
  In  In94  1  0.16712982  0.83789162  0.49657695  1
  In  In95  1  0.33491193  0.66303674  0.74736098  1
  In  In96  1  -0.00180114  0.33519356  -0.00195174  1
  In  In97  1  0.83283644  0.49904379  0.75089656  1
  In  In98  1  0.17083802  0.83660868  0.74759783  1
  In  In99  1  0.83558659  0.82887393  0.24750972  1
  In  In100  1  0.67104306  0.66496317  0.50052955  1
  In  In101  1  0.16753314  0.50246705  -0.00112983  1
  In  In102  1  0.16620674  0.50152041  0.25388003  1
  In  In103  1  0.50022359  0.83336512  -0.00268043  1
  In  In104  1  0.83386999  0.16588853  0.24907806  1
  In  In105  1  0.66664217  0.33627999  0.25263304  1
  In  In106  1  0.49935186  0.83438890  0.75017060  1
  In  In107  1  0.33918478  0.00153056  0.75270216  1
  Ir  Ir108  1  0.00261006  0.66635224  0.50018485  1
  Ir  Ir109  1  0.00050135  -0.00296854  0.25200836  1
  Ir  Ir110  1  0.83595980  0.83479305  0.00041774  1
  Ir  Ir111  1  0.83104026  0.50023143  0.00239675  1
  Ir  Ir112  1  0.50072450  0.49741758  -0.00102786  1
  Ir  Ir113  1  0.33166311  0.66890962  0.50158427  1
  Ir  Ir114  1  0.50654228  0.16619239  0.74542340  1
  Ir  Ir115  1  0.66667712  0.65961104  0.24593959  1
  Ir  Ir116  1  0.16664961  0.16587174  0.00706193  1
  Ir  Ir117  1  -0.00057997  0.00185261  0.49420044  1
  Ir  Ir118  1  0.33393173  0.00104386  0.00627192  1
  Ir  Ir119  1  0.16443214  0.16833155  0.49477895  1
  Ir  Ir120  1  -0.00346600  0.33497655  0.50299123  1
  Ir  Ir121  1  0.50427606  0.50080880  0.24709695  1
  Ir  Ir122  1  0.82854206  0.16993645  0.74927587  1
  Ir  Ir123  1  0.66690844  0.00183526  0.75003505  1
  Ir  Ir124  1  0.50380292  0.49855196  0.75261950  1
  Ir  Ir125  1  -0.00374564  -0.00082409  0.00641284  1
  Ir  Ir126  1  0.16402057  0.83853833  0.25257133  1
  Ir  Ir127  1  0.16377417  0.49619828  0.74859766  1
  Ir  Ir128  1  -0.00369169  0.33220336  0.25261527  1
  Ir  Ir129  1  0.83981292  0.83569337  0.50330487  1
  Ir  Ir130  1  0.66597054  0.66545634  0.75351081  1
  Ir  Ir131  1  0.33204629  0.32779741  0.50111619  1
  Ir  Ir132  1  0.33216556  0.33394516  -0.00199699  1
  Ir  Ir133  1  0.33288791  0.00310470  0.49548793  1
  Ir  Ir134  1  0.83718616  0.50167097  0.24997129  1
  Ir  Ir135  1  0.49512227  0.16725037  0.50340816  1
  Ir  Ir136  1  0.00342526  0.66881162  0.25292596  1
  Ir  Ir137  1  0.32493428  -0.00020855  0.24949798  1
  Ir  Ir138  1  0.82955286  0.83452093  0.74905000  1
  Ir  Ir139  1  0.84077950  0.49763486  0.49915214  1
  Ir  Ir140  1  0.00145176  0.66568710  0.74280860  1
  Ir  Ir141  1  -0.00214187  0.33548609  0.74768503  1
  Ir  Ir142  1  0.16186441  0.16380469  0.25020636  1
  Ir  Ir143  1  0.66809934  0.33240622  0.75012205  1
  O  O144  1  0.31810632  0.32577900  0.11916493  1
  O  O145  1  0.29989721  0.32997049  0.61978962  1
  O  O146  1  0.29171171  0.66137369  0.12612332  1
  O  O147  1  0.30006405  0.65988488  0.61828788  1
  O  O148  1  0.30623341  0.98082826  0.12753755  1
  O  O149  1  0.31339528  0.98867982  0.61507290  1
  O  O150  1  0.64636714  0.34387746  0.12557201  1
  O  O151  1  0.63227198  0.32360726  0.63224312  1
  O  O152  1  0.63949426  0.65123931  0.12649435  1
  O  O153  1  0.63891663  0.66687045  0.63462926  1
  O  O154  1  0.64659451  0.97807930  0.12181312  1
  O  O155  1  0.63457386  0.99682200  0.63312241  1
  O  O156  1  0.96771122  0.32461162  0.13162851  1
  O  O157  1  0.96544517  0.33279825  0.62500949  1
  O  O158  1  0.98621401  0.66622921  0.13385685  1
  O  O159  1  0.97794622  0.65625199  0.62008378  1
  O  O160  1  0.96634144  0.98860383  0.13104701  1
  O  O161  1  0.96868157  1.00140415  0.61447780  1
  O  O162  1  0.19603323  0.16852833  0.12969138  1
  O  O163  1  0.17842501  0.17632241  0.61517867  1
  O  O164  1  0.17916550  0.49762046  0.12651169  1
  O  O165  1  0.18357349  0.48237584  0.62946659  1
  O  O166  1  0.19612644  0.82862250  0.13434970  1
  O  O167  1  0.19959907  0.83097824  0.61899717  1
  O  O168  1  0.51327532  0.16934773  0.12386047  1
  O  O169  1  0.53460805  0.15833464  0.62429193  1
  O  O170  1  0.53334709  0.49245038  0.12162361  1
  O  O171  1  0.51973343  0.48257171  0.63239116  1
  O  O172  1  0.53642529  0.82697223  0.12304074  1
  O  O173  1  0.51924393  0.82296599  0.62475436  1
  O  O174  1  0.87287076  0.15303837  0.12674319  1
  O  O175  1  0.85425746  0.15689175  0.63141281  1
  O  O176  1  0.85961038  0.48995474  0.12586981  1
  O  O177  1  0.86721858  0.48770640  0.61944328  1
  O  O178  1  0.86685935  0.83027882  0.11926270  1
  O  O179  1  0.85560143  0.83410679  0.62571103  1
  O  O180  1  0.14297009  0.15721599  0.37278137  1
  O  O181  1  0.14948609  0.17504408  0.88514281  1
  O  O182  1  0.12830545  0.50264259  0.37922048  1
  O  O183  1  0.14501425  0.50307087  0.86553037  1
  O  O184  1  0.13133487  0.84647527  0.37076001  1
  O  O185  1  0.15538822  0.83852993  0.87487639  1
  O  O186  1  0.46107998  0.17603623  0.38552190  1
  O  O187  1  0.48189954  0.16674688  0.86337589  1
  O  O188  1  0.48198561  0.50815871  0.36732060  1
  O  O189  1  0.46848468  0.50196786  0.87654065  1
  O  O190  1  0.46507752  0.82962910  0.37351499  1
  O  O191  1  0.45924717  0.84607105  0.87306814  1
  O  O192  1  0.81397414  0.18318790  0.37653969  1
  O  O193  1  0.79679457  0.18210457  0.86827975  1
  O  O194  1  0.81866416  0.49798573  0.37408282  1
  O  O195  1  0.80294010  0.50214878  0.88111392  1
  O  O196  1  0.82187542  0.84155606  0.38160624  1
  O  O197  1  0.80164832  0.83472447  0.87554920  1
  O  O198  1  0.03255208  0.00271734  0.37176569  1
  O  O199  1  0.01370163  0.00021707  0.88477532  1
  O  O200  1  0.01798895  0.34329487  0.37919816  1
  O  O201  1  0.03158380  0.33535514  0.86522852  1
  O  O202  1  0.02211438  0.68067798  0.37692100  1
  O  O203  1  0.01751164  0.66680378  0.86433249  1
  O  O204  1  0.35042415  0.02016236  0.37128750  1
  O  O205  1  0.36712376  0.00657604  0.88626861  1
  O  O206  1  0.36420891  0.32599215  0.38368038  1
  O  O207  1  0.34776374  0.34056821  0.87640456  1
  O  O208  1  0.35586576  0.68197808  0.38092625  1
  O  O209  1  0.35250933  0.68491189  0.87367416  1
  O  O210  1  0.70769644  0.00575933  0.37763297  1
  O  O211  1  0.69271267  0.01612518  0.86665317  1
  O  O212  1  0.70336006  0.33581775  0.37808495  1
  O  O213  1  0.70135974  0.34487110  0.86885742  1
  O  O214  1  0.68531922  0.66363758  0.36636125  1
  O  O215  1  0.68854476  0.66866526  0.87266467  1
  O  O216  1  0.06610377  0.09709948  0.02901734  1
  O  O217  1  0.06806384  0.09726460  0.51503001  1
  O  O218  1  0.07419257  0.42418484  0.00966503  1
  O  O219  1  0.06499661  0.42538997  0.52626243  1
  O  O220  1  0.07199364  0.76476495  0.03132318  1
  O  O221  1  0.07699939  0.75437803  0.51758740  1
  O  O222  1  0.39602822  0.09490938  0.02906838  1
  O  O223  1  0.40924633  0.08918883  0.52683867  1
  O  O224  1  0.40109078  0.43007258  0.01136752  1
  O  O225  1  0.40618141  0.41577780  0.52146458  1
  O  O226  1  0.41000200  0.75702260  0.03347870  1
  O  O227  1  0.39819659  0.76024711  0.52664717  1
  O  O228  1  0.74156095  0.09129295  0.01732871  1
  O  O229  1  0.73766611  0.09428994  0.53663509  1
  O  O230  1  0.73989484  0.43315277  0.02229411  1
  O  O231  1  0.75226004  0.42528200  0.52430198  1
  O  O232  1  0.74005349  0.77006124  0.02016050  1
  O  O233  1  0.75050455  0.76159705  0.51489850  1
  O  O234  1  0.09004599  0.25088966  0.02274139  1
  O  O235  1  0.09442462  0.26855488  0.52106896  1
  O  O236  1  0.10080207  0.60468224  0.01807736  1
  O  O237  1  0.09248821  0.59666522  0.53088216  1
  O  O238  1  0.08493481  0.92917973  0.02507222  1
  O  O239  1  0.09246504  0.93568011  0.51038274  1
  O  O240  1  0.41760360  0.25790189  0.01196447  1
  O  O241  1  0.42838770  0.26221625  0.52812818  1
  O  O242  1  0.43892787  0.59135144  0.02628595  1
  O  O243  1  0.42527883  0.60072817  0.52517436  1
  O  O244  1  0.42070266  0.92803911  0.02554826  1
  O  O245  1  0.42132649  0.93082456  0.52204884  1
  O  O246  1  0.76835848  0.26998173  0.02622889  1
  O  O247  1  0.75568099  0.25886335  0.53693326  1
  O  O248  1  0.75829672  0.58597588  0.02464751  1
  O  O249  1  0.76932654  0.58678279  0.51628098  1
  O  O250  1  0.76894291  0.92418999  0.02538548  1
  O  O251  1  0.77636922  0.93121072  0.52249792  1
  O  O252  1  0.23193091  0.07114662  0.27535553  1
  O  O253  1  0.24668953  0.07677023  0.75988293  1
  O  O254  1  0.24112867  0.40560132  0.26819380  1
  O  O255  1  0.22945570  0.40365031  0.77284424  1
  O  O256  1  0.24176809  0.75715506  0.27650514  1
  O  O257  1  0.23648537  0.73365851  0.75246937  1
  O  O258  1  0.57460408  0.07672236  0.26963682  1
  O  O259  1  0.57301666  0.07040973  0.77534593  1
  O  O260  1  0.56660113  0.40854097  0.27819266  1
  O  O261  1  0.58215898  0.41058882  0.77959731  1
  O  O262  1  0.57472598  0.72671953  0.25500360  1
  O  O263  1  0.57999998  0.74159814  0.77448805  1
  O  O264  1  0.90677463  0.06044962  0.27569490  1
  O  O265  1  0.89607449  0.07708557  0.76430687  1
  O  O266  1  0.90324611  0.40386422  0.27555152  1
  O  O267  1  0.90277264  0.39872254  0.77173582  1
  O  O268  1  0.91369067  0.73961858  0.27115954  1
  O  O269  1  0.90792284  0.73928579  0.76357031  1
  O  O270  1  0.25560904  0.23019060  0.26857459  1
  O  O271  1  0.25258147  0.24748651  0.77295807  1
  O  O272  1  0.26124805  0.57514214  0.27576041  1
  O  O273  1  0.26226657  0.55790305  0.76903719  1
  O  O274  1  0.25285594  0.91045189  0.28424835  1
  O  O275  1  0.28173227  0.89449582  0.76420779  1
  O  O276  1  0.58131293  0.25135015  0.28073751  1
  O  O277  1  0.60405695  0.23351594  0.77108815  1
  O  O278  1  0.60364952  0.56175117  0.25682973  1
  O  O279  1  0.59993204  0.56783220  0.77615592  1
  O  O280  1  0.59446033  0.90331160  0.26896672  1
  O  O281  1  0.60208879  0.90904950  0.77973614  1
  O  O282  1  0.92693213  0.24525743  0.27038697  1
  O  O283  1  0.92030505  0.24446061  0.77568709  1
  O  O284  1  0.93828729  0.57070671  0.27484767  1
  O  O285  1  0.93047117  0.57416216  0.75390450  1
  O  O286  1  0.93650762  0.90317867  0.27563235  1
  O  O287  1  0.91760855  0.90672103  0.76026362  1
  O  O288  1  0.26345906  0.23304142  0.47333784  1
  O  O289  1  0.25669016  0.24300678  0.98238108  1
  O  O290  1  0.26189599  0.57822185  0.48382172  1
  O  O291  1  0.27127515  0.56240386  0.97040688  1
  O  O292  1  0.26326459  0.91415561  0.46447090  1
  O  O293  1  0.27003465  0.90807290  0.98319538  1
  O  O294  1  0.58153586  0.24060371  0.48244086  1
  O  O295  1  0.59982381  0.23378536  0.97196019  1
  O  O296  1  0.59369061  0.57207858  0.49352881  1
  O  O297  1  0.59603330  0.56106318  0.97883335  1
  O  O298  1  0.59265893  0.91167781  0.48215750  1
  O  O299  1  0.59479712  0.90405299  0.95905674  1
  O  O300  1  0.92277222  0.24933452  0.48492265  1
  O  O301  1  0.92138995  0.24674273  0.97269299  1
  O  O302  1  0.93851139  0.56449186  0.47969976  1
  O  O303  1  0.92071559  0.57232066  0.98839005  1
  O  O304  1  0.93469175  0.90597773  0.47111645  1
  O  O305  1  0.93314730  0.90145099  0.98647571  1
  O  O306  1  0.23726931  0.07482288  0.47110514  1
  O  O307  1  0.24069759  0.07322511  0.98720370  1
  O  O308  1  0.24174335  0.39906608  0.48426407  1
  O  O309  1  0.24045559  0.40120184  0.97316917  1
  O  O310  1  0.24708663  0.74523966  0.47847664  1
  O  O311  1  0.24515291  0.74777773  0.98702754  1
  O  O312  1  0.56650703  0.07926067  0.48514027  1
  O  O313  1  0.56763226  0.06659721  0.97119019  1
  O  O314  1  0.56570403  0.39854456  0.48308522  1
  O  O315  1  0.57328163  0.41188671  0.97289720  1
  O  O316  1  0.57412935  0.73734147  0.49246627  1
  O  O317  1  0.57884448  0.74066941  0.97844242  1
  O  O318  1  0.90176288  0.06381094  0.47630050  1
  O  O319  1  0.90780825  0.06781648  0.99099232  1
  O  O320  1  0.90377176  0.40209152  0.47433044  1
  O  O321  1  0.89489126  0.40628464  0.97922930  1
  O  O322  1  0.91467063  0.74555088  0.47716202  1
  O  O323  1  0.90526689  0.74654622  0.98100261  1
  O  O324  1  0.08601568  0.25578583  0.22619679  1
  O  O325  1  0.09292653  0.27298397  0.72761537  1
  O  O326  1  0.09733602  0.60628045  0.23208057  1
  O  O327  1  0.09617585  0.59322537  0.71750445  1
  O  O328  1  0.08827355  0.92355846  0.22402371  1
  O  O329  1  0.09025229  0.92600987  0.73259889  1
  O  O330  1  0.41329843  0.25097115  0.23385392  1
  O  O331  1  0.43822807  0.25961757  0.72201826  1
  O  O332  1  0.44051222  0.59623877  0.22234576  1
  O  O333  1  0.43888873  0.59130208  0.72488190  1
  O  O334  1  0.40941417  0.92299410  0.23245938  1
  O  O335  1  0.44028328  0.93895982  0.72409713  1
  O  O336  1  0.76697531  0.26786122  0.22523816  1
  O  O337  1  0.76033673  0.26343066  0.72038352  1
  O  O338  1  0.76295653  0.59091261  0.22705376  1
  O  O339  1  0.75458429  0.59242027  0.73495093  1
  O  O340  1  0.76829217  0.92430306  0.22530465  1
  O  O341  1  0.76261677  0.93403558  0.72521684  1
  O  O342  1  0.06356465  0.09617145  0.22757143  1
  O  O343  1  0.07153315  0.09585102  0.74078245  1
  O  O344  1  0.06473940  0.42253535  0.24248606  1
  O  O345  1  0.06489552  0.42997464  0.72013491  1
  O  O346  1  0.07104174  0.76609668  0.22603955  1
  O  O347  1  0.07636070  0.75035643  0.72324180  1
  O  O348  1  0.38880824  0.09331724  0.22744555  1
  O  O349  1  0.42013917  0.09516718  0.72218572  1
  O  O350  1  0.41465173  0.43133950  0.23673167  1
  O  O351  1  0.41443016  0.42343255  0.73578030  1
  O  O352  1  0.40663670  0.75860180  0.21640219  1
  O  O353  1  0.40734769  0.75779956  0.71533199  1
  O  O354  1  0.74734995  0.08737452  0.21861424  1
  O  O355  1  0.73368318  0.09996687  0.72365947  1
  O  O356  1  0.74509471  0.43458716  0.22537489  1
  O  O357  1  0.74256355  0.41732606  0.72411400  1
  O  O358  1  0.73284868  0.75619920  0.22637077  1
  O  O359  1  0.73402268  0.76262754  0.74039040  1
