# generated using pymatgen
data_BaLaInIrO6
_symmetry_space_group_name_H-M   'P 1'
_cell_length_a   17.52951477
_cell_length_b   17.55252030
_cell_length_c   16.49940291
_cell_angle_alpha   90.02056882
_cell_angle_beta   89.97009960
_cell_angle_gamma   90.03124402
_symmetry_Int_Tables_number   1
_chemical_formula_structural   BaLaInIrO6
_chemical_formula_sum   'Ba36 La36 In36 Ir36 O216'
_cell_volume   5076.65271408
_cell_formula_units_Z   36
loop_
 _symmetry_equiv_pos_site_id
 _symmetry_equiv_pos_as_xyz
  1  'x, y, z'
loop_
 _atom_site_type_symbol
 _atom_site_label
 _atom_site_symmetry_multiplicity
 _atom_site_fract_x
 _atom_site_fract_y
 _atom_site_fract_z
 _atom_site_occupancy
  Ba  Ba0  1  0.32912800  0.49169550  0.37557132  1
  Ba  Ba1  1  -0.00171755  0.82398699  0.87713327  1
  Ba  Ba2  1  0.66557530  0.50850715  0.12849792  1
  Ba  Ba3  1  0.66964635  0.18160873  0.12830744  1
  Ba  Ba4  1  0.16575128  0.67703371  0.62476770  1
  Ba  Ba5  1  0.16461998  0.98879145  0.87052569  1
  Ba  Ba6  1  0.49969238  0.98785215  0.37157196  1
  Ba  Ba7  1  0.16219581  0.33783074  0.12816081  1
  Ba  Ba8  1  0.66749204  0.16157648  0.87580172  1
  Ba  Ba9  1  0.99826956  0.83893414  0.12692448  1
  Ba  Ba10  1  0.83659110  0.65401856  0.37203907  1
  Ba  Ba11  1  0.33107264  0.83535851  0.12421097  1
  Ba  Ba12  1  0.83699308  0.32837521  0.37631592  1
  Ba  Ba13  1  -0.00215438  0.82091509  0.37246389  1
  Ba  Ba14  1  -0.00033884  0.15810274  0.87552247  1
  Ba  Ba15  1  0.33267494  0.82849343  0.37410953  1
  Ba  Ba16  1  0.16801999  0.98619590  0.37559147  1
  Ba  Ba17  1  0.49809403  0.01060378  0.62187280  1
  Ba  Ba18  1  0.00117336  0.49859313  0.87570596  1
  Ba  Ba19  1  0.16692320  0.67344962  0.12630605  1
  Ba  Ba20  1  0.33380640  0.15334762  0.87304466  1
  Ba  Ba21  1  0.83421100  0.65758479  0.87663240  1
  Ba  Ba22  1  0.16561266  0.65910090  0.37130757  1
  Ba  Ba23  1  0.33528606  0.17497961  0.62448323  1
  Ba  Ba24  1  0.33379193  0.17079564  0.12681255  1
  Ba  Ba25  1  0.49929787  0.65760496  0.87940979  1
  Ba  Ba26  1  0.99850520  0.50850530  0.62477968  1
  Ba  Ba27  1  0.32611777  0.49040220  0.87590537  1
  Ba  Ba28  1  0.83661484  0.32859387  0.87722485  1
  Ba  Ba29  1  0.66085508  0.48871859  0.87839723  1
  Ba  Ba30  1  0.16719698  0.66103757  0.87829283  1
  Ba  Ba31  1  0.32761081  0.82534016  0.87494830  1
  Ba  Ba32  1  0.83015987  0.01268889  0.12703599  1
  Ba  Ba33  1  0.49954359  0.00791098  0.12420103  1
  Ba  Ba34  1  -0.00356690  0.49179570  0.37874779  1
  Ba  Ba35  1  1.00588180  0.17035491  0.12577175  1
  La  La36  1  0.49469809  0.68147084  0.12658008  1
  La  La37  1  0.66264670  0.82174208  0.87448645  1
  La  La38  1  0.65726522  0.81958787  0.37302805  1
  La  La39  1  0.83163267  0.67903960  0.12638937  1
  La  La40  1  0.17255211  0.31577229  0.87511613  1
  La  La41  1  0.83155557  0.01684819  0.62463586  1
  La  La42  1  0.84315854  0.98814442  0.87192001  1
  La  La43  1  0.50024258  0.33573304  0.11884056  1
  La  La44  1  0.67210875  0.18842876  0.62451512  1
  La  La45  1  0.66447646  0.48760384  0.37390655  1
  La  La46  1  0.16609902  0.01228381  0.62424208  1
  La  La47  1  0.67114364  0.51904635  0.62769267  1
  La  La48  1  0.83803595  0.35499878  0.62336321  1
  La  La49  1  0.67395101  0.84710462  0.12675656  1
  La  La50  1  0.50522172  0.65231001  0.37271040  1
  La  La51  1  0.49404219  0.34819995  0.62771046  1
  La  La52  1  1.00759536  0.18441677  0.62529594  1
  La  La53  1  0.50602192  0.32064054  0.37238111  1
  La  La54  1  0.84435387  0.67326052  0.62569282  1
  La  La55  1  0.66233299  0.84575023  0.62767047  1
  La  La56  1  0.83622944  0.34513941  0.12559700  1
  La  La57  1  0.33181478  0.51475131  0.12477032  1
  La  La58  1  -0.00072508  0.15203220  0.37605133  1
  La  La59  1  0.16524721  0.34936980  0.62281053  1
  La  La60  1  0.33634267  0.85136475  0.62295276  1
  La  La61  1  0.33489866  0.51885327  0.62474753  1
  La  La62  1  0.48976867  0.68773278  0.62739371  1
  La  La63  1  1.00162665  0.51054603  0.12947371  1
  La  La64  1  0.16874928  0.31866687  0.37643882  1
  La  La65  1  0.83912926  0.98754738  0.37990467  1
  La  La66  1  0.49939394  0.32693367  0.87702375  1
  La  La67  1  0.16498947  -0.00711365  0.10808548  1
  La  La68  1  0.32989809  0.14808243  0.37907815  1
  La  La69  1  1.00229634  0.84436553  0.62430705  1
  La  La70  1  0.50270022  0.98248974  0.87263387  1
  La  La71  1  0.66551224  0.15121128  0.37199287  1
  In  In72  1  0.16965639  0.16220730  0.00015972  1
  In  In73  1  0.49938859  0.49603468  0.25042912  1
  In  In74  1  0.82991875  0.83277270  0.50193283  1
  In  In75  1  0.66941922  0.00327936  0.74900140  1
  In  In76  1  0.66905183  0.00212096  -0.00373734  1
  In  In77  1  0.50053787  0.16572917  -0.00248655  1
  In  In78  1  0.16771786  0.50069628  0.74891554  1
  In  In79  1  0.82760804  0.50192021  0.75480560  1
  In  In80  1  0.33578853  0.33477999  0.49883274  1
  In  In81  1  -0.00121678  -0.00073404  0.25230370  1
  In  In82  1  0.00061193  0.66901344  0.75193023  1
  In  In83  1  0.83094062  0.83245556  0.74828403  1
  In  In84  1  0.33572994  0.66688834  0.25322092  1
  In  In85  1  0.00349936  0.33428628  0.00151434  1
  In  In86  1  0.83263291  0.16868765  -0.00058636  1
  In  In87  1  0.16491673  0.49608498  0.00345459  1
  In  In88  1  0.82991124  0.83172444  0.25416223  1
  In  In89  1  0.50237369  0.16616124  0.74903994  1
  In  In90  1  -0.00505603  -0.00288098  -0.00144723  1
  In  In91  1  0.33399549  0.67056101  0.49832090  1
  In  In92  1  0.49845165  0.50173818  0.74850215  1
  In  In93  1  0.50286638  0.16871811  0.49837898  1
  In  In94  1  0.33456298  0.66557400  -0.00045628  1
  In  In95  1  0.33441377  -0.00363799  -0.00237729  1
  In  In96  1  0.66835291  0.00155411  0.50016326  1
  In  In97  1  0.33105149  -0.00287607  0.24826820  1
  In  In98  1  0.00125158  0.66683694  0.49715127  1
  In  In99  1  0.83615185  0.17246718  0.50106601  1
  In  In100  1  0.66462359  0.66855300  0.50200716  1
  In  In101  1  0.49993611  0.16914034  0.25016751  1
  In  In102  1  0.49845197  0.49773399  0.00238553  1
  In  In103  1  0.83642179  0.17127012  0.74577640  1
  In  In104  1  0.00292338  0.33570844  0.75025921  1
  In  In105  1  0.16677761  0.16340387  0.25406010  1
  In  In106  1  0.66710693  0.33734447  0.50075416  1
  In  In107  1  0.66721190  0.66476067  0.00231562  1
  Ir  Ir108  1  0.67148089  0.33639307  0.25214772  1
  Ir  Ir109  1  0.33069489  -0.00100393  0.50167542  1
  Ir  Ir110  1  0.17045006  0.16522496  0.74170032  1
  Ir  Ir111  1  0.50484622  0.83290156  -0.00222474  1
  Ir  Ir112  1  0.00430873  0.33323040  0.49797287  1
  Ir  Ir113  1  0.66361604  0.33552517  0.74782665  1
  Ir  Ir114  1  -0.00079942  0.33365972  0.25580675  1
  Ir  Ir115  1  0.65921601  0.67089450  0.74600943  1
  Ir  Ir116  1  0.33227253  0.33376115  0.00135610  1
  Ir  Ir117  1  0.33392671  -0.00308120  0.74603208  1
  Ir  Ir118  1  0.33449129  0.33688930  0.24964853  1
  Ir  Ir119  1  0.16552594  0.16634090  0.50263367  1
  Ir  Ir120  1  -0.00070443  0.66099087  0.24684756  1
  Ir  Ir121  1  0.66809151  0.33631770  0.00136827  1
  Ir  Ir122  1  0.50779295  0.83163696  0.24787380  1
  Ir  Ir123  1  0.16417803  0.83156318  0.25030876  1
  Ir  Ir124  1  0.33078335  0.33319123  0.74810150  1
  Ir  Ir125  1  0.50233395  0.50095639  0.50168657  1
  Ir  Ir126  1  0.66604393  0.66623931  0.25094915  1
  Ir  Ir127  1  0.16565772  0.49361300  0.25342272  1
  Ir  Ir128  1  0.67128778  0.00123470  0.25154288  1
  Ir  Ir129  1  0.00032615  0.00011817  0.50360488  1
  Ir  Ir130  1  0.16964230  0.83642721  0.74414261  1
  Ir  Ir131  1  0.00021742  -0.00251678  0.74269570  1
  Ir  Ir132  1  0.49843099  0.83204538  0.74978527  1
  Ir  Ir133  1  0.83238209  0.17129822  0.25642242  1
  Ir  Ir134  1  0.82840661  0.50257613  0.50032976  1
  Ir  Ir135  1  0.83387485  0.50026980  0.00692819  1
  Ir  Ir136  1  0.16724804  0.83732001  0.50219997  1
  Ir  Ir137  1  0.49980869  0.83203912  0.49727576  1
  Ir  Ir138  1  -0.00455043  0.66567215  0.00564678  1
  Ir  Ir139  1  0.83277178  0.50036225  0.24900373  1
  Ir  Ir140  1  0.33313925  0.67067246  0.74571663  1
  Ir  Ir141  1  0.82873412  0.83045991  0.00253101  1
  Ir  Ir142  1  0.16233172  0.82870031  -0.00162301  1
  Ir  Ir143  1  0.16852479  0.49592660  0.49672441  1
  O  O144  1  0.30897552  0.32544753  0.12481735  1
  O  O145  1  0.30182279  0.32978171  0.62845488  1
  O  O146  1  0.31999829  0.66045814  0.12889250  1
  O  O147  1  0.31892955  0.66353941  0.62560691  1
  O  O148  1  0.30018010  0.99351653  0.12438226  1
  O  O149  1  0.30430534  0.99309865  0.62384413  1
  O  O150  1  0.63909956  0.33631450  0.12485589  1
  O  O151  1  0.63225898  0.33128063  0.62849360  1
  O  O152  1  0.63316646  0.66512980  0.13341954  1
  O  O153  1  0.62705320  0.65900665  0.62704623  1
  O  O154  1  0.64720241  0.98835890  0.13076085  1
  O  O155  1  0.64225264  0.97959433  0.62435437  1
  O  O156  1  0.97281069  0.32638032  0.13757095  1
  O  O157  1  0.97387684  0.32370545  0.61605050  1
  O  O158  1  0.96766128  0.65603853  0.12677438  1
  O  O159  1  0.97693959  0.66955134  0.62267655  1
  O  O160  1  0.98212918  0.99902766  0.12667216  1
  O  O161  1  0.97045103  0.98833512  0.62276224  1
  O  O162  1  0.18095208  0.14523888  0.12950357  1
  O  O163  1  0.18950444  0.15171344  0.62117585  1
  O  O164  1  0.19503850  0.49090345  0.13589429  1
  O  O165  1  0.19998611  0.48820707  0.61624616  1
  O  O166  1  0.18078183  0.84320201  0.12417128  1
  O  O167  1  0.19902003  0.84057724  0.62306039  1
  O  O168  1  0.51699262  0.17976383  0.12502274  1
  O  O169  1  0.53432838  0.16599937  0.62405745  1
  O  O170  1  0.51951599  0.47299286  0.12746909  1
  O  O171  1  0.53435721  0.48745941  0.62069329  1
  O  O172  1  0.53806566  0.82447640  0.12245569  1
  O  O173  1  0.52795642  0.82595365  0.62259252  1
  O  O174  1  0.85451839  0.16975244  0.13891393  1
  O  O175  1  0.87380449  0.15282394  0.62178613  1
  O  O176  1  0.86299414  0.49003440  0.12864202  1
  O  O177  1  0.84210107  0.49632986  0.62041977  1
  O  O178  1  0.84750465  0.82301520  0.12380161  1
  O  O179  1  0.86436192  0.81371757  0.62423107  1
  O  O180  1  0.13610265  0.18022686  0.38573767  1
  O  O181  1  0.15189247  0.17515983  0.86101099  1
  O  O182  1  0.14488223  0.49829992  0.37450085  1
  O  O183  1  0.15405361  0.50213406  0.87605410  1
  O  O184  1  0.14374722  0.82884683  0.37463340  1
  O  O185  1  0.14605155  0.82496616  0.87304117  1
  O  O186  1  0.46616851  0.18631238  0.37396180  1
  O  O187  1  0.48365113  0.19220224  0.87213276  1
  O  O188  1  0.47882720  0.51337989  0.38195348  1
  O  O189  1  0.47883248  0.49466568  0.87367419  1
  O  O190  1  0.48163562  0.83038920  0.37175981  1
  O  O191  1  0.47624084  0.84091002  0.87483013  1
  O  O192  1  0.80146997  0.17589277  0.37471656  1
  O  O193  1  0.81620517  0.17377243  0.86982166  1
  O  O194  1  0.80072201  0.50294512  0.37388496  1
  O  O195  1  0.81126638  0.50172880  0.88630038  1
  O  O196  1  0.79430161  0.84238270  0.37701352  1
  O  O197  1  0.80107730  0.84063293  0.88021304  1
  O  O198  1  0.02027014  0.00841597  0.38556837  1
  O  O199  1  0.01324500  -0.00334791  0.86210030  1
  O  O200  1  0.03242619  0.34001975  0.37689116  1
  O  O201  1  0.03539762  0.34356222  0.87367356  1
  O  O202  1  0.01627631  0.66115041  0.36756741  1
  O  O203  1  0.01353253  0.66669237  0.88545093  1
  O  O204  1  0.34960207  -0.00087928  0.38167964  1
  O  O205  1  0.36372239  -0.00768775  0.86543400  1
  O  O206  1  0.36749410  0.34237968  0.36883419  1
  O  O207  1  0.36199635  0.33801211  0.87486594  1
  O  O208  1  0.36810130  0.66807036  0.37669005  1
  O  O209  1  0.34739398  0.66718320  0.86730767  1
  O  O210  1  0.70286231  0.00934679  0.37138137  1
  O  O211  1  0.70862229  -0.00146391  0.87159567  1
  O  O212  1  0.69053078  0.35105557  0.37134188  1
  O  O213  1  0.68948023  0.33561877  0.87398541  1
  O  O214  1  0.68687801  0.67876907  0.37171362  1
  O  O215  1  0.68322539  0.68166885  0.86741006  1
  O  O216  1  0.08002051  0.07989889  0.00958632  1
  O  O217  1  0.06837422  0.09709477  0.52747986  1
  O  O218  1  0.06666680  0.43249544  0.03427460  1
  O  O219  1  0.07808164  0.42264578  0.52190971  1
  O  O220  1  0.06729650  0.75528858  0.01966033  1
  O  O221  1  0.07346419  0.77156295  0.52122447  1
  O  O222  1  0.40797881  0.09065446  0.01407743  1
  O  O223  1  0.39991994  0.09311073  0.50759627  1
  O  O224  1  0.39287405  0.42796026  0.02607700  1
  O  O225  1  0.40740788  0.43688768  0.52939634  1
  O  O226  1  0.42189567  0.75454067  0.01988494  1
  O  O227  1  0.40753060  0.76660597  0.52853733  1
  O  O228  1  0.73870176  0.09631115  0.02147678  1
  O  O229  1  0.73695090  0.10382888  0.52697226  1
  O  O230  1  0.74283034  0.42878004  0.02519959  1
  O  O231  1  0.73048822  0.44111354  0.51786993  1
  O  O232  1  0.74022814  0.75896308  0.02822184  1
  O  O233  1  0.72505054  0.77036985  0.52698913  1
  O  O234  1  0.10037165  0.25955382  0.00570711  1
  O  O235  1  0.10020234  0.26522745  0.52522744  1
  O  O236  1  0.08172509  0.59298941  0.02361269  1
  O  O237  1  0.09686003  0.58578397  0.51334380  1
  O  O238  1  0.08962858  0.91666131  0.01100206  1
  O  O239  1  0.09442411  0.93106496  0.53098732  1
  O  O240  1  0.43081346  0.27442792  0.01419933  1
  O  O241  1  0.43631374  0.27185531  0.52301137  1
  O  O242  1  0.42937729  0.59323751  0.03227106  1
  O  O243  1  0.43834523  0.59530430  0.52784180  1
  O  O244  1  0.43025952  0.91722908  0.01487467  1
  O  O245  1  0.42287060  0.92390331  0.52211767  1
  O  O246  1  0.76172583  0.27308717  0.02573673  1
  O  O247  1  0.76644607  0.27083667  0.53296474  1
  O  O248  1  0.76887260  0.59503377  0.02776022  1
  O  O249  1  0.76277234  0.59701308  0.52662172  1
  O  O250  1  0.75482547  0.91446010  0.02467394  1
  O  O251  1  0.77395740  0.94087659  0.51974156  1
  O  O252  1  0.24924760  0.08197003  0.28586580  1
  O  O253  1  0.23727385  0.06451892  0.75670163  1
  O  O254  1  0.23286654  0.39813097  0.27674067  1
  O  O255  1  0.23746557  0.39490897  0.76949929  1
  O  O256  1  0.23921036  0.74482264  0.26323474  1
  O  O257  1  0.23824559  0.74006976  0.76359026  1
  O  O258  1  0.58536769  0.07706466  0.27243319  1
  O  O259  1  0.56651665  0.06361597  0.77705588  1
  O  O260  1  0.57707995  0.40401362  0.27993025  1
  O  O261  1  0.56469306  0.39461230  0.76725814  1
  O  O262  1  0.57283616  0.73417250  0.27658277  1
  O  O263  1  0.56207360  0.73508039  0.76394881  1
  O  O264  1  0.89667221  0.07880308  0.28464910  1
  O  O265  1  0.90260476  0.05794889  0.76145185  1
  O  O266  1  0.90119490  0.40358358  0.26346513  1
  O  O267  1  0.89963479  0.40351078  0.75078231  1
  O  O268  1  0.90760261  0.73413928  0.25724516  1
  O  O269  1  0.90067745  0.73738557  0.76383067  1
  O  O270  1  0.26881156  0.24427982  0.27930817  1
  O  O271  1  0.26144024  0.23958389  0.77040791  1
  O  O272  1  0.25621280  0.56656875  0.26310914  1
  O  O273  1  0.27120217  0.57232663  0.75018988  1
  O  O274  1  0.25257968  0.90205354  0.26459534  1
  O  O275  1  0.26629356  0.90164788  0.75724940  1
  O  O276  1  0.60202780  0.24553833  0.27993711  1
  O  O277  1  0.60457351  0.24027200  0.75905792  1
  O  O278  1  0.60026064  0.57342683  0.27941079  1
  O  O279  1  0.59974611  0.57362041  0.76053718  1
  O  O280  1  0.60616873  0.90105927  0.27011860  1
  O  O281  1  0.59449280  0.89586113  0.77436532  1
  O  O282  1  0.93193713  0.23502797  0.28096038  1
  O  O283  1  0.94109288  0.23308633  0.75324672  1
  O  O284  1  0.92797170  0.56704426  0.26229285  1
  O  O285  1  0.91924192  0.57658523  0.75950254  1
  O  O286  1  0.91582967  0.91452156  0.27865164  1
  O  O287  1  0.93406750  0.90594208  0.75829759  1
  O  O288  1  0.25992574  0.23382089  0.47369181  1
  O  O289  1  0.26708657  0.24272941  0.98057444  1
  O  O290  1  0.26007195  0.56862022  0.49064946  1
  O  O291  1  0.26177108  0.56817723  1.00092647  1
  O  O292  1  0.26274912  0.90334311  0.49008706  1
  O  O293  1  0.24734121  0.90387592  0.98639004  1
  O  O294  1  0.60238508  0.23972319  0.46883841  1
  O  O295  1  0.59757065  0.24933190  0.98503419  1
  O  O296  1  0.59726031  0.56547136  0.47584617  1
  O  O297  1  0.59229400  0.57495728  0.98726086  1
  O  O298  1  0.59784226  0.89469992  0.47648029  1
  O  O299  1  0.59269896  0.90465415  0.97030888  1
  O  O300  1  0.94147666  0.23754371  0.47746288  1
  O  O301  1  0.92662834  0.24328087  0.98956126  1
  O  O302  1  0.91875271  0.57063556  0.49028920  1
  O  O303  1  0.92813082  0.56872555  0.99323035  1
  O  O304  1  0.93252505  0.91037139  0.48316766  1
  O  O305  1  0.91259688  0.90497605  0.97820028  1
  O  O306  1  0.23667665  0.07179081  0.48235381  1
  O  O307  1  0.24065519  0.06817372  0.97834811  1
  O  O308  1  0.23294793  0.39918615  0.47811978  1
  O  O309  1  0.23548346  0.39338812  0.97881115  1
  O  O310  1  0.23710342  0.74642093  0.48430241  1
  O  O311  1  0.24006399  0.74445014  0.99159431  1
  O  O312  1  0.57858515  0.07684770  0.46933899  1
  O  O313  1  0.56771411  0.06546952  0.97124674  1
  O  O314  1  0.56302232  0.40636601  0.47420515  1
  O  O315  1  0.57021827  0.39718210  0.98034163  1
  O  O316  1  0.56134340  0.73546018  0.47671867  1
  O  O317  1  0.57984449  0.74993610  0.97727387  1
  O  O318  1  0.90765638  0.06771653  0.47620862  1
  O  O319  1  0.89941582  0.06677926  0.97359704  1
  O  O320  1  0.90115735  0.40433018  0.49211975  1
  O  O321  1  0.90202780  0.41009904  0.99427172  1
  O  O322  1  0.90247862  0.73714549  0.48250002  1
  O  O323  1  0.89913828  0.73593830  0.99217849  1
  O  O324  1  0.09244247  0.26729735  0.24757396  1
  O  O325  1  0.10500734  0.25745662  0.71835986  1
  O  O326  1  0.08980786  0.58304219  0.22483477  1
  O  O327  1  0.09359835  0.59476214  0.73591769  1
  O  O328  1  0.09749279  0.92487218  0.23180748  1
  O  O329  1  0.09888704  0.93117657  0.71804901  1
  O  O330  1  0.43383849  0.28018446  0.23236027  1
  O  O331  1  0.42779139  0.27166810  0.72739143  1
  O  O332  1  0.43940190  0.59903274  0.23228217  1
  O  O333  1  0.42722150  0.60165344  0.72236041  1
  O  O334  1  0.43278191  0.91785371  0.23184644  1
  O  O335  1  0.42819369  0.92497869  0.72661551  1
  O  O336  1  0.76712679  0.27015150  0.22824521  1
  O  O337  1  0.76054550  0.27362235  0.71712685  1
  O  O338  1  0.76484240  0.59909260  0.22576855  1
  O  O339  1  0.75345069  0.60567862  0.72066717  1
  O  O340  1  0.75410929  0.92655902  0.23008583  1
  O  O341  1  0.76838485  0.93161137  0.71956781  1
  O  O342  1  0.06371193  0.09995907  0.25648417  1
  O  O343  1  0.07414489  0.09383605  0.71641847  1
  O  O344  1  0.06534457  0.42857593  0.23170572  1
  O  O345  1  0.08263743  0.41928721  0.71565259  1
  O  O346  1  0.07144679  0.75400106  0.23173979  1
  O  O347  1  0.07320687  0.77414945  0.72563318  1
  O  O348  1  0.41054183  0.08927268  0.24192153  1
  O  O349  1  0.40303025  0.08811928  0.73212657  1
  O  O350  1  0.39171488  0.43275553  0.22708088  1
  O  O351  1  0.39744311  0.42745309  0.71843574  1
  O  O352  1  0.42159502  0.75853522  0.22672883  1
  O  O353  1  0.40114616  0.76650859  0.72211989  1
  O  O354  1  0.73570919  0.10260958  0.24024129  1
  O  O355  1  0.73743495  0.10229666  0.71245695  1
  O  O356  1  0.74213064  0.42883531  0.23050203  1
  O  O357  1  0.72540373  0.43299461  0.72590381  1
  O  O358  1  0.73166227  0.75906437  0.22563156  1
  O  O359  1  0.71988449  0.76887047  0.73175589  1
