# generated using pymatgen
data_BaLaInIrO6
_symmetry_space_group_name_H-M   'P 1'
_cell_length_a   17.54035253
_cell_length_b   17.57684601
_cell_length_c   16.50140630
_cell_angle_alpha   90.00605217
_cell_angle_beta   90.00909911
_cell_angle_gamma   90.00449355
_symmetry_Int_Tables_number   1
_chemical_formula_structural   BaLaInIrO6
_chemical_formula_sum   'Ba36 La36 In36 Ir36 O216'
_cell_volume   5087.45070567
_cell_formula_units_Z   36
loop_
 _symmetry_equiv_pos_site_id
 _symmetry_equiv_pos_as_xyz
  1  'x, y, z'
loop_
 _atom_site_type_symbol
 _atom_site_label
 _atom_site_symmetry_multiplicity
 _atom_site_fract_x
 _atom_site_fract_y
 _atom_site_fract_z
 _atom_site_occupancy
  Ba  Ba0  1  0.99604845  0.83658838  0.12365073  1
  Ba  Ba1  1  0.33947599  0.84589281  0.62702967  1
  Ba  Ba2  1  0.00024164  0.15827722  0.36925468  1
  Ba  Ba3  1  0.66714780  0.84458648  0.62471364  1
  Ba  Ba4  1  0.33086779  0.82574319  0.37280152  1
  Ba  Ba5  1  0.00214389  0.49693171  0.37126284  1
  Ba  Ba6  1  0.33237592  0.48857813  0.37283722  1
  Ba  Ba7  1  0.49835613  0.67463529  0.62725090  1
  Ba  Ba8  1  0.99598125  0.50728283  0.62586846  1
  Ba  Ba9  1  0.66171968  0.50875131  0.12900525  1
  Ba  Ba10  1  0.50221642  0.31812033  0.37171199  1
  Ba  Ba11  1  0.50071073  0.32533395  0.87940985  1
  Ba  Ba12  1  0.65898256  0.48611912  0.37479469  1
  Ba  Ba13  1  0.65790784  0.48869839  0.88047553  1
  Ba  Ba14  1  0.16683959  0.67375902  0.12218618  1
  Ba  Ba15  1  0.00087324  0.82643316  0.37361871  1
  Ba  Ba16  1  0.33102830  0.82163163  0.87318924  1
  Ba  Ba17  1  1.00312808  0.50315785  0.12808635  1
  Ba  Ba18  1  0.83275391  0.65885860  0.37539189  1
  Ba  Ba19  1  0.16661367  0.99114125  0.37317742  1
  Ba  Ba20  1  0.33807474  0.17123018  0.62814092  1
  Ba  Ba21  1  0.66796304  0.15686229  0.37127164  1
  Ba  Ba22  1  0.83023884  0.65582771  0.87731152  1
  Ba  Ba23  1  0.33367812  0.49276078  0.87403389  1
  Ba  Ba24  1  0.16539007  0.34184122  0.12179382  1
  Ba  Ba25  1  0.49971760  0.01217252  0.12440633  1
  Ba  Ba26  1  0.49677090  0.33927585  0.62634284  1
  Ba  Ba27  1  1.00247613  0.17309349  0.12662763  1
  Ba  Ba28  1  0.83461690  0.34438378  0.13234668  1
  Ba  Ba29  1  0.16657711  0.98846004  0.87404932  1
  Ba  Ba30  1  0.33798174  0.51638829  0.12253789  1
  Ba  Ba31  1  0.66584501  0.18066988  0.12559996  1
  Ba  Ba32  1  0.49577284  0.00980832  0.62725358  1
  Ba  Ba33  1  0.16664000  0.00442033  0.62371316  1
  Ba  Ba34  1  0.83109993  0.32959923  0.37203915  1
  Ba  Ba35  1  0.16782736  0.32397691  0.87416948  1
  La  La36  1  0.00271640  0.15644584  0.88174849  1
  La  La37  1  0.17647826  0.31809209  0.37282053  1
  La  La38  1  0.66740832  0.18163071  0.62159465  1
  La  La39  1  0.65827383  0.82294456  0.37225138  1
  La  La40  1  0.83542547  0.32559380  0.88085303  1
  La  La41  1  0.82901036  0.01552586  0.62045517  1
  La  La42  1  0.65793436  0.81599767  0.87352196  1
  La  La43  1  0.84020382  0.98608727  0.87819879  1
  La  La44  1  0.49947827  0.98601399  0.87112688  1
  La  La45  1  0.16509662  0.34704398  0.62714459  1
  La  La46  1  0.17197218  0.65540772  0.87589500  1
  La  La47  1  0.50074742  0.99530120  0.38033021  1
  La  La48  1  0.34517338  0.18494910  0.12618279  1
  La  La49  1  0.16629030  0.67969802  0.62670566  1
  La  La50  1  0.17400328  0.65356781  0.37184627  1
  La  La51  1  1.00723395  0.18202580  0.62086116  1
  La  La52  1  0.82764633  0.01968147  0.12596129  1
  La  La53  1  0.82555173  0.68060409  0.61910345  1
  La  La54  1  0.48972392  0.68320482  0.12177953  1
  La  La55  1  0.50339405  0.65049022  0.37302855  1
  La  La56  1  0.33546484  0.84649802  0.12107295  1
  La  La57  1  -0.00180697  0.81694484  0.87724167  1
  La  La58  1  1.00441740  0.83901747  0.62752244  1
  La  La59  1  0.33864698  0.51865018  0.62611664  1
  La  La60  1  0.67155908  0.84926529  0.12420904  1
  La  La61  1  0.16704719  0.00743051  0.12335405  1
  La  La62  1  0.00418400  0.49146507  0.88734155  1
  La  La63  1  0.83772629  0.66852418  0.13395723  1
  La  La64  1  0.66440042  0.15450883  0.87394140  1
  La  La65  1  0.67402386  0.51633432  0.62846636  1
  La  La66  1  0.32836208  0.14876245  0.87262765  1
  La  La67  1  0.49595727  0.35112275  0.12499321  1
  La  La68  1  0.83026407  0.35067796  0.62331611  1
  La  La69  1  0.33311014  0.15497416  0.38096582  1
  La  La70  1  0.50387769  0.65008083  0.87720674  1
  La  La71  1  0.83965574  0.98987696  0.37103371  1
  In  In72  1  0.66362811  0.66846516  0.49685847  1
  In  In73  1  0.66868096  0.33356866  0.75230131  1
  In  In74  1  0.49961759  0.16594614  0.75389346  1
  In  In75  1  0.50010758  0.49731259  0.50186200  1
  In  In76  1  0.49767050  0.83483134  0.49894056  1
  In  In77  1  -0.00196087  0.66247551  0.75208983  1
  In  In78  1  -0.00251383  0.33159952  0.75217057  1
  In  In79  1  0.16844186  0.83306780  0.50052220  1
  In  In80  1  0.00279079  0.66773628  0.25104722  1
  In  In81  1  -0.00361344  -0.00111073  0.49945726  1
  In  In82  1  0.16818298  0.50167523  0.74759107  1
  In  In83  1  0.83236457  0.50024473  0.49724328  1
  In  In84  1  0.49990171  0.49636064  0.74884775  1
  In  In85  1  -0.00323349  0.00042874  0.75078317  1
  In  In86  1  0.00030300  -0.00361937  0.24563806  1
  In  In87  1  0.00571713  0.33416492  0.25267483  1
  In  In88  1  0.00136080  0.33359682  0.49939278  1
  In  In89  1  0.00088590  0.66627638  0.50239822  1
  In  In90  1  0.17276436  0.16487539  0.00270991  1
  In  In91  1  0.49972956  0.83558276  0.24639497  1
  In  In92  1  0.83573597  0.16834918  0.75016564  1
  In  In93  1  -0.00055206  0.33169422  0.00114472  1
  In  In94  1  0.33356113  0.33203218  0.50299821  1
  In  In95  1  0.83534481  0.83473618  0.75345680  1
  In  In96  1  0.33534950  0.00209629  0.24764530  1
  In  In97  1  0.16901261  0.49858229  0.50161970  1
  In  In98  1  0.66526113  0.66760898  0.00630149  1
  In  In99  1  0.49877109  0.16699027  -0.00143577  1
  In  In100  1  -0.00066725  0.66472691  0.00036227  1
  In  In101  1  0.83690105  0.16891194  0.50012039  1
  In  In102  1  0.83221883  0.83492378  0.49713563  1
  In  In103  1  0.66984456  0.00197004  0.74806478  1
  In  In104  1  0.00058836  -0.00357619  0.00146622  1
  In  In105  1  0.83171224  0.16899852  0.25021181  1
  In  In106  1  0.83204960  0.49903787  0.75658258  1
  In  In107  1  0.66757140  -0.00105508  -0.00363213  1
  Ir  Ir108  1  0.32915112  0.33080743  0.75262958  1
  Ir  Ir109  1  0.16996974  0.83211283  -0.00056279  1
  Ir  Ir110  1  0.16709764  0.83242370  0.75196415  1
  Ir  Ir111  1  0.33615646  0.00419394  0.50082792  1
  Ir  Ir112  1  0.49918206  0.83253104  -0.00349136  1
  Ir  Ir113  1  0.82812354  0.83352408  0.00114673  1
  Ir  Ir114  1  0.49874321  0.83143184  0.75539737  1
  Ir  Ir115  1  0.66969708  0.33385830  0.00326072  1
  Ir  Ir116  1  0.82758675  0.16975647  -0.00336636  1
  Ir  Ir117  1  0.17316048  0.50089739  0.24694293  1
  Ir  Ir118  1  0.33488939  0.67022581  -0.00142922  1
  Ir  Ir119  1  0.33313643  -0.00314322  -0.00060505  1
  Ir  Ir120  1  0.17693079  0.16531344  0.25274535  1
  Ir  Ir121  1  0.49768703  0.50311168  0.24618707  1
  Ir  Ir122  1  0.49809755  0.50124325  0.00307430  1
  Ir  Ir123  1  0.66820535  -0.00283069  0.25044581  1
  Ir  Ir124  1  0.33251626  -0.00178578  0.75214242  1
  Ir  Ir125  1  0.33581747  0.33285563  0.24756882  1
  Ir  Ir126  1  0.50311604  0.16401181  0.49747981  1
  Ir  Ir127  1  0.82917933  0.49930817  0.00412631  1
  Ir  Ir128  1  0.66743896  0.00331633  0.49796860  1
  Ir  Ir129  1  0.33304965  0.66696252  0.49703296  1
  Ir  Ir130  1  0.50003956  0.16735381  0.24983059  1
  Ir  Ir131  1  0.33472188  0.33495271  -0.00023662  1
  Ir  Ir132  1  0.16800491  0.16561809  0.74478097  1
  Ir  Ir133  1  0.33480355  0.66899289  0.24729413  1
  Ir  Ir134  1  0.17106532  0.83105700  0.24441501  1
  Ir  Ir135  1  0.33374639  0.66936540  0.75213711  1
  Ir  Ir136  1  0.82340698  0.83236596  0.24385686  1
  Ir  Ir137  1  0.66282238  0.32997755  0.50130347  1
  Ir  Ir138  1  0.17112823  0.16585963  0.50250550  1
  Ir  Ir139  1  0.66082527  0.33449763  0.24919541  1
  Ir  Ir140  1  0.82754783  0.50302990  0.24780453  1
  Ir  Ir141  1  0.17085602  0.50224874  0.00091980  1
  Ir  Ir142  1  0.66509868  0.66999701  0.75191272  1
  Ir  Ir143  1  0.65964538  0.66910905  0.24713708  1
  O  O144  1  0.31312772  0.32173191  0.12307165  1
  O  O145  1  0.30154537  0.32276867  0.63322521  1
  O  O146  1  0.31354659  0.67437550  0.12223154  1
  O  O147  1  0.30361073  0.66040487  0.62401456  1
  O  O148  1  0.30328658  0.99069380  0.11869975  1
  O  O149  1  0.31481331  1.00207083  0.62654858  1
  O  O150  1  0.63442660  0.33475745  0.12637954  1
  O  O151  1  0.64432335  0.31974666  0.61972163  1
  O  O152  1  0.62694231  0.66880577  0.12996778  1
  O  O153  1  0.64877654  0.66474286  0.63143503  1
  O  O154  1  0.64664117  0.98887776  0.12773218  1
  O  O155  1  0.64273911  0.99898197  0.61647146  1
  O  O156  1  0.99110578  0.33753212  0.12603058  1
  O  O157  1  0.96701043  0.31708020  0.62869973  1
  O  O158  1  0.97542894  0.66602379  0.12526609  1
  O  O159  1  0.95778559  0.66525051  0.63044567  1
  O  O160  1  0.96385904  0.99588076  0.12232838  1
  O  O161  1  0.96377653  0.97801216  0.62756093  1
  O  O162  1  0.20906214  0.15501043  0.13340937  1
  O  O163  1  0.19317629  0.15878245  0.62361614  1
  O  O164  1  0.19306914  0.49637825  0.12326124  1
  O  O165  1  0.20968863  0.48770717  0.62573870  1
  O  O166  1  0.20190969  0.82849896  0.12065576  1
  O  O167  1  0.19269056  0.82258562  0.63346243  1
  O  O168  1  0.51580134  0.16727026  0.12805634  1
  O  O169  1  0.52740356  0.16430871  0.62063817  1
  O  O170  1  0.51315747  0.49223900  0.12493212  1
  O  O171  1  0.53561794  0.50286879  0.62594754  1
  O  O172  1  0.53202314  0.82260519  0.11656038  1
  O  O173  1  0.51595522  0.83143219  0.63270259  1
  O  O174  1  0.85076843  0.15874420  0.11703675  1
  O  O175  1  0.87098650  0.14927491  0.62618272  1
  O  O176  1  0.85118969  0.50890410  0.12494797  1
  O  O177  1  0.84401289  0.49064925  0.62775256  1
  O  O178  1  0.84629621  0.81213359  0.12189535  1
  O  O179  1  0.86407328  0.81873349  0.62737816  1
  O  O180  1  0.14954147  0.17807987  0.37803163  1
  O  O181  1  0.14230600  0.16496198  0.86483314  1
  O  O182  1  0.15649810  0.51243531  0.36733060  1
  O  O183  1  0.14384081  0.51266936  0.87902808  1
  O  O184  1  0.15365071  0.83371066  0.36594614  1
  O  O185  1  0.13712296  0.83403703  0.87592861  1
  O  O186  1  0.47277131  0.15931985  0.37368248  1
  O  O187  1  0.46218330  0.17164657  0.87775694  1
  O  O188  1  0.48140567  0.50910570  0.36712818  1
  O  O189  1  0.48458335  0.51093839  0.88093305  1
  O  O190  1  0.48187197  0.85746714  0.37136953  1
  O  O191  1  0.47673035  0.84641265  0.87669299  1
  O  O192  1  0.81531226  0.17038436  0.37539182  1
  O  O193  1  0.79677600  0.18332831  0.87874732  1
  O  O194  1  0.80733356  0.50112589  0.36639265  1
  O  O195  1  0.80664200  0.49573167  0.88669247  1
  O  O196  1  0.79215568  0.84554282  0.36132813  1
  O  O197  1  0.79456197  0.84764190  0.88389271  1
  O  O198  1  0.01831511  0.00145067  0.36997880  1
  O  O199  1  0.01992757  0.02060380  0.87809829  1
  O  O200  1  0.03964347  0.33848848  0.37525074  1
  O  O201  1  0.01551711  0.35499767  0.87728902  1
  O  O202  1  0.03710105  0.66884392  0.37296760  1
  O  O203  1  0.03424145  0.67349742  0.87803451  1
  O  O204  1  0.36238476  0.00845902  0.37871874  1
  O  O205  1  0.36259816  0.00510706  0.87654951  1
  O  O206  1  0.35253380  0.33196152  0.36768281  1
  O  O207  1  0.35414575  0.33926939  0.87703210  1
  O  O208  1  0.36526703  0.66885728  0.37215438  1
  O  O209  1  0.36660825  0.66772479  0.87612323  1
  O  O210  1  0.69907602  0.00118893  0.37372396  1
  O  O211  1  0.70449719  0.01362811  0.87433027  1
  O  O212  1  0.68208449  0.33152168  0.37617608  1
  O  O213  1  0.69965235  0.33583279  0.88447559  1
  O  O214  1  0.68446660  0.68006356  0.36426177  1
  O  O215  1  0.67997208  0.67565171  0.87475784  1
  O  O216  1  0.08530119  0.08297568  0.02826617  1
  O  O217  1  0.07494645  0.09963575  0.52233901  1
  O  O218  1  0.08092259  0.43206666  0.00915559  1
  O  O219  1  0.07985646  0.42045237  0.53202877  1
  O  O220  1  0.07720480  0.76630065  0.01138046  1
  O  O221  1  0.07654316  0.75814767  0.53842097  1
  O  O222  1  0.39578422  0.09319988  0.02155174  1
  O  O223  1  0.40620439  0.09859774  0.50939119  1
  O  O224  1  0.40740094  0.42462432  0.02205779  1
  O  O225  1  0.39927832  0.43238821  0.52673752  1
  O  O226  1  0.40568937  0.76319260  0.02599726  1
  O  O227  1  0.40211871  0.75624425  0.51191429  1
  O  O228  1  0.74200770  0.09645447  0.01882801  1
  O  O229  1  0.73121671  0.09601492  0.52659147  1
  O  O230  1  0.73700119  0.42891795  0.02591292  1
  O  O231  1  0.72634977  0.42445490  0.52499216  1
  O  O232  1  0.72753828  0.77379988  0.01567887  1
  O  O233  1  0.73955639  0.76063537  0.51493593  1
  O  O234  1  0.08797110  0.24831337  0.00658078  1
  O  O235  1  0.10794697  0.25785915  0.52775056  1
  O  O236  1  0.09705791  0.58804994  0.01327839  1
  O  O237  1  0.10444980  0.59887396  0.52522077  1
  O  O238  1  0.10451477  0.92448869  0.02425002  1
  O  O239  1  0.08355136  0.91653940  0.52224120  1
  O  O240  1  0.42604645  0.26662059  0.02722058  1
  O  O241  1  0.43125582  0.25359863  0.51215810  1
  O  O242  1  0.43450384  0.60433658  0.01765051  1
  O  O243  1  0.41988249  0.59493871  0.51756220  1
  O  O244  1  0.42605138  0.92464106  0.02062495  1
  O  O245  1  0.42714102  0.93471956  0.51261861  1
  O  O246  1  0.76401833  0.26688473  0.02061516  1
  O  O247  1  0.75845058  0.26457670  0.52744178  1
  O  O248  1  0.76588275  0.59860559  0.02458763  1
  O  O249  1  0.75633942  0.59382870  0.52586969  1
  O  O250  1  0.76733142  0.92825278  0.02900694  1
  O  O251  1  0.76022677  0.93931883  0.52052490  1
  O  O252  1  0.24905912  0.08089422  0.27923963  1
  O  O253  1  0.24342820  0.07420917  0.77297433  1
  O  O254  1  0.23968350  0.40033162  0.26949714  1
  O  O255  1  0.24129600  0.40008380  0.76613663  1
  O  O256  1  0.23723613  0.73399479  0.27062989  1
  O  O257  1  0.23360949  0.73611123  0.77374786  1
  O  O258  1  0.56852706  0.06400586  0.27395530  1
  O  O259  1  0.56979172  0.06715139  0.78206200  1
  O  O260  1  0.56389695  0.40453104  0.25866932  1
  O  O261  1  0.56993270  0.40206382  0.76900718  1
  O  O262  1  0.56648919  0.73508213  0.27322142  1
  O  O263  1  0.56770964  0.73814061  0.78073262  1
  O  O264  1  0.89898724  0.06583398  0.26084834  1
  O  O265  1  0.89247480  0.06298183  0.77703353  1
  O  O266  1  0.90557451  0.42018191  0.26333099  1
  O  O267  1  0.88916718  0.39094139  0.76697123  1
  O  O268  1  0.89355918  0.74168050  0.25815792  1
  O  O269  1  0.91397713  0.74568658  0.78644970  1
  O  O270  1  0.26940040  0.23719168  0.27601526  1
  O  O271  1  0.26470374  0.23233402  0.77604950  1
  O  O272  1  0.26284071  0.57905837  0.26871775  1
  O  O273  1  0.26143524  0.58335860  0.76980011  1
  O  O274  1  0.25943393  0.90262330  0.25534648  1
  O  O275  1  0.25869605  0.90623719  0.76676107  1
  O  O276  1  0.59206332  0.23935653  0.26507198  1
  O  O277  1  0.60394910  0.22912368  0.77119072  1
  O  O278  1  0.58805903  0.57860363  0.27389631  1
  O  O279  1  0.59201420  0.58313853  0.76951814  1
  O  O280  1  0.60604815  0.90077630  0.26492691  1
  O  O281  1  0.59217207  0.90063363  0.77796008  1
  O  O282  1  0.92492026  0.24562108  0.25968074  1
  O  O283  1  0.94216460  0.22461161  0.78206426  1
  O  O284  1  0.91376133  0.57785122  0.25903288  1
  O  O285  1  0.93574252  0.55957765  0.78424705  1
  O  O286  1  0.91268223  0.90085446  0.26400805  1
  O  O287  1  0.93039092  0.90383782  0.79265819  1
  O  O288  1  0.26337281  0.23243506  0.47591293  1
  O  O289  1  0.27245175  0.23749559  0.98142408  1
  O  O290  1  0.26549344  0.57764206  0.48158676  1
  O  O291  1  0.25939048  0.58226935  0.97564464  1
  O  O292  1  0.26322959  0.91518111  0.48786082  1
  O  O293  1  0.26683997  0.89853079  0.98757244  1
  O  O294  1  0.59936055  0.22892436  0.48695694  1
  O  O295  1  0.60438205  0.23867555  0.97743438  1
  O  O296  1  0.58394449  0.58105692  0.47678295  1
  O  O297  1  0.58467552  0.57645694  0.98612749  1
  O  O298  1  0.60081355  0.91134251  0.47195747  1
  O  O299  1  0.59429876  0.89928532  0.97301128  1
  O  O300  1  0.94282103  0.22870828  0.49134439  1
  O  O301  1  0.91919082  0.23755976  0.97085056  1
  O  O302  1  0.92757035  0.57187992  0.48101875  1
  O  O303  1  0.92535903  0.56420467  0.98129173  1
  O  O304  1  0.91544362  0.91118728  0.46336326  1
  O  O305  1  0.92407184  0.89872081  0.97525056  1
  O  O306  1  0.24533374  0.07701429  0.47578609  1
  O  O307  1  0.24697072  0.06904260  0.97687280  1
  O  O308  1  0.23337719  0.39558364  0.47566044  1
  O  O309  1  0.24253237  0.40914488  0.98165464  1
  O  O310  1  0.23849503  0.73250241  0.47711466  1
  O  O311  1  0.23641006  0.73530224  0.97392460  1
  O  O312  1  0.56932793  0.06766010  0.47584412  1
  O  O313  1  0.57032880  0.06990772  0.97159560  1
  O  O314  1  0.57129985  0.39710883  0.48388985  1
  O  O315  1  0.56803906  0.40184018  0.99367920  1
  O  O316  1  0.57072333  0.74429531  0.46688031  1
  O  O317  1  0.56349319  0.73946050  0.97228285  1
  O  O318  1  0.89207619  0.06101535  0.48246112  1
  O  O319  1  0.89757597  0.07806927  0.97468060  1
  O  O320  1  0.89851106  0.39922886  0.49285924  1
  O  O321  1  0.89813853  0.40787853  0.98291671  1
  O  O322  1  0.90835553  0.74231023  0.47926640  1
  O  O323  1  0.90049832  0.74486093  0.98219053  1
  O  O324  1  0.10509965  0.25092373  0.23575965  1
  O  O325  1  0.10258618  0.25710326  0.72056478  1
  O  O326  1  0.10020450  0.58840623  0.23410842  1
  O  O327  1  0.10193857  0.60190426  0.72427271  1
  O  O328  1  0.10287840  0.92361002  0.21958401  1
  O  O329  1  0.09226799  0.91813024  0.73113663  1
  O  O330  1  0.43089498  0.26281347  0.22173838  1
  O  O331  1  0.41977267  0.26251605  0.73792023  1
  O  O332  1  0.43568077  0.60533280  0.22898964  1
  O  O333  1  0.41936921  0.59190785  0.73325165  1
  O  O334  1  0.42133989  0.92316935  0.21998424  1
  O  O335  1  0.43121127  0.92934387  0.74230423  1
  O  O336  1  0.74926782  0.26325727  0.23442219  1
  O  O337  1  0.77077782  0.26989612  0.72462279  1
  O  O338  1  0.75627077  0.60174976  0.22501856  1
  O  O339  1  0.75984524  0.60459966  0.72718350  1
  O  O340  1  0.76127079  0.93023185  0.21832787  1
  O  O341  1  0.76890926  0.93454660  0.72454627  1
  O  O342  1  0.09227268  0.08789012  0.22711945  1
  O  O343  1  0.07205330  0.10030630  0.72417635  1
  O  O344  1  0.08723269  0.42903454  0.23550520  1
  O  O345  1  0.07912727  0.42114251  0.72910977  1
  O  O346  1  0.08106575  0.76349044  0.23050116  1
  O  O347  1  0.07595256  0.76579656  0.73003434  1
  O  O348  1  0.40526466  0.10360643  0.22975296  1
  O  O349  1  0.40326258  0.08723874  0.74346182  1
  O  O350  1  0.40789415  0.42398944  0.22179224  1
  O  O351  1  0.39422614  0.42706543  0.72655379  1
  O  O352  1  0.40264534  0.76001721  0.22065868  1
  O  O353  1  0.40700756  0.75804265  0.73414368  1
  O  O354  1  0.73751388  0.08513777  0.22767408  1
  O  O355  1  0.73035401  0.10624773  0.72314395  1
  O  O356  1  0.73333565  0.42703549  0.23439083  1
  O  O357  1  0.72737209  0.43802012  0.72795764  1
  O  O358  1  0.72614760  0.76384008  0.22052019  1
  O  O359  1  0.73521276  0.76028860  0.73960971  1
