# generated using pymatgen
data_BaLaInIrO6
_symmetry_space_group_name_H-M   'P 1'
_cell_length_a   17.51655916
_cell_length_b   17.56194231
_cell_length_c   16.47937513
_cell_angle_alpha   90.01190007
_cell_angle_beta   89.99233060
_cell_angle_gamma   90.00757533
_symmetry_Int_Tables_number   1
_chemical_formula_structural   BaLaInIrO6
_chemical_formula_sum   'Ba36 La36 In36 Ir36 O216'
_cell_volume   5069.46430490
_cell_formula_units_Z   36
loop_
 _symmetry_equiv_pos_site_id
 _symmetry_equiv_pos_as_xyz
  1  'x, y, z'
loop_
 _atom_site_type_symbol
 _atom_site_label
 _atom_site_symmetry_multiplicity
 _atom_site_fract_x
 _atom_site_fract_y
 _atom_site_fract_z
 _atom_site_occupancy
  Ba  Ba0  1  0.16877087  0.99366957  0.37956673  1
  Ba  Ba1  1  0.66517185  0.50957823  0.62465690  1
  Ba  Ba2  1  0.50192347  0.32509261  0.37371304  1
  Ba  Ba3  1  0.33422532  0.15793997  0.37667276  1
  Ba  Ba4  1  0.83134731  0.33973579  0.62447109  1
  Ba  Ba5  1  -0.00425450  0.83063168  0.37771437  1
  Ba  Ba6  1  0.17314948  0.32475845  0.37463899  1
  Ba  Ba7  1  0.66713191  0.50980762  0.12732892  1
  Ba  Ba8  1  0.83367563  0.00902054  0.12375905  1
  Ba  Ba9  1  -0.00170164  0.16048767  0.37807078  1
  Ba  Ba10  1  0.49865933  0.67477182  0.12522204  1
  Ba  Ba11  1  0.16942498  0.32309280  0.87667369  1
  Ba  Ba12  1  0.33532779  0.17662352  0.62356739  1
  Ba  Ba13  1  -0.00212593  0.82788730  0.87285160  1
  Ba  Ba14  1  0.49683544  0.65949802  0.37224993  1
  Ba  Ba15  1  0.50254733  0.34525656  0.12406607  1
  Ba  Ba16  1  0.83294306  0.32310973  0.37241332  1
  Ba  Ba17  1  0.66963376  0.17330515  0.62473419  1
  Ba  Ba18  1  -0.00189128  0.48990911  0.87635932  1
  Ba  Ba19  1  0.16447130  0.67760545  0.12392043  1
  Ba  Ba20  1  0.50498765  0.99372717  0.87305409  1
  Ba  Ba21  1  0.66306078  0.82404798  0.37760746  1
  Ba  Ba22  1  0.50143464  0.32641504  0.87447334  1
  Ba  Ba23  1  0.83304470  0.99605135  0.37499359  1
  Ba  Ba24  1  0.65897784  0.48932005  0.37533827  1
  Ba  Ba25  1  0.33131396  0.82752452  0.37663523  1
  Ba  Ba26  1  1.00185216  0.17536571  0.62476016  1
  Ba  Ba27  1  0.50210304  0.98632836  0.37759376  1
  Ba  Ba28  1  0.33100577  0.49464591  0.37195795  1
  Ba  Ba29  1  0.33492412  0.51127908  0.61945224  1
  Ba  Ba30  1  -0.00052148  0.49189346  0.37251103  1
  Ba  Ba31  1  0.50449053  0.00712120  0.12852791  1
  Ba  Ba32  1  0.16511111  0.67286735  0.62387264  1
  Ba  Ba33  1  0.66629031  0.49049613  0.87627016  1
  Ba  Ba34  1  0.83269229  0.98836246  0.87147890  1
  Ba  Ba35  1  0.83083214  0.01420208  0.62227585  1
  La  La36  1  -0.00380257  0.14514773  0.87380405  1
  La  La37  1  0.16615107  0.01353909  0.12641842  1
  La  La38  1  1.00133916  0.50707138  0.61961822  1
  La  La39  1  0.32391068  0.81956378  0.87506751  1
  La  La40  1  0.83135208  0.67577499  0.62470896  1
  La  La41  1  1.00639536  0.18155303  0.12636782  1
  La  La42  1  0.49023949  0.67877064  0.61732237  1
  La  La43  1  0.66512464  0.84766371  0.62193807  1
  La  La44  1  0.16844294  0.98827287  0.87202759  1
  La  La45  1  1.00169486  0.85068535  0.12463673  1
  La  La46  1  0.16002256  0.35199758  0.62255985  1
  La  La47  1  0.33798034  0.85064931  0.62175870  1
  La  La48  1  0.33854553  0.84829696  0.12864039  1
  La  La49  1  0.66370312  0.14905031  0.37638622  1
  La  La50  1  0.16796138  0.64434510  0.87391241  1
  La  La51  1  0.33908087  0.51393035  0.12427642  1
  La  La52  1  0.66924827  0.84412794  0.13228281  1
  La  La53  1  0.83247094  0.34610928  0.12478432  1
  La  La54  1  0.50133610  0.35373210  0.61903202  1
  La  La55  1  0.83292788  0.65556029  0.86940566  1
  La  La56  1  0.66986992  0.15542968  0.87136591  1
  La  La57  1  0.33243623  0.14892325  0.87492479  1
  La  La58  1  0.17555105  0.65607961  0.37277329  1
  La  La59  1  0.16327550  0.01090253  0.62304411  1
  La  La60  1  0.82836556  0.68090298  0.12963612  1
  La  La61  1  0.34193722  0.17845848  0.12702114  1
  La  La62  1  0.83246591  0.64967108  0.37700739  1
  La  La63  1  0.49949165  0.01650664  0.62276727  1
  La  La64  1  0.67409179  0.17450562  0.12459504  1
  La  La65  1  0.66141893  0.82149440  0.87753722  1
  La  La66  1  0.50161556  0.65341821  0.87585642  1
  La  La67  1  0.84004216  0.31273314  0.87608969  1
  La  La68  1  1.00325065  0.51667132  0.12019224  1
  La  La69  1  0.99676301  0.85154611  0.62729912  1
  La  La70  1  0.16473731  0.35135296  0.12532401  1
  La  La71  1  0.32659198  0.48398005  0.87516447  1
  In  In72  1  -0.00042635  0.66885930  0.74940551  1
  In  In73  1  0.16672379  0.16545027  -0.00157767  1
  In  In74  1  0.66749711  0.33030788  0.24903157  1
  In  In75  1  0.83325490  0.49886969  0.75014547  1
  In  In76  1  0.66806816  -0.00098495  -0.00033602  1
  In  In77  1  0.32957275  0.66905043  -0.00344879  1
  In  In78  1  0.83581021  0.50103870  0.00263882  1
  In  In79  1  0.67044713  0.33190676  -0.00092085  1
  In  In80  1  -0.00236782  0.00141623  0.50071109  1
  In  In81  1  0.66776882  0.33239139  0.75017497  1
  In  In82  1  0.00001743  0.67219247  0.25325930  1
  In  In83  1  0.16856321  0.16964405  0.75169929  1
  In  In84  1  0.16549714  0.50283279  0.49760075  1
  In  In85  1  0.49634910  0.50261723  0.75123980  1
  In  In86  1  0.33389970  0.32968695  -0.00023891  1
  In  In87  1  0.33531396  0.33393633  0.50055150  1
  In  In88  1  0.49646585  0.83444973  0.75338265  1
  In  In89  1  0.49882257  0.17133342  0.74842621  1
  In  In90  1  0.33422205  0.33335791  0.24723137  1
  In  In91  1  0.83646809  0.49949097  0.24994257  1
  In  In92  1  0.50185662  0.16624457  0.00016217  1
  In  In93  1  0.16581153  0.83266840  0.50302643  1
  In  In94  1  0.33197271  -0.00241424  0.00018616  1
  In  In95  1  -0.00299995  0.33442700  0.49898523  1
  In  In96  1  0.66618646  0.66974244  0.00245304  1
  In  In97  1  0.00060539  0.33279777  0.75267081  1
  In  In98  1  0.00213418  0.00286112  0.24951733  1
  In  In99  1  0.83256331  0.83289560  -0.00127193  1
  In  In100  1  0.16875487  0.16869138  0.50165210  1
  In  In101  1  -0.00173183  0.67096836  0.49994157  1
  In  In102  1  0.66584715  0.66791488  0.25338274  1
  In  In103  1  0.33087583  0.67116880  0.24813787  1
  In  In104  1  0.66322304  0.66973522  0.74859772  1
  In  In105  1  -0.00100114  0.67128799  -0.00103960  1
  In  In106  1  0.16659258  0.83057087  0.74873975  1
  In  In107  1  0.33333804  0.00136251  0.25152532  1
  Ir  Ir108  1  0.50187658  0.50367834  0.49737128  1
  Ir  Ir109  1  0.17093723  0.50076699  0.75220817  1
  Ir  Ir110  1  0.16375714  0.49982900  0.24278209  1
  Ir  Ir111  1  0.66502640  0.33059028  0.49873364  1
  Ir  Ir112  1  0.50532652  0.16529730  0.49853902  1
  Ir  Ir113  1  0.49772815  0.50095717  0.24716057  1
  Ir  Ir114  1  0.00355802  -0.00012795  0.00133404  1
  Ir  Ir115  1  0.50642382  0.16336463  0.25165494  1
  Ir  Ir116  1  0.00269318  0.32975922  0.24418952  1
  Ir  Ir117  1  0.33784434  -0.00172056  0.50511963  1
  Ir  Ir118  1  0.82712479  0.16786561  0.49724038  1
  Ir  Ir119  1  0.82714870  0.83030323  0.50052446  1
  Ir  Ir120  1  0.66327289  0.66791577  0.50353769  1
  Ir  Ir121  1  0.16677802  0.83488290  0.24518591  1
  Ir  Ir122  1  0.66870970  -0.00231989  0.74770104  1
  Ir  Ir123  1  0.16706312  0.49726961  0.00032864  1
  Ir  Ir124  1  0.33297349  0.33612616  0.74910419  1
  Ir  Ir125  1  0.84257840  0.16527374  0.00229351  1
  Ir  Ir126  1  0.66541566  -0.00302067  0.50093520  1
  Ir  Ir127  1  0.16630950  0.83578054  0.00056183  1
  Ir  Ir128  1  0.50211198  0.83149295  0.50212417  1
  Ir  Ir129  1  0.33510343  -0.00158141  0.74985608  1
  Ir  Ir130  1  0.83501464  0.16223871  0.75288818  1
  Ir  Ir131  1  0.83305902  0.83354666  0.25411202  1
  Ir  Ir132  1  0.82941726  0.50111916  0.49941154  1
  Ir  Ir133  1  0.16966724  0.16626434  0.24480813  1
  Ir  Ir134  1  0.33383999  0.66981516  0.74913600  1
  Ir  Ir135  1  0.66822042  -0.00026795  0.25143374  1
  Ir  Ir136  1  0.83665166  0.16632566  0.24565691  1
  Ir  Ir137  1  0.49494833  0.83358793  0.00041922  1
  Ir  Ir138  1  0.33226269  0.66984621  0.50047912  1
  Ir  Ir139  1  0.49457499  0.50310314  0.00098711  1
  Ir  Ir140  1  0.82638686  0.83400585  0.74402316  1
  Ir  Ir141  1  0.50177433  0.83568169  0.24781833  1
  Ir  Ir142  1  0.00147508  0.32920857  0.00356931  1
  Ir  Ir143  1  -0.00059966  -0.00129933  0.75093778  1
  O  O144  1  0.30041292  0.31717470  0.12420113  1
  O  O145  1  0.30102962  0.33314780  0.63258295  1
  O  O146  1  0.31431688  0.65431306  0.12218930  1
  O  O147  1  0.31355352  0.66603095  0.62506168  1
  O  O148  1  0.30186877  0.98666912  0.12551350  1
  O  O149  1  0.30457464  0.99057834  0.62941010  1
  O  O150  1  0.64891627  0.30886314  0.12377269  1
  O  O151  1  0.63684036  0.32525047  0.61770462  1
  O  O152  1  0.64712426  0.67374986  0.12772143  1
  O  O153  1  0.62771986  0.66901782  0.62120136  1
  O  O154  1  0.65346639  0.98989729  0.13094353  1
  O  O155  1  0.63743365  0.98776279  0.62397994  1
  O  O156  1  0.97100402  0.32117692  0.12298908  1
  O  O157  1  0.98077051  0.34265025  0.62711587  1
  O  O158  1  0.96872037  0.66434055  0.12733708  1
  O  O159  1  0.96695760  0.64874825  0.62479406  1
  O  O160  1  0.98399011  0.99031496  0.12140023  1
  O  O161  1  0.97901176  0.99346464  0.63136508  1
  O  O162  1  0.20102289  0.15409687  0.12508917  1
  O  O163  1  0.18687713  0.14444684  0.63020084  1
  O  O164  1  0.19810787  0.49278003  0.12100262  1
  O  O165  1  0.18632413  0.49610501  0.63289752  1
  O  O166  1  0.19983783  0.83004387  0.12203255  1
  O  O167  1  0.20573995  0.82904673  0.62810989  1
  O  O168  1  0.53630090  0.16147208  0.13353999  1
  O  O169  1  0.52010524  0.15560026  0.61965151  1
  O  O170  1  0.51783062  0.50922202  0.12402018  1
  O  O171  1  0.51355851  0.50327423  0.61899479  1
  O  O172  1  0.53059721  0.83340270  0.12377084  1
  O  O173  1  0.52620649  0.81976000  0.62295521  1
  O  O174  1  0.87223128  0.16220704  0.12408504  1
  O  O175  1  0.85290660  0.16703150  0.62802939  1
  O  O176  1  0.87274866  0.48438800  0.12676011  1
  O  O177  1  0.86334384  0.50066235  0.61766954  1
  O  O178  1  0.86285979  0.81896775  0.13305740  1
  O  O179  1  0.85839112  0.81724794  0.62198884  1
  O  O180  1  0.14874829  0.16767374  0.36503147  1
  O  O181  1  0.13116101  0.16698624  0.87441193  1
  O  O182  1  0.14830409  0.51169530  0.36424264  1
  O  O183  1  0.14801250  0.50481653  0.87634419  1
  O  O184  1  0.14726631  0.83902509  0.36677305  1
  O  O185  1  0.14658731  0.85038231  0.87896803  1
  O  O186  1  0.48372179  0.16515190  0.37590211  1
  O  O187  1  0.46514202  0.16723117  0.87187413  1
  O  O188  1  0.47996115  0.49508762  0.37058705  1
  O  O189  1  0.46413764  0.50575920  0.88116986  1
  O  O190  1  0.47924320  0.83448323  0.37408685  1
  O  O191  1  0.45990100  0.84061384  0.88179923  1
  O  O192  1  0.80098261  0.16776371  0.37064625  1
  O  O193  1  0.80878806  0.16921387  0.87866920  1
  O  O194  1  0.80645967  0.50831171  0.38022052  1
  O  O195  1  0.81191210  0.52044524  0.87843703  1
  O  O196  1  0.80890768  0.84542852  0.37738782  1
  O  O197  1  0.79822689  0.83689025  0.86429401  1
  O  O198  1  0.01518737  -0.00565680  0.37435505  1
  O  O199  1  0.03106112  0.00494098  0.87740665  1
  O  O200  1  0.02227752  0.33047169  0.36476673  1
  O  O201  1  0.02217699  0.33056097  0.88513143  1
  O  O202  1  0.04016731  0.67500293  0.37559086  1
  O  O203  1  0.03600771  0.67687325  0.87523796  1
  O  O204  1  0.35217764  -0.00092109  0.38232142  1
  O  O205  1  0.35662008  0.00662835  0.87024825  1
  O  O206  1  0.34997541  0.33729962  0.37194800  1
  O  O207  1  0.35290722  0.34750138  0.87074298  1
  O  O208  1  0.34509931  0.66919199  0.37878766  1
  O  O209  1  0.36344648  0.67996167  0.86923768  1
  O  O210  1  0.68555634  0.00899370  0.37636114  1
  O  O211  1  0.68417708  0.01183663  0.86807697  1
  O  O212  1  0.68151794  0.33364504  0.37872872  1
  O  O213  1  0.70447770  0.33643345  0.87619679  1
  O  O214  1  0.69553006  0.66796033  0.38351652  1
  O  O215  1  0.69832898  0.68461239  0.87629984  1
  O  O216  1  0.06742930  0.09401296  0.02592788  1
  O  O217  1  0.07963133  0.08838845  0.51710022  1
  O  O218  1  0.06951808  0.42676405  0.02965320  1
  O  O219  1  0.07077993  0.42972010  0.52216795  1
  O  O220  1  0.06951057  0.77471399  0.02536585  1
  O  O221  1  0.06232705  0.77009641  0.52998300  1
  O  O222  1  0.39770161  0.09787360  0.02224789  1
  O  O223  1  0.41521796  0.08704056  0.52446320  1
  O  O224  1  0.40030525  0.43562563  0.02217437  1
  O  O225  1  0.41784781  0.42620726  0.51860901  1
  O  O226  1  0.39896577  0.76987714  0.02179274  1
  O  O227  1  0.40531670  0.76438260  0.52659867  1
  O  O228  1  0.74418267  0.10434915  0.02014291  1
  O  O229  1  0.73153942  0.09473392  0.50785350  1
  O  O230  1  0.74714196  0.42136155  0.02988503  1
  O  O231  1  0.73501499  0.42402993  0.51932827  1
  O  O232  1  0.72967422  0.77284611  0.02542130  1
  O  O233  1  0.73342145  0.75909104  0.53007155  1
  O  O234  1  0.09716442  0.26537120  0.03194608  1
  O  O235  1  0.09846874  0.26733715  0.52317979  1
  O  O236  1  0.09857547  0.58897837  0.01518118  1
  O  O237  1  0.08286389  0.58694791  0.52314235  1
  O  O238  1  0.10278227  0.93440193  0.02490494  1
  O  O239  1  0.09404203  0.92737832  0.53161116  1
  O  O240  1  0.42675375  0.25731149  0.02600270  1
  O  O241  1  0.44152264  0.26066430  0.52133456  1
  O  O242  1  0.42318637  0.59126750  0.01363620  1
  O  O243  1  0.43264532  0.60200153  0.51679858  1
  O  O244  1  0.42626553  0.92080358  0.02727138  1
  O  O245  1  0.43379967  0.92654558  0.53030975  1
  O  O246  1  0.78000039  0.25882867  0.02238614  1
  O  O247  1  0.75644290  0.26010077  0.51456732  1
  O  O248  1  0.76855919  0.60376838  0.02746192  1
  O  O249  1  0.76040185  0.60065978  0.52471035  1
  O  O250  1  0.76079273  0.92749333  0.01468464  1
  O  O251  1  0.75329572  0.92067491  0.52676019  1
  O  O252  1  0.23302985  0.07179952  0.26125522  1
  O  O253  1  0.24279134  0.06617464  0.77828767  1
  O  O254  1  0.23382656  0.41086916  0.25535795  1
  O  O255  1  0.23923691  0.40710174  0.77113877  1
  O  O256  1  0.22864511  0.73846318  0.26858818  1
  O  O257  1  0.23784008  0.73185892  0.78096396  1
  O  O258  1  0.57847952  0.07316710  0.27645300  1
  O  O259  1  0.57842972  0.06810385  0.75659650  1
  O  O260  1  0.57258403  0.41308078  0.25587738  1
  O  O261  1  0.56504304  0.40298484  0.75219498  1
  O  O262  1  0.57252295  0.74864712  0.26485218  1
  O  O263  1  0.56867595  0.74339781  0.78650831  1
  O  O264  1  0.90632580  0.07861019  0.26438509  1
  O  O265  1  0.90942811  0.07283380  0.77299826  1
  O  O266  1  0.91384571  0.39741241  0.26229961  1
  O  O267  1  0.90084350  0.39744876  0.78059621  1
  O  O268  1  0.89481067  0.73983154  0.28022636  1
  O  O269  1  0.88924482  0.73946390  0.76504009  1
  O  O270  1  0.26018447  0.23238415  0.26007101  1
  O  O271  1  0.27538657  0.23635363  0.77498882  1
  O  O272  1  0.24881011  0.57589339  0.26125908  1
  O  O273  1  0.26788054  0.57110774  0.77902675  1
  O  O274  1  0.25986390  0.89895002  0.25888875  1
  O  O275  1  0.26820814  0.90602068  0.77496893  1
  O  O276  1  0.60059574  0.22793909  0.27235823  1
  O  O277  1  0.60095607  0.23196689  0.77585759  1
  O  O278  1  0.58509078  0.57432770  0.26557636  1
  O  O279  1  0.58571589  0.57999604  0.77910493  1
  O  O280  1  0.59900507  0.90442628  0.26420679  1
  O  O281  1  0.60343720  0.90232869  0.76788294  1
  O  O282  1  0.93678845  0.23218165  0.25855193  1
  O  O283  1  0.92841981  0.22880070  0.77874871  1
  O  O284  1  0.92264896  0.58065030  0.27649356  1
  O  O285  1  0.92384931  0.57866471  0.77373765  1
  O  O286  1  0.92448792  0.90251713  0.25701320  1
  O  O287  1  0.92544753  0.90040350  0.75836403  1
  O  O288  1  0.26504343  0.23736788  0.48818526  1
  O  O289  1  0.26878382  0.22712028  0.97230768  1
  O  O290  1  0.25709720  0.58405365  0.48066764  1
  O  O291  1  0.25939515  0.56639495  0.97364975  1
  O  O292  1  0.26843703  0.90799655  0.49391799  1
  O  O293  1  0.26378521  0.89477954  0.97732226  1
  O  O294  1  0.59963633  0.23252893  0.47430871  1
  O  O295  1  0.60411990  0.23236199  0.97312668  1
  O  O296  1  0.59294369  0.57804765  0.48025636  1
  O  O297  1  0.58170227  0.57855399  0.97636350  1
  O  O298  1  0.59858304  0.89938710  0.49262514  1
  O  O299  1  0.59207339  0.89638696  0.97848742  1
  O  O300  1  0.91710025  0.23946902  0.48671806  1
  O  O301  1  0.94211986  0.22866499  0.97992631  1
  O  O302  1  0.91343763  0.57622969  0.47568501  1
  O  O303  1  0.93890456  0.56585992  0.99442551  1
  O  O304  1  0.91897436  0.90113052  0.49699132  1
  O  O305  1  0.93525765  0.90608442  0.99126916  1
  O  O306  1  0.24812916  0.06640420  0.49276059  1
  O  O307  1  0.22831262  0.05969657  0.97552969  1
  O  O308  1  0.24032151  0.41043496  0.49349982  1
  O  O309  1  0.23722365  0.40719023  0.98770680  1
  O  O310  1  0.23583680  0.73428806  0.47759246  1
  O  O311  1  0.22815885  0.73888065  0.97008759  1
  O  O312  1  0.57395915  0.06892062  0.48352578  1
  O  O313  1  0.57819719  0.07423422  0.98326848  1
  O  O314  1  0.56965010  0.40208650  0.49017350  1
  O  O315  1  0.56924131  0.41520820  0.98673673  1
  O  O316  1  0.56845185  0.73558108  0.48248179  1
  O  O317  1  0.56084429  0.74286948  0.97049021  1
  O  O318  1  0.90093564  0.08067262  0.48727475  1
  O  O319  1  0.91233642  0.07110283  0.97532971  1
  O  O320  1  0.90110503  0.41439114  0.47958970  1
  O  O321  1  0.90395002  0.38799479  0.98222680  1
  O  O322  1  0.89032179  0.73644269  0.47817106  1
  O  O323  1  0.89478289  0.73256990  0.97275667  1
  O  O324  1  0.09992610  0.26163293  0.21724288  1
  O  O325  1  0.10289253  0.26976565  0.72542998  1
  O  O326  1  0.08802826  0.58391314  0.22300290  1
  O  O327  1  0.10377899  0.59313515  0.74257363  1
  O  O328  1  0.10113675  0.92816542  0.21889155  1
  O  O329  1  0.09494568  0.93322417  0.72905533  1
  O  O330  1  0.43135261  0.24933507  0.22866457  1
  O  O331  1  0.42929895  0.27499821  0.72222794  1
  O  O332  1  0.41924236  0.58520149  0.23448750  1
  O  O333  1  0.43146944  0.61013576  0.73103011  1
  O  O334  1  0.42600623  0.92088729  0.23035074  1
  O  O335  1  0.42769160  0.93122635  0.71879855  1
  O  O336  1  0.76866970  0.25475803  0.22003317  1
  O  O337  1  0.76761833  0.25225425  0.74305580  1
  O  O338  1  0.76644920  0.60075673  0.23055417  1
  O  O339  1  0.76395665  0.60502584  0.72677925  1
  O  O340  1  0.75866599  0.92362124  0.22691142  1
  O  O341  1  0.75763048  0.92563518  0.72301255  1
  O  O342  1  0.07762697  0.09858103  0.21929083  1
  O  O343  1  0.06998000  0.08680263  0.73792992  1
  O  O344  1  0.07166880  0.42428671  0.21524722  1
  O  O345  1  0.07616871  0.43641491  0.72709342  1
  O  O346  1  0.07043076  0.77312428  0.22368010  1
  O  O347  1  0.06421811  0.76875977  0.72199465  1
  O  O348  1  0.40967042  0.09746557  0.22711637  1
  O  O349  1  0.40687979  0.08603369  0.72942659  1
  O  O350  1  0.40522114  0.43217671  0.22085954  1
  O  O351  1  0.39594451  0.43132835  0.73533762  1
  O  O352  1  0.40660639  0.76813127  0.22700879  1
  O  O353  1  0.39469121  0.76640143  0.72527246  1
  O  O354  1  0.73557600  0.10008117  0.23059478  1
  O  O355  1  0.73786814  0.09403748  0.73700500  1
  O  O356  1  0.74889294  0.41790090  0.22919887  1
  O  O357  1  0.73824540  0.42770997  0.73031968  1
  O  O358  1  0.74270074  0.76682426  0.22978166  1
  O  O359  1  0.73202602  0.77169215  0.72221900  1
