# generated using pymatgen
data_BaLaInIrO6
_symmetry_space_group_name_H-M   'P 1'
_cell_length_a   17.51774379
_cell_length_b   17.54324715
_cell_length_c   16.48657564
_cell_angle_alpha   90.02597144
_cell_angle_beta   90.03214411
_cell_angle_gamma   89.98127132
_symmetry_Int_Tables_number   1
_chemical_formula_structural   BaLaInIrO6
_chemical_formula_sum   'Ba36 La36 In36 Ir36 O216'
_cell_volume   5066.62165692
_cell_formula_units_Z   36
loop_
 _symmetry_equiv_pos_site_id
 _symmetry_equiv_pos_as_xyz
  1  'x, y, z'
loop_
 _atom_site_type_symbol
 _atom_site_label
 _atom_site_symmetry_multiplicity
 _atom_site_fract_x
 _atom_site_fract_y
 _atom_site_fract_z
 _atom_site_occupancy
  Ba  Ba0  1  0.83563233  0.98811368  0.87336794  1
  Ba  Ba1  1  0.33185325  0.50542279  0.62476254  1
  Ba  Ba2  1  0.83753601  0.66012558  0.37893603  1
  Ba  Ba3  1  0.16876554  0.32570658  0.37483990  1
  Ba  Ba4  1  0.00316258  0.82499217  0.37608641  1
  Ba  Ba5  1  0.16296357  0.00833634  0.62868545  1
  Ba  Ba6  1  0.83375364  0.00648385  0.62916102  1
  Ba  Ba7  1  0.83457474  0.67794732  0.62664044  1
  Ba  Ba8  1  0.33363104  0.17466501  0.11887052  1
  Ba  Ba9  1  0.49953826  0.99067039  0.87536861  1
  Ba  Ba10  1  0.33720353  0.83986285  0.62335446  1
  Ba  Ba11  1  0.67050491  0.83817574  0.12542796  1
  Ba  Ba12  1  0.49639535  0.99903383  0.37048577  1
  Ba  Ba13  1  -0.00602112  0.48941512  0.37607124  1
  Ba  Ba14  1  0.17151942  0.98543788  0.87050315  1
  Ba  Ba15  1  -0.00255474  0.16100596  0.37699132  1
  Ba  Ba16  1  0.16743304  0.65850912  0.37963875  1
  Ba  Ba17  1  0.83346242  0.32187388  0.37492413  1
  Ba  Ba18  1  0.83400619  0.32137481  0.87478860  1
  Ba  Ba19  1  0.50022143  0.66412976  0.37767763  1
  Ba  Ba20  1  0.67029925  0.82971716  0.37325000  1
  Ba  Ba21  1  0.49853185  0.34402967  0.62890256  1
  Ba  Ba22  1  0.66700697  0.49515068  0.87559898  1
  Ba  Ba23  1  0.32993957  0.49620747  0.37654705  1
  Ba  Ba24  1  0.83496454  0.65728618  0.87460642  1
  Ba  Ba25  1  0.66461611  0.49641605  0.37267295  1
  Ba  Ba26  1  0.50013496  0.67747260  0.12399012  1
  Ba  Ba27  1  0.50431356  0.32747556  0.37884061  1
  Ba  Ba28  1  0.33658900  0.84318241  0.12381451  1
  Ba  Ba29  1  0.66284825  0.15937667  0.37832022  1
  Ba  Ba30  1  0.82981461  0.67521099  0.12464674  1
  Ba  Ba31  1  0.16605847  0.34446380  0.12596879  1
  Ba  Ba32  1  0.50209396  0.67453506  0.62282908  1
  Ba  Ba33  1  0.66853734  0.84192098  0.61955456  1
  Ba  Ba34  1  0.16635578  0.34211198  0.62886464  1
  Ba  Ba35  1  1.00414870  0.84104799  0.62336072  1
  La  La36  1  0.83058824  0.34359677  0.62345941  1
  La  La37  1  0.66824945  0.51528054  0.12930722  1
  La  La38  1  0.17083795  0.65341029  0.87645399  1
  La  La39  1  0.66865486  0.81852822  0.87186730  1
  La  La40  1  0.32673073  0.48309048  0.87512251  1
  La  La41  1  0.33437819  0.18265904  0.62733934  1
  La  La42  1  0.50405380  0.65535261  0.86871954  1
  La  La43  1  -0.00320072  0.81763555  0.87021558  1
  La  La44  1  0.15910792  0.02341273  0.12168773  1
  La  La45  1  0.16382578  0.67856860  0.13234140  1
  La  La46  1  1.00360020  0.18664279  0.12234214  1
  La  La47  1  0.50528343  0.31774865  0.87291898  1
  La  La48  1  0.17630934  0.98844335  0.37503611  1
  La  La49  1  0.83709525  0.99018829  0.38134453  1
  La  La50  1  0.82793775  0.34560276  0.12790701  1
  La  La51  1  1.00816233  0.51619327  0.63230217  1
  La  La52  1  0.32900645  0.14935644  0.87439280  1
  La  La53  1  0.66420620  0.17487873  0.12592593  1
  La  La54  1  0.49082373  0.35362089  0.12102360  1
  La  La55  1  0.33247597  0.51787054  0.12747157  1
  La  La56  1  0.17138632  0.31508874  0.87951850  1
  La  La57  1  0.83541606  0.00957926  0.12801369  1
  La  La58  1  0.66985336  0.51220420  0.61861696  1
  La  La59  1  0.66612106  0.17686006  0.62760283  1
  La  La60  1  0.33313480  0.16431310  0.37564584  1
  La  La61  1  0.32989468  0.81352649  0.87283189  1
  La  La62  1  -0.00430280  0.14701875  0.87284047  1
  La  La63  1  0.32672725  0.81459212  0.37392304  1
  La  La64  1  1.00035809  0.51731044  0.12608726  1
  La  La65  1  0.16076459  0.67892394  0.62688358  1
  La  La66  1  0.49466424  0.00837368  0.62338131  1
  La  La67  1  -0.00707229  0.48436246  0.87760179  1
  La  La68  1  0.66276848  0.15150696  0.87355936  1
  La  La69  1  0.51150482  0.00029994  0.12307662  1
  La  La70  1  1.00706001  0.85065682  0.12309774  1
  La  La71  1  1.00224760  0.17916745  0.62607676  1
  In  In72  1  0.67116047  0.00177905  0.25159361  1
  In  In73  1  0.16825047  0.83254583  -0.00137172  1
  In  In74  1  0.66447886  0.33286433  0.00140490  1
  In  In75  1  0.66726560  0.66935119  0.25102957  1
  In  In76  1  0.66585110  -0.00184482  0.74944499  1
  In  In77  1  0.00035692  0.33278388  0.75268974  1
  In  In78  1  0.49840571  0.83810448  0.25050081  1
  In  In79  1  0.16264056  0.49927596  0.24964870  1
  In  In80  1  0.33005969  0.00368907  0.24542588  1
  In  In81  1  0.33159456  -0.00310200  -0.00136501  1
  In  In82  1  0.49739498  0.50138937  0.25032580  1
  In  In83  1  0.33489987  0.33136391  0.49980216  1
  In  In84  1  0.16937736  0.83729052  0.50189646  1
  In  In85  1  0.16624204  0.16543467  0.75063492  1
  In  In86  1  0.66987509  0.66944715  0.49858836  1
  In  In87  1  0.83375198  0.16391244  0.24857853  1
  In  In88  1  0.66788959  0.66458723  0.74875844  1
  In  In89  1  0.83525454  0.49794482  0.00099366  1
  In  In90  1  0.83523291  0.49861387  0.25150426  1
  In  In91  1  0.49745797  0.16859798  0.24721888  1
  In  In92  1  0.00342117  0.00156805  0.25322759  1
  In  In93  1  0.66451680  0.66757293  -0.00183625  1
  In  In94  1  0.49926630  0.83443509  0.75143072  1
  In  In95  1  0.66750974  0.33236760  0.50074833  1
  In  In96  1  0.16549045  0.16505812  0.50050517  1
  In  In97  1  0.49865932  0.83883686  0.49713891  1
  In  In98  1  0.83779009  0.83541356  -0.00049850  1
  In  In99  1  -0.00002391  0.66701062  0.50098914  1
  In  In100  1  0.66728105  0.33578039  0.75126596  1
  In  In101  1  0.33379517  0.33246655  0.24644736  1
  In  In102  1  0.49837246  0.16557984  -0.00213328  1
  In  In103  1  0.83288669  0.16387192  0.50403754  1
  In  In104  1  0.83511856  0.16553203  0.00055790  1
  In  In105  1  0.16492949  0.49932728  -0.00029933  1
  In  In106  1  0.16327537  0.49782857  0.50243178  1
  In  In107  1  0.33255896  0.66501665  0.50557941  1
  Ir  Ir108  1  0.00287169  0.00017927  -0.00299435  1
  Ir  Ir109  1  0.66537729  0.00385790  0.50195421  1
  Ir  Ir110  1  0.33214248  0.00484777  0.50191422  1
  Ir  Ir111  1  -0.00318422  0.33144458  0.24773942  1
  Ir  Ir112  1  0.49114866  0.50003410  -0.00550596  1
  Ir  Ir113  1  0.83754907  0.84037302  0.50039677  1
  Ir  Ir114  1  0.66182175  0.33047127  0.24362566  1
  Ir  Ir115  1  0.32831635  0.67006492  0.24404298  1
  Ir  Ir116  1  0.50218645  0.49904910  0.50491129  1
  Ir  Ir117  1  0.33025337  0.66290776  0.75635384  1
  Ir  Ir118  1  0.49896381  0.83465579  -0.00539018  1
  Ir  Ir119  1  0.33470939  0.33426954  -0.00516077  1
  Ir  Ir120  1  0.83784302  0.49616495  0.50730345  1
  Ir  Ir121  1  0.00196834  0.33308712  0.00099025  1
  Ir  Ir122  1  0.49556552  0.16551470  0.75009584  1
  Ir  Ir123  1  0.83527412  0.16489773  0.75081011  1
  Ir  Ir124  1  0.00206989  0.00167012  0.50325206  1
  Ir  Ir125  1  0.16622428  0.82976348  0.75431021  1
  Ir  Ir126  1  0.16410841  0.50244046  0.75749484  1
  Ir  Ir127  1  0.00557324  0.66877743  0.00096405  1
  Ir  Ir128  1  0.33597360  0.66424394  -0.00452013  1
  Ir  Ir129  1  0.49215946  0.49998558  0.75378698  1
  Ir  Ir130  1  0.16116506  0.16615913  0.24806200  1
  Ir  Ir131  1  0.16946807  0.83564918  0.24649387  1
  Ir  Ir132  1  0.83619950  0.83391961  0.74863924  1
  Ir  Ir133  1  0.00037829  -0.00156938  0.75029927  1
  Ir  Ir134  1  0.84480120  0.83479637  0.24936224  1
  Ir  Ir135  1  0.00458981  0.66585413  0.75663146  1
  Ir  Ir136  1  0.49848322  0.16283482  0.50785040  1
  Ir  Ir137  1  0.33338664  0.00087598  0.74562944  1
  Ir  Ir138  1  -0.00507953  0.33308710  0.50330376  1
  Ir  Ir139  1  0.00010397  0.67104512  0.24443748  1
  Ir  Ir140  1  0.33441316  0.33315334  0.75843692  1
  Ir  Ir141  1  0.16155410  0.16986672  -0.00075136  1
  Ir  Ir142  1  0.83829881  0.49804904  0.74779204  1
  Ir  Ir143  1  0.66867112  -0.00067027  -0.00146479  1
  O  O144  1  0.31266537  0.32891552  0.11253334  1
  O  O145  1  0.31488058  0.32283797  0.63688916  1
  O  O146  1  0.30078236  0.66086501  0.11730342  1
  O  O147  1  0.29652566  0.66281543  0.63893460  1
  O  O148  1  0.29302312  1.00019024  0.12109254  1
  O  O149  1  0.31163010  0.99551809  0.62459845  1
  O  O150  1  0.62728076  0.31633522  0.12480603  1
  O  O151  1  0.64660889  0.31680982  0.62955045  1
  O  O152  1  0.65075588  0.66282245  0.12248947  1
  O  O153  1  0.65518799  0.65423837  0.62494717  1
  O  O154  1  0.64404734  0.99114884  0.11609737  1
  O  O155  1  0.63375703  0.99859060  0.62227871  1
  O  O156  1  0.96777706  0.32173766  0.12318051  1
  O  O157  1  0.96944379  0.32151887  0.62415322  1
  O  O158  1  0.97760086  0.65797490  0.12001879  1
  O  O159  1  0.98298521  0.65779246  0.63689001  1
  O  O160  1  0.97497298  0.98973291  0.11708187  1
  O  O161  1  0.97947631  0.99493148  0.62653310  1
  O  O162  1  0.18414049  0.16226417  0.12432449  1
  O  O163  1  0.19674599  0.16825338  0.62725657  1
  O  O164  1  0.19535365  0.50205095  0.12207045  1
  O  O165  1  0.18200452  0.49672642  0.63967499  1
  O  O166  1  0.18780001  0.81786932  0.12650170  1
  O  O167  1  0.18695473  0.82333716  0.63417896  1
  O  O168  1  0.52608519  0.14393156  0.12014190  1
  O  O169  1  0.52916982  0.15126471  0.62950513  1
  O  O170  1  0.52650890  0.49201807  0.11114349  1
  O  O171  1  0.52913962  0.49789114  0.63180062  1
  O  O172  1  0.51905286  0.83515637  0.11312672  1
  O  O173  1  0.51384726  0.84505768  0.62584074  1
  O  O174  1  0.87221704  0.14713203  0.12291870  1
  O  O175  1  0.86852388  0.16275821  0.63298642  1
  O  O176  1  0.86904814  0.48578846  0.12471537  1
  O  O177  1  0.87107870  0.48969264  0.62834387  1
  O  O178  1  0.86900792  0.83166350  0.12788212  1
  O  O179  1  0.85664393  0.83661505  0.62470039  1
  O  O180  1  0.14685102  0.16411566  0.36857257  1
  O  O181  1  0.13314905  0.17645945  0.87921927  1
  O  O182  1  0.14253473  0.50387486  0.37474820  1
  O  O183  1  0.13002585  0.51492481  0.87600527  1
  O  O184  1  0.15205206  0.84840970  0.36736715  1
  O  O185  1  0.13446308  0.82934184  0.87292978  1
  O  O186  1  0.47170423  0.17032222  0.38713320  1
  O  O187  1  0.46411339  0.17777995  0.86799991  1
  O  O188  1  0.48500365  0.49962172  0.38284995  1
  O  O189  1  0.45865585  0.51326144  0.87379960  1
  O  O190  1  0.45919566  0.84517602  0.37376699  1
  O  O191  1  0.46409010  0.83854060  0.87791534  1
  O  O192  1  0.81552075  0.16341966  0.37587950  1
  O  O193  1  0.80149163  0.16715795  0.87129822  1
  O  O194  1  0.81940245  0.49687337  0.38489030  1
  O  O195  1  0.82065748  0.49784007  0.86926618  1
  O  O196  1  0.82197918  0.85202315  0.37422564  1
  O  O197  1  0.81064516  0.83353338  0.86846881  1
  O  O198  1  0.03452409  0.00515574  0.38260060  1
  O  O199  1  0.02565063  0.01078987  0.87279948  1
  O  O200  1  0.01882788  0.33703534  0.37386551  1
  O  O201  1  0.03413157  0.34673104  0.88157738  1
  O  O202  1  0.01612573  0.66722503  0.36645938  1
  O  O203  1  0.03584428  0.67809518  0.87965667  1
  O  O204  1  0.34339514  0.02013664  0.38197595  1
  O  O205  1  0.34935954  0.01096469  0.86541344  1
  O  O206  1  0.35394704  0.31760513  0.37308440  1
  O  O207  1  0.36791603  0.34411776  0.87715156  1
  O  O208  1  0.34631915  0.67183676  0.36507855  1
  O  O209  1  0.36772602  0.67023550  0.87608231  1
  O  O210  1  0.70080379  0.00910368  0.38181840  1
  O  O211  1  0.68860989  0.01430461  0.87889482  1
  O  O212  1  0.68255713  0.33606856  0.36722818  1
  O  O213  1  0.68568682  0.33958732  0.87485633  1
  O  O214  1  0.68843311  0.65706699  0.37552760  1
  O  O215  1  0.68429659  0.67187321  0.87291568  1
  O  O216  1  0.06665267  0.10039101  0.02455339  1
  O  O217  1  0.06430106  0.09691368  0.52857250  1
  O  O218  1  0.06175112  0.43276580  0.02393380  1
  O  O219  1  0.05860856  0.42687530  0.52849102  1
  O  O220  1  0.06874388  0.76333699  0.02451852  1
  O  O221  1  0.08413326  0.75215873  0.51700395  1
  O  O222  1  0.39934789  0.09682100  -0.00046324  1
  O  O223  1  0.39936621  0.09884636  0.52988070  1
  O  O224  1  0.39528273  0.43336062  0.02173359  1
  O  O225  1  0.41528882  0.42433656  0.51483545  1
  O  O226  1  0.40228514  0.76471800  0.01054120  1
  O  O227  1  0.40872525  0.75615476  0.51073093  1
  O  O228  1  0.73151947  0.09492000  0.02248144  1
  O  O229  1  0.72986673  0.09643768  0.53086031  1
  O  O230  1  0.73889269  0.42354228  0.03463484  1
  O  O231  1  0.74645091  0.42631573  0.53274852  1
  O  O232  1  0.74130506  0.76435064  0.00459547  1
  O  O233  1  0.75305641  0.76433602  0.51129067  1
  O  O234  1  0.09457050  0.26446442  0.01870975  1
  O  O235  1  0.08455564  0.26088804  0.52004161  1
  O  O236  1  0.10086951  0.60606059  0.02298107  1
  O  O237  1  0.09035220  0.59120268  0.53619235  1
  O  O238  1  0.09709509  0.93433189  0.02463522  1
  O  O239  1  0.09424777  0.93256484  0.51367445  1
  O  O240  1  0.43431346  0.27403585  0.01346301  1
  O  O241  1  0.42750931  0.24897805  0.53106815  1
  O  O242  1  0.42054786  0.58877672  0.02589669  1
  O  O243  1  0.42833509  0.58529434  0.51702737  1
  O  O244  1  0.43720943  0.93227397  0.02002155  1
  O  O245  1  0.42777963  0.94393154  0.52022622  1
  O  O246  1  0.76124332  0.25735181  0.03365190  1
  O  O247  1  0.76239403  0.26008366  0.52926081  1
  O  O248  1  0.75189033  0.58265312  0.01740788  1
  O  O249  1  0.76323500  0.58090692  0.52520568  1
  O  O250  1  0.76721205  0.93746062  0.02205163  1
  O  O251  1  0.76341789  0.93673018  0.51212839  1
  O  O252  1  0.21875121  0.06633727  0.26186849  1
  O  O253  1  0.24526236  0.07497789  0.76900401  1
  O  O254  1  0.24176408  0.40849192  0.26366827  1
  O  O255  1  0.23573330  0.40395933  0.78585434  1
  O  O256  1  0.23507120  0.74079356  0.26739503  1
  O  O257  1  0.23580353  0.73395346  0.78186982  1
  O  O258  1  0.57518303  0.07656856  0.26097274  1
  O  O259  1  0.57114943  0.08088390  0.77074097  1
  O  O260  1  0.57108926  0.39907321  0.25397233  1
  O  O261  1  0.56016355  0.40725496  0.77612208  1
  O  O262  1  0.57371350  0.74529656  0.26471999  1
  O  O263  1  0.57082917  0.73796588  0.77378567  1
  O  O264  1  0.89851776  0.05781860  0.26984670  1
  O  O265  1  0.90970400  0.07385562  0.77492138  1
  O  O266  1  0.90127783  0.39469585  0.25920925  1
  O  O267  1  0.90785873  0.40870172  0.76862608  1
  O  O268  1  0.90889177  0.73896389  0.26606379  1
  O  O269  1  0.91437417  0.74249395  0.77588656  1
  O  O270  1  0.25798783  0.22775822  0.26740366  1
  O  O271  1  0.26387538  0.24290967  0.78389520  1
  O  O272  1  0.25738621  0.58235566  0.25457669  1
  O  O273  1  0.25974153  0.57024891  0.78573140  1
  O  O274  1  0.26319625  0.90168033  0.27503390  1
  O  O275  1  0.26713292  0.89991021  0.77285879  1
  O  O276  1  0.59993661  0.23798731  0.26197353  1
  O  O277  1  0.58872072  0.23427170  0.77598593  1
  O  O278  1  0.59231836  0.56925060  0.24910997  1
  O  O279  1  0.58087215  0.57092304  0.77021755  1
  O  O280  1  0.59554706  0.91130480  0.26041676  1
  O  O281  1  0.60028587  0.90087354  0.77977811  1
  O  O282  1  0.93310854  0.23687133  0.25725696  1
  O  O283  1  0.92962771  0.23010823  0.77645558  1
  O  O284  1  0.93299544  0.57683120  0.25597019  1
  O  O285  1  0.93780370  0.56723837  0.77549585  1
  O  O286  1  0.94017953  0.89700936  0.25598926  1
  O  O287  1  0.93386292  0.90033128  0.77230667  1
  O  O288  1  0.26751074  0.22871717  0.48690985  1
  O  O289  1  0.26254391  0.23840037  0.96828189  1
  O  O290  1  0.25474724  0.57709160  0.48990975  1
  O  O291  1  0.26689901  0.57176590  0.97180341  1
  O  O292  1  0.26904121  0.91076206  0.47417810  1
  O  O293  1  0.26756024  0.89697969  0.97089625  1
  O  O294  1  0.59015911  0.23227458  0.49536506  1
  O  O295  1  0.59552655  0.23373211  0.96830656  1
  O  O296  1  0.59145817  0.56943968  0.49734048  1
  O  O297  1  0.57554444  0.57551904  0.97285802  1
  O  O298  1  0.59700643  0.91783076  0.47802389  1
  O  O299  1  0.60102454  0.89844045  0.97362916  1
  O  O300  1  0.92939643  0.24093753  0.49052171  1
  O  O301  1  0.94035346  0.23500078  0.97754019  1
  O  O302  1  0.92565631  0.56927635  0.49417541  1
  O  O303  1  0.94240931  0.57012668  0.98203676  1
  O  O304  1  0.92797069  0.91453149  0.47693349  1
  O  O305  1  0.94357013  0.90094109  0.97576787  1
  O  O306  1  0.23359384  0.06340015  0.48140924  1
  O  O307  1  0.23233576  0.08071004  0.98020425  1
  O  O308  1  0.23985776  0.40468228  0.49308498  1
  O  O309  1  0.23724010  0.40001217  0.96915621  1
  O  O310  1  0.24788444  0.74986373  0.48091983  1
  O  O311  1  0.24350256  0.73228732  0.96936411  1
  O  O312  1  0.56864458  0.07063737  0.48798108  1
  O  O313  1  0.57872000  0.06888927  0.97912804  1
  O  O314  1  0.57855595  0.41421612  0.49385195  1
  O  O315  1  0.55574138  0.40464953  0.97332746  1
  O  O316  1  0.58051527  0.74919426  0.48625156  1
  O  O317  1  0.56528505  0.74317679  0.96648089  1
  O  O318  1  0.90800196  0.06673052  0.48285412  1
  O  O319  1  0.91345782  0.07023756  0.97620668  1
  O  O320  1  0.89922256  0.39827972  0.49281027  1
  O  O321  1  0.91103714  0.40003544  0.98086108  1
  O  O322  1  0.91005670  0.75081959  0.48995913  1
  O  O323  1  0.91713324  0.73913387  0.97769250  1
  O  O324  1  0.09276662  0.26091437  0.22941565  1
  O  O325  1  0.09021659  0.25776767  0.73375361  1
  O  O326  1  0.08962238  0.60011032  0.21960063  1
  O  O327  1  0.10194203  0.60016949  0.73185390  1
  O  O328  1  0.10353162  0.93032745  0.22034361  1
  O  O329  1  0.09453148  0.92416754  0.73393384  1
  O  O330  1  0.43524099  0.26902079  0.21740540  1
  O  O331  1  0.42284816  0.25702616  0.73027757  1
  O  O332  1  0.41391869  0.59447896  0.22470074  1
  O  O333  1  0.42438572  0.59598908  0.73290472  1
  O  O334  1  0.43096318  0.93910374  0.21894415  1
  O  O335  1  0.42819833  0.93780403  0.72950541  1
  O  O336  1  0.75639057  0.26236519  0.21985277  1
  O  O337  1  0.76848687  0.25632790  0.72485736  1
  O  O338  1  0.75449319  0.58232024  0.22550672  1
  O  O339  1  0.76182157  0.58177928  0.73027783  1
  O  O340  1  0.78000429  0.93152343  0.23302512  1
  O  O341  1  0.76316964  0.92169273  0.73482387  1
  O  O342  1  0.06689268  0.10151192  0.21902522  1
  O  O343  1  0.06312972  0.09623620  0.73227511  1
  O  O344  1  0.05892333  0.42865844  0.22385705  1
  O  O345  1  0.06688372  0.43909671  0.73792648  1
  O  O346  1  0.07151269  0.76595876  0.21989573  1
  O  O347  1  0.07674626  0.75585972  0.72929919  1
  O  O348  1  0.39224855  0.10652702  0.24935328  1
  O  O349  1  0.39932494  0.09740003  0.72248822  1
  O  O350  1  0.40460154  0.43229402  0.21597464  1
  O  O351  1  0.39914380  0.43027928  0.74022009  1
  O  O352  1  0.39836612  0.75913979  0.23673529  1
  O  O353  1  0.39751626  0.75548346  0.74153141  1
  O  O354  1  0.74072901  0.09311550  0.20962476  1
  O  O355  1  0.73718126  0.10179235  0.72988202  1
  O  O356  1  0.73246492  0.42075740  0.21853193  1
  O  O357  1  0.74725763  0.42855368  0.71798675  1
  O  O358  1  0.75386423  0.76617670  0.23985146  1
  O  O359  1  0.74490648  0.76397261  0.73687529  1
