# generated using pymatgen
data_BaLaInIrO6
_symmetry_space_group_name_H-M   'P 1'
_cell_length_a   17.50514529
_cell_length_b   17.53429117
_cell_length_c   16.49070781
_cell_angle_alpha   90.02483847
_cell_angle_beta   89.98528812
_cell_angle_gamma   90.03193462
_symmetry_Int_Tables_number   1
_chemical_formula_structural   BaLaInIrO6
_chemical_formula_sum   'Ba36 La36 In36 Ir36 O216'
_cell_volume   5061.66161181
_cell_formula_units_Z   36
loop_
 _symmetry_equiv_pos_site_id
 _symmetry_equiv_pos_as_xyz
  1  'x, y, z'
loop_
 _atom_site_type_symbol
 _atom_site_label
 _atom_site_symmetry_multiplicity
 _atom_site_fract_x
 _atom_site_fract_y
 _atom_site_fract_z
 _atom_site_occupancy
  Ba  Ba0  1  0.66656655  0.49388413  0.87472290  1
  Ba  Ba1  1  0.83688931  0.65737354  0.37467357  1
  Ba  Ba2  1  1.00034366  0.50983106  0.62864265  1
  Ba  Ba3  1  0.50022948  0.00830017  0.12412860  1
  Ba  Ba4  1  0.67049722  0.84421769  0.12435195  1
  Ba  Ba5  1  1.00578808  0.50653172  0.12583546  1
  Ba  Ba6  1  0.99734719  0.83919544  0.62553187  1
  Ba  Ba7  1  0.83081381  0.34137858  0.62818992  1
  Ba  Ba8  1  0.33269168  0.15866176  0.37543299  1
  Ba  Ba9  1  0.83369151  0.99202162  0.87317213  1
  Ba  Ba10  1  0.66617568  0.82569979  0.87115896  1
  Ba  Ba11  1  0.33266270  0.82520646  0.87253355  1
  Ba  Ba12  1  0.33783476  0.84066820  0.12636623  1
  Ba  Ba13  1  0.66666598  0.17377558  0.12453982  1
  Ba  Ba14  1  0.33488705  0.18291925  0.62693842  1
  Ba  Ba15  1  0.33062642  0.51234476  0.12447257  1
  Ba  Ba16  1  0.66591612  0.49114187  0.37819164  1
  Ba  Ba17  1  0.15969888  0.34319927  0.12145288  1
  Ba  Ba18  1  0.83237513  0.67278643  0.62623175  1
  Ba  Ba19  1  0.16601838  0.01145230  0.63063125  1
  Ba  Ba20  1  0.50405382  0.65786315  0.37384721  1
  Ba  Ba21  1  1.00104008  0.83915699  0.12352608  1
  Ba  Ba22  1  -0.00311994  0.82311207  0.86987575  1
  Ba  Ba23  1  0.66656667  0.50569103  0.62753643  1
  Ba  Ba24  1  0.00020444  0.15515112  0.87882693  1
  Ba  Ba25  1  0.83276697  0.32765638  0.37656347  1
  Ba  Ba26  1  0.49677195  0.32440194  0.87569479  1
  Ba  Ba27  1  0.00436255  0.82511526  0.37811595  1
  Ba  Ba28  1  1.00131265  0.17700504  0.11854223  1
  Ba  Ba29  1  0.49701805  0.67589814  0.12441217  1
  Ba  Ba30  1  0.66962120  0.17080873  0.62704524  1
  Ba  Ba31  1  0.16423610  0.67562224  0.12021768  1
  Ba  Ba32  1  0.66658975  0.84210206  0.62653249  1
  Ba  Ba33  1  0.83378766  0.66023400  0.87476939  1
  Ba  Ba34  1  0.49590265  0.01410970  0.63264129  1
  Ba  Ba35  1  0.66690400  0.15950888  0.37616992  1
  La  La36  1  0.16054328  0.34496259  0.62940567  1
  La  La37  1  0.16683637  0.98185581  0.87740479  1
  La  La38  1  0.82832857  0.01546932  0.12002785  1
  La  La39  1  0.66477027  0.15285473  0.87443228  1
  La  La40  1  0.50759746  0.98948513  0.37291574  1
  La  La41  1  0.17099340  0.98236915  0.37415372  1
  La  La42  1  0.16264350  0.01149073  0.12366127  1
  La  La43  1  0.49772840  0.67979779  0.62456818  1
  La  La44  1  -0.00074413  0.48696989  0.37759910  1
  La  La45  1  0.16766744  0.32034077  0.37070715  1
  La  La46  1  0.16763255  0.65312919  0.37022010  1
  La  La47  1  0.34091981  0.85237923  0.62435629  1
  La  La48  1  0.66628972  0.81710370  0.37643925  1
  La  La49  1  0.83783203  0.31606384  0.87236089  1
  La  La50  1  0.33727742  0.51304896  0.62610195  1
  La  La51  1  0.50674582  0.65542804  0.87791978  1
  La  La52  1  0.32550588  0.14963246  0.87523162  1
  La  La53  1  0.15913504  0.67994181  0.62543977  1
  La  La54  1  0.16832333  0.31606948  0.87858400  1
  La  La55  1  -0.00768059  0.48367327  0.87462243  1
  La  La56  1  0.83499703  0.68286407  0.12291734  1
  La  La57  1  0.67214253  0.51523741  0.12553247  1
  La  La58  1  0.82774390  0.00803228  0.63133118  1
  La  La59  1  0.83216913  0.34812651  0.12301049  1
  La  La60  1  0.50481926  0.98649919  0.87858065  1
  La  La61  1  0.50007881  0.34579616  0.12637463  1
  La  La62  1  0.34041257  0.18077656  0.12652615  1
  La  La63  1  0.51027909  0.31822217  0.37599573  1
  La  La64  1  0.50566899  0.33434570  0.62413015  1
  La  La65  1  0.33239513  0.48487046  0.37322149  1
  La  La66  1  0.33138702  0.81787953  0.37569226  1
  La  La67  1  0.16809216  0.64951552  0.86998843  1
  La  La68  1  0.33168888  0.48680430  0.87829854  1
  La  La69  1  -0.00631842  0.15488975  0.37435210  1
  La  La70  1  1.00623671  0.18013471  0.63190896  1
  La  La71  1  0.83729253  0.98908917  0.37581558  1
  In  In72  1  0.49523071  0.49822032  0.74931382  1
  In  In73  1  0.33187142  0.66888775  -0.00411021  1
  In  In74  1  0.17002502  0.50038377  0.50225308  1
  In  In75  1  0.83501243  0.83497346  0.25232913  1
  In  In76  1  0.16714071  0.49912982  0.24964326  1
  In  In77  1  0.17106014  0.83260910  0.24618162  1
  In  In78  1  0.17001563  0.83105997  0.74808375  1
  In  In79  1  0.00256933  0.66482432  0.24940948  1
  In  In80  1  0.83567075  0.83648595  -0.00287188  1
  In  In81  1  0.00004447  0.00011058  0.74959660  1
  In  In82  1  0.49911075  0.83494635  0.49922775  1
  In  In83  1  0.33345416  0.00243304  0.49848479  1
  In  In84  1  0.49809300  0.83134108  0.75148714  1
  In  In85  1  0.32987420  0.33280519  0.00188217  1
  In  In86  1  0.33056799  0.33640720  0.49933994  1
  In  In87  1  0.49882835  0.49986941  0.00037370  1
  In  In88  1  0.16402462  0.16538168  0.49955897  1
  In  In89  1  0.66836913  0.33148630  -0.00098360  1
  In  In90  1  0.83432446  0.49948363  0.24936785  1
  In  In91  1  0.49846648  0.16789965  -0.00159840  1
  In  In92  1  0.66755327  0.33133614  0.50090417  1
  In  In93  1  0.66803643  -0.00152348  0.49933629  1
  In  In94  1  0.00193658  0.00106487  0.50162323  1
  In  In95  1  0.00227584  0.00064564  0.24783105  1
  In  In96  1  -0.00207673  0.32984776  0.24884503  1
  In  In97  1  0.50088981  0.49921444  0.25048493  1
  In  In98  1  0.49464639  0.49960592  0.49989714  1
  In  In99  1  0.49843561  0.16563516  0.50139592  1
  In  In100  1  0.50105851  0.83573989  0.24971876  1
  In  In101  1  0.16744056  0.16524063  0.24792859  1
  In  In102  1  0.83810117  0.16522287  0.50202826  1
  In  In103  1  0.00342889  0.66634495  0.50102626  1
  In  In104  1  0.66641447  0.33093688  0.75560129  1
  In  In105  1  0.83401713  0.50008951  0.50217637  1
  In  In106  1  0.66783544  0.66891600  -0.00010687  1
  In  In107  1  0.33071328  0.00013749  0.00426370  1
  Ir  Ir108  1  0.16402500  0.83176474  -0.00355726  1
  Ir  Ir109  1  0.66891657  0.66755731  0.25125598  1
  Ir  Ir110  1  0.00248777  0.33379036  0.75072885  1
  Ir  Ir111  1  -0.00177591  0.33268626  -0.00757053  1
  Ir  Ir112  1  0.32938948  0.66722212  0.50220255  1
  Ir  Ir113  1  0.49441625  0.16884725  0.75585191  1
  Ir  Ir114  1  0.16842620  0.49668227  0.75190543  1
  Ir  Ir115  1  0.66680729  0.00241272  0.00043410  1
  Ir  Ir116  1  0.17414241  0.83055847  0.50073180  1
  Ir  Ir117  1  0.32573083  0.33611324  0.75189859  1
  Ir  Ir118  1  0.15928058  0.49867523  -0.01019356  1
  Ir  Ir119  1  0.00174485  0.00026787  0.00082695  1
  Ir  Ir120  1  0.83540501  0.16716005  0.00148332  1
  Ir  Ir121  1  0.00325520  0.66378404  0.75117383  1
  Ir  Ir122  1  0.49848544  0.16670269  0.24790688  1
  Ir  Ir123  1  0.33550160  0.00140550  0.25292342  1
  Ir  Ir124  1  0.66374713  0.32974456  0.24471612  1
  Ir  Ir125  1  0.83005423  0.83385649  0.50149540  1
  Ir  Ir126  1  0.83708851  0.49966813  -0.00094205  1
  Ir  Ir127  1  0.66529894  0.00229494  0.75493117  1
  Ir  Ir128  1  0.33267834  0.00432888  0.75423513  1
  Ir  Ir129  1  0.83513860  0.50076765  0.75599735  1
  Ir  Ir130  1  0.33683724  0.33180647  0.24914803  1
  Ir  Ir131  1  0.50045785  0.83663232  -0.00145519  1
  Ir  Ir132  1  0.00168554  0.66250559  -0.00596910  1
  Ir  Ir133  1  0.16734159  0.16298508  -0.00450692  1
  Ir  Ir134  1  0.00525140  0.33261464  0.50566695  1
  Ir  Ir135  1  0.83109475  0.83063952  0.74626518  1
  Ir  Ir136  1  0.33078505  0.66279050  0.74469057  1
  Ir  Ir137  1  0.67140352  0.00369745  0.24922386  1
  Ir  Ir138  1  0.33474203  0.66650542  0.25651182  1
  Ir  Ir139  1  0.83702198  0.16552097  0.75435840  1
  Ir  Ir140  1  0.16860912  0.16921407  0.75342574  1
  Ir  Ir141  1  0.66486749  0.66790392  0.50139228  1
  Ir  Ir142  1  0.66531395  0.66457945  0.74854288  1
  Ir  Ir143  1  0.83250633  0.16612403  0.24849154  1
  O  O144  1  0.30736426  0.32057076  0.13055784  1
  O  O145  1  0.29841920  0.33798268  0.63213692  1
  O  O146  1  0.31476684  0.66852081  0.13451897  1
  O  O147  1  0.29395177  0.65089787  0.62295692  1
  O  O148  1  0.30125453  0.99744585  0.13301391  1
  O  O149  1  0.31374693  0.99370296  0.63359903  1
  O  O150  1  0.63513034  0.32654370  0.12722426  1
  O  O151  1  0.63968962  0.32712781  0.63037428  1
  O  O152  1  0.64968599  0.66024894  0.13131236  1
  O  O153  1  0.63525765  0.66643039  0.62372380  1
  O  O154  1  0.64747448  1.00173282  0.12471976  1
  O  O155  1  0.64789559  1.00096890  0.63529361  1
  O  O156  1  0.97041302  0.33184046  0.11250035  1
  O  O157  1  0.97906837  0.31950037  0.62868367  1
  O  O158  1  0.97186244  0.65813403  0.11414551  1
  O  O159  1  0.98539899  0.66572772  0.63141313  1
  O  O160  1  0.96826658  0.99630243  0.11942735  1
  O  O161  1  0.96611531  0.99837770  0.62495571  1
  O  O162  1  0.20203484  0.15408135  0.11507553  1
  O  O163  1  0.18620380  0.17000535  0.63449927  1
  O  O164  1  0.17989528  0.49740532  0.11179225  1
  O  O165  1  0.20218612  0.48495087  0.63246283  1
  O  O166  1  0.18751493  0.83182860  0.11461485  1
  O  O167  1  0.20511533  0.82036715  0.62120742  1
  O  O168  1  0.51540709  0.16248028  0.12907516  1
  O  O169  1  0.51692461  0.17311484  0.63666801  1
  O  O170  1  0.53329260  0.48857103  0.12731805  1
  O  O171  1  0.50609968  0.47498711  0.62504454  1
  O  O172  1  0.51730184  0.83517417  0.11999296  1
  O  O173  1  0.51472091  0.82063683  0.62625591  1
  O  O174  1  0.85517846  0.15286847  0.12520388  1
  O  O175  1  0.86891801  0.15545341  0.63448454  1
  O  O176  1  0.85698403  0.49021221  0.11695028  1
  O  O177  1  0.85150024  0.50209076  0.63609407  1
  O  O178  1  0.84831951  0.82379964  0.12426035  1
  O  O179  1  0.85020523  0.82896076  0.62403430  1
  O  O180  1  0.13076471  0.18078088  0.37426392  1
  O  O181  1  0.14615514  0.17783174  0.87375619  1
  O  O182  1  0.13312869  0.51543281  0.37873647  1
  O  O183  1  0.13028749  0.50802164  0.86880864  1
  O  O184  1  0.15552211  0.84185846  0.38123173  1
  O  O185  1  0.14722161  0.84162770  0.87715300  1
  O  O186  1  0.48064563  0.17783199  0.36669372  1
  O  O187  1  0.46124884  0.16926086  0.87300824  1
  O  O188  1  0.46927192  0.50288572  0.37350163  1
  O  O189  1  0.46726946  0.51857337  0.87179104  1
  O  O190  1  0.46815737  0.84548179  0.37451706  1
  O  O191  1  0.48311219  0.84252169  0.87767961  1
  O  O192  1  0.81527947  0.17226205  0.36590893  1
  O  O193  1  0.80386989  0.17505876  0.87882642  1
  O  O194  1  0.81503261  0.49540043  0.37430624  1
  O  O195  1  0.81615939  0.50254764  0.87849826  1
  O  O196  1  0.80157729  0.84538416  0.38160599  1
  O  O197  1  0.81648477  0.83125912  0.86674043  1
  O  O198  1  0.03813727  0.01612356  0.37559078  1
  O  O199  1  0.03149870  0.00055856  0.87998865  1
  O  O200  1  0.02994658  0.34271288  0.38506139  1
  O  O201  1  0.03218783  0.34235647  0.87061430  1
  O  O202  1  0.03364607  0.67198564  0.37775949  1
  O  O203  1  0.03263746  0.66656797  0.87217124  1
  O  O204  1  0.37015706  0.00446542  0.36944297  1
  O  O205  1  0.36154036  0.01035984  0.87399622  1
  O  O206  1  0.37111676  0.34189290  0.36651560  1
  O  O207  1  0.34575670  0.34211388  0.87110363  1
  O  O208  1  0.35800600  0.68034048  0.38183055  1
  O  O209  1  0.36743927  0.66833993  0.86176786  1
  O  O210  1  0.70092078  0.00517461  0.36771374  1
  O  O211  1  0.68611716  0.01179608  0.87779586  1
  O  O212  1  0.68130319  0.33152482  0.36323580  1
  O  O213  1  0.70414008  0.33524493  0.87701903  1
  O  O214  1  0.68810541  0.67692263  0.37703088  1
  O  O215  1  0.68112768  0.66506261  0.86823344  1
  O  O216  1  0.07892251  0.08717844  0.02315454  1
  O  O217  1  0.06321011  0.10449899  0.53012199  1
  O  O218  1  0.06415442  0.42912564  0.00589095  1
  O  O219  1  0.07591149  0.42159481  0.52716163  1
  O  O220  1  0.07056319  0.75883017  0.01297391  1
  O  O221  1  0.08428594  0.76239155  0.52254841  1
  O  O222  1  0.39171462  0.10525170  0.01818170  1
  O  O223  1  0.40127638  0.09930698  0.51672072  1
  O  O224  1  0.39725655  0.43116894  0.00871108  1
  O  O225  1  0.38303164  0.44579129  0.51140451  1
  O  O226  1  0.40969259  0.76651561  0.00964821  1
  O  O227  1  0.39279345  0.76156096  0.52525974  1
  O  O228  1  0.74325718  0.09307243  0.02089956  1
  O  O229  1  0.75239279  0.08108513  0.52656053  1
  O  O230  1  0.74357292  0.43270367  0.02776245  1
  O  O231  1  0.74198592  0.42440496  0.51675000  1
  O  O232  1  0.74713286  0.75507680  0.01548462  1
  O  O233  1  0.73212856  0.76662533  0.50928406  1
  O  O234  1  0.09616233  0.26165093  0.00829754  1
  O  O235  1  0.09523419  0.26755454  0.53003697  1
  O  O236  1  0.09633006  0.59598398  0.00446702  1
  O  O237  1  0.10591986  0.59961050  0.52819105  1
  O  O238  1  0.09963812  0.93300403  0.01989332  1
  O  O239  1  0.10550775  0.92416501  0.51405659  1
  O  O240  1  0.43006282  0.26629241  0.02872215  1
  O  O241  1  0.43238268  0.27366379  0.52015371  1
  O  O242  1  0.42240387  0.59551008  0.01496479  1
  O  O243  1  0.42441483  0.60476424  0.52984833  1
  O  O244  1  0.43096041  0.92987552  0.00790348  1
  O  O245  1  0.42346925  0.92505437  0.52668464  1
  O  O246  1  0.77293552  0.26271804  0.02277512  1
  O  O247  1  0.76117406  0.25406771  0.51634200  1
  O  O248  1  0.76907028  0.59105396  0.02677450  1
  O  O249  1  0.75319027  0.59755125  0.51401862  1
  O  O250  1  0.76104586  0.93553692  0.02007361  1
  O  O251  1  0.76676117  0.92615810  0.52392971  1
  O  O252  1  0.24017664  0.06453949  0.27587504  1
  O  O253  1  0.23612993  0.07427913  0.78309043  1
  O  O254  1  0.24681821  0.40429811  0.27707476  1
  O  O255  1  0.22770627  0.39779505  0.77836906  1
  O  O256  1  0.24489314  0.73701718  0.28023453  1
  O  O257  1  0.23819344  0.72824659  0.77180063  1
  O  O258  1  0.56799522  0.07087506  0.27337091  1
  O  O259  1  0.56710251  0.07482069  0.78395993  1
  O  O260  1  0.56742030  0.39196609  0.26692850  1
  O  O261  1  0.57092785  0.40573193  0.76844105  1
  O  O262  1  0.58220856  0.74440582  0.27194173  1
  O  O263  1  0.56848496  0.73055647  0.76781256  1
  O  O264  1  0.89931995  0.07369360  0.27196715  1
  O  O265  1  0.90759266  0.07770537  0.77116113  1
  O  O266  1  0.89733009  0.39483802  0.25107995  1
  O  O267  1  0.90807968  0.40616171  0.77969049  1
  O  O268  1  0.90113608  0.73279533  0.25362252  1
  O  O269  1  0.90852649  0.73513110  0.76584628  1
  O  O270  1  0.26157776  0.24621120  0.27022677  1
  O  O271  1  0.26367953  0.23761484  0.77839850  1
  O  O272  1  0.26678450  0.57373735  0.27984061  1
  O  O273  1  0.26283979  0.56600831  0.77817905  1
  O  O274  1  0.27193206  0.90653434  0.27900735  1
  O  O275  1  0.25973203  0.91598356  0.76977702  1
  O  O276  1  0.59061182  0.23749366  0.26932634  1
  O  O277  1  0.59149804  0.22906138  0.77970837  1
  O  O278  1  0.60200800  0.57408006  0.26125282  1
  O  O279  1  0.58862308  0.58140837  0.76527293  1
  O  O280  1  0.60054417  0.91363216  0.27651485  1
  O  O281  1  0.58675565  0.91860244  0.77204855  1
  O  O282  1  0.92869155  0.22779672  0.26997687  1
  O  O283  1  0.92624728  0.24447349  0.77674815  1
  O  O284  1  0.93802364  0.56131358  0.27511437  1
  O  O285  1  0.93415264  0.56919486  0.77611202  1
  O  O286  1  0.92375285  0.91376586  0.28019915  1
  O  O287  1  0.91788951  0.90448897  0.76115850  1
  O  O288  1  0.25295788  0.24579886  0.47662054  1
  O  O289  1  0.25946300  0.23334097  0.97389029  1
  O  O290  1  0.27039670  0.57278483  0.47247468  1
  O  O291  1  0.25228795  0.56830713  0.96681399  1
  O  O292  1  0.26846753  0.89501886  0.48162134  1
  O  O293  1  0.25175271  0.90682018  0.97835610  1
  O  O294  1  0.58842251  0.24143224  0.48178734  1
  O  O295  1  0.60211536  0.22888661  0.97322825  1
  O  O296  1  0.59261599  0.57857891  0.48996252  1
  O  O297  1  0.58982533  0.57986355  0.98342236  1
  O  O298  1  0.59707026  0.90381022  0.46797688  1
  O  O299  1  0.59272481  0.91215577  0.97642907  1
  O  O300  1  0.94229334  0.23624539  0.48333487  1
  O  O301  1  0.92340585  0.24365216  0.97232285  1
  O  O302  1  0.93391084  0.56803212  0.48020430  1
  O  O303  1  0.93603926  0.56614741  0.97276577  1
  O  O304  1  0.91766593  0.90738445  0.48026920  1
  O  O305  1  0.93162479  0.91247056  0.98086599  1
  O  O306  1  0.22975135  0.06318393  0.47531884  1
  O  O307  1  0.23139043  0.06940275  0.97075794  1
  O  O308  1  0.23478594  0.40560651  0.46029101  1
  O  O309  1  0.22786198  0.40642943  0.97095695  1
  O  O310  1  0.23466762  0.73170945  0.47518498  1
  O  O311  1  0.23087413  0.73700588  0.97078945  1
  O  O312  1  0.56797687  0.06562617  0.47790159  1
  O  O313  1  0.57105506  0.06831433  0.97491131  1
  O  O314  1  0.56336176  0.39968983  0.48088481  1
  O  O315  1  0.57104631  0.40244563  0.98665749  1
  O  O316  1  0.57498637  0.73871790  0.48501111  1
  O  O317  1  0.56716441  0.74290181  0.97886469  1
  O  O318  1  0.90939124  0.07434344  0.46107518  1
  O  O319  1  0.90579816  0.07086380  0.98522640  1
  O  O320  1  0.91953300  0.40433655  0.48717412  1
  O  O321  1  0.90274941  0.40139419  0.97004619  1
  O  O322  1  0.90404527  0.74645248  0.48563250  1
  O  O323  1  0.91271240  0.73353000  0.98731813  1
  O  O324  1  0.09448290  0.26105220  0.23200547  1
  O  O325  1  0.09883828  0.26498458  0.72846287  1
  O  O326  1  0.10488237  0.59991786  0.23672191  1
  O  O327  1  0.10471951  0.59730507  0.73100903  1
  O  O328  1  0.10792553  0.93518767  0.23306690  1
  O  O329  1  0.09396433  0.92462655  0.73824043  1
  O  O330  1  0.42960988  0.26044508  0.22010640  1
  O  O331  1  0.42658120  0.27171826  0.72896104  1
  O  O332  1  0.42177471  0.59454180  0.23528677  1
  O  O333  1  0.42246873  0.59843469  0.71413059  1
  O  O334  1  0.42671516  0.93515026  0.23448763  1
  O  O335  1  0.41846209  0.92659764  0.73729002  1
  O  O336  1  0.76495113  0.26529376  0.22136733  1
  O  O337  1  0.76397153  0.25198954  0.73896608  1
  O  O338  1  0.76124094  0.59758315  0.22195493  1
  O  O339  1  0.75940535  0.59235024  0.73419906  1
  O  O340  1  0.76462939  0.93875908  0.22712990  1
  O  O341  1  0.76124014  0.92812935  0.72740661  1
  O  O342  1  0.07923480  0.08915566  0.21643259  1
  O  O343  1  0.07341573  0.10310677  0.73217550  1
  O  O344  1  0.07165067  0.42601336  0.24633194  1
  O  O345  1  0.07715234  0.42313266  0.72576384  1
  O  O346  1  0.07572709  0.76235907  0.23461540  1
  O  O347  1  0.07703752  0.75111575  0.73064391  1
  O  O348  1  0.39954056  0.10018907  0.22586847  1
  O  O349  1  0.39816243  0.09998337  0.73854062  1
  O  O350  1  0.40771834  0.41741820  0.22103890  1
  O  O351  1  0.38202033  0.43682857  0.74053919  1
  O  O352  1  0.40362904  0.75804487  0.24332877  1
  O  O353  1  0.39584247  0.75616013  0.71731899  1
  O  O354  1  0.74268186  0.09375585  0.22577933  1
  O  O355  1  0.74874526  0.08865514  0.73261304  1
  O  O356  1  0.72899140  0.42418249  0.21810041  1
  O  O357  1  0.74823366  0.42855316  0.73928586  1
  O  O358  1  0.73541506  0.75974259  0.24186932  1
  O  O359  1  0.73708518  0.75540796  0.73085197  1
