# generated using pymatgen
data_BaLaInIrO6
_symmetry_space_group_name_H-M   'P 1'
_cell_length_a   17.52365555
_cell_length_b   17.54513869
_cell_length_c   16.47101759
_cell_angle_alpha   89.99831714
_cell_angle_beta   89.99203668
_cell_angle_gamma   89.98465165
_symmetry_Int_Tables_number   1
_chemical_formula_structural   BaLaInIrO6
_chemical_formula_sum   'Ba36 La36 In36 Ir36 O216'
_cell_volume   5064.09593939
_cell_formula_units_Z   36
loop_
 _symmetry_equiv_pos_site_id
 _symmetry_equiv_pos_as_xyz
  1  'x, y, z'
loop_
 _atom_site_type_symbol
 _atom_site_label
 _atom_site_symmetry_multiplicity
 _atom_site_fract_x
 _atom_site_fract_y
 _atom_site_fract_z
 _atom_site_occupancy
  Ba  Ba0  1  0.50370800  0.32220086  0.37302829  1
  Ba  Ba1  1  0.00173001  0.15603845  0.88000038  1
  Ba  Ba2  1  0.33648554  0.17391192  0.62674059  1
  Ba  Ba3  1  0.16240317  0.67437527  0.62578475  1
  Ba  Ba4  1  0.66653672  0.17716132  0.12617710  1
  Ba  Ba5  1  1.00223880  0.17182913  0.62508218  1
  Ba  Ba6  1  0.66852360  0.50520074  0.62361928  1
  Ba  Ba7  1  0.16412501  0.00848047  0.62796603  1
  Ba  Ba8  1  0.83130337  0.99119115  0.87997143  1
  Ba  Ba9  1  0.83258104  0.99180901  0.37382396  1
  Ba  Ba10  1  0.16778654  0.00579484  0.12410347  1
  Ba  Ba11  1  0.50217751  0.65456747  0.37400622  1
  Ba  Ba12  1  0.00395918  0.16026345  0.37070233  1
  Ba  Ba13  1  0.16856733  0.33646938  0.12542001  1
  Ba  Ba14  1  0.50122089  0.67075012  0.62620926  1
  Ba  Ba15  1  0.67267667  0.17291368  0.62450983  1
  Ba  Ba16  1  0.00026438  0.49453644  0.87483844  1
  Ba  Ba17  1  0.33470235  0.49038127  0.37155233  1
  Ba  Ba18  1  0.50501460  0.64942101  0.87697708  1
  Ba  Ba19  1  0.33336173  0.49403077  0.87229021  1
  Ba  Ba20  1  0.16854024  0.66976226  0.12536059  1
  Ba  Ba21  1  0.33726289  0.51241553  0.12651873  1
  Ba  Ba22  1  0.99891133  0.50840831  0.12347131  1
  Ba  Ba23  1  0.83461512  0.00666859  0.62509733  1
  Ba  Ba24  1  0.83179383  0.65984037  0.37222945  1
  Ba  Ba25  1  0.50139689  0.98538210  0.37299863  1
  Ba  Ba26  1  0.65945728  0.49145169  0.37571089  1
  Ba  Ba27  1  0.16392385  0.99336008  0.87293216  1
  Ba  Ba28  1  0.66330768  0.82290388  0.87748810  1
  Ba  Ba29  1  0.99834510  0.50962170  0.62315382  1
  Ba  Ba30  1  0.33386777  0.15884287  0.37995103  1
  Ba  Ba31  1  0.50166380  0.34362862  0.62230934  1
  Ba  Ba32  1  0.66210893  0.49152071  0.87111134  1
  Ba  Ba33  1  0.83261522  0.67453272  0.62454068  1
  Ba  Ba34  1  0.82668541  0.00924755  0.12690033  1
  Ba  Ba35  1  -0.00088999  0.49276459  0.37205427  1
  La  La36  1  0.66805342  0.84982083  0.12622631  1
  La  La37  1  0.33760799  0.84730946  0.62478844  1
  La  La38  1  1.00220790  0.84623345  0.62470060  1
  La  La39  1  0.82771857  0.34805587  0.12660724  1
  La  La40  1  0.82528483  0.34501102  0.62406980  1
  La  La41  1  0.49269529  0.68199549  0.12565280  1
  La  La42  1  0.17025362  0.32691511  0.87180107  1
  La  La43  1  0.49146556  0.01856072  0.12892166  1
  La  La44  1  -0.00310884  0.82619659  0.37231673  1
  La  La45  1  0.67286951  0.83561747  0.62072933  1
  La  La46  1  -0.00232726  0.83011274  0.87530813  1
  La  La47  1  0.17405803  0.98310368  0.38288568  1
  La  La48  1  0.32614239  0.15471205  0.87945968  1
  La  La49  1  0.34347463  0.51542066  0.62210789  1
  La  La50  1  0.83906628  0.31979535  0.87412948  1
  La  La51  1  0.51013379  0.98306984  0.87773805  1
  La  La52  1  0.82838632  0.68638370  0.12412488  1
  La  La53  1  0.16489882  0.34423626  0.62168968  1
  La  La54  1  0.99755574  0.17647314  0.12480781  1
  La  La55  1  0.33889316  0.84500350  0.12413084  1
  La  La56  1  0.50543109  0.32618620  0.87545090  1
  La  La57  1  0.65794487  0.14525628  0.37203931  1
  La  La58  1  0.83343557  0.65459633  0.87250844  1
  La  La59  1  0.49543211  0.35640241  0.12692939  1
  La  La60  1  0.66237473  0.81876160  0.37236755  1
  La  La61  1  0.83234268  0.32382887  0.37749535  1
  La  La62  1  0.66538589  0.14767221  0.87631885  1
  La  La63  1  0.16894773  0.64726064  0.37249985  1
  La  La64  1  0.67110806  0.52030238  0.12758369  1
  La  La65  1  0.32992074  0.81569110  0.37513175  1
  La  La66  1  0.49734866  0.01220439  0.62099206  1
  La  La67  1  0.34487898  0.18848507  0.12886904  1
  La  La68  1  0.17363451  0.32691951  0.38153491  1
  La  La69  1  0.16891557  0.64930767  0.87490055  1
  La  La70  1  0.32879943  0.81884542  0.87565192  1
  La  La71  1  0.99852313  0.84478489  0.12758768  1
  In  In72  1  0.82938737  0.16777890  0.25127183  1
  In  In73  1  0.33560703  0.66632981  0.00015221  1
  In  In74  1  -0.00167802  0.67114004  0.00032785  1
  In  In75  1  -0.00137833  0.33406339  0.49803725  1
  In  In76  1  0.00065151  0.33329754  0.74690467  1
  In  In77  1  0.82917597  0.50197714  0.00093302  1
  In  In78  1  0.66667688  0.66609609  0.49769782  1
  In  In79  1  0.66443053  0.66953848  0.75080952  1
  In  In80  1  0.16950149  0.16580679  0.00473806  1
  In  In81  1  0.00062935  0.00000165  0.49499529  1
  In  In82  1  0.00071745  0.67217873  0.75126041  1
  In  In83  1  0.17009970  0.49895788  0.74481737  1
  In  In84  1  0.33699934  -0.00135231  -0.00224872  1
  In  In85  1  0.16597838  0.83065931  0.00106893  1
  In  In86  1  0.66775129  0.32927480  0.75384516  1
  In  In87  1  0.49872968  0.16641808  0.75383952  1
  In  In88  1  0.66562028  -0.00366139  0.74763186  1
  In  In89  1  0.16870859  0.16710120  0.50046891  1
  In  In90  1  0.33922158  0.33815744  -0.00299981  1
  In  In91  1  -0.00069975  0.33286711  -0.00060567  1
  In  In92  1  0.82996032  0.16669959  0.00130676  1
  In  In93  1  0.00043713  0.66959633  0.49785033  1
  In  In94  1  0.33229408  -0.00094997  0.25456320  1
  In  In95  1  0.16575367  0.83426278  0.75108186  1
  In  In96  1  0.16975259  0.16807056  0.75061563  1
  In  In97  1  0.33813846  0.33263930  0.50339700  1
  In  In98  1  0.16711763  0.49446324  0.24731837  1
  In  In99  1  0.49850062  0.83084287  0.49985812  1
  In  In100  1  0.66516323  0.33006472  0.49650657  1
  In  In101  1  0.33398009  0.66929347  0.74926178  1
  In  In102  1  0.50065488  0.17096830  0.00020545  1
  In  In103  1  0.16822618  0.16382518  0.24884828  1
  In  In104  1  0.83203263  0.49989463  0.75168696  1
  In  In105  1  -0.00201239  0.66805741  0.24848327  1
  In  In106  1  0.83204276  0.16643268  0.49705449  1
  In  In107  1  0.16718406  0.83050990  0.24969538  1
  Ir  Ir108  1  -0.00408120  -0.00123873  0.75377488  1
  Ir  Ir109  1  -0.00490231  -0.00397718  0.00389050  1
  Ir  Ir110  1  0.83236757  0.49902180  0.49295412  1
  Ir  Ir111  1  0.33979430  0.33365641  0.25078190  1
  Ir  Ir112  1  0.66610385  0.33516671  0.00337076  1
  Ir  Ir113  1  0.50104261  0.83111075  0.24649995  1
  Ir  Ir114  1  0.33744757  0.33399801  0.75126726  1
  Ir  Ir115  1  0.82853917  0.83397592  -0.00105629  1
  Ir  Ir116  1  0.50504704  0.50166311  0.24797867  1
  Ir  Ir117  1  0.83298115  0.83645694  0.49692858  1
  Ir  Ir118  1  0.82910667  0.83607480  0.25008507  1
  Ir  Ir119  1  0.50366999  0.16790234  0.25128167  1
  Ir  Ir120  1  0.66465395  0.33547105  0.24491531  1
  Ir  Ir121  1  0.66392970  0.67050756  0.00653895  1
  Ir  Ir122  1  0.49785222  0.83519566  0.75032271  1
  Ir  Ir123  1  0.66436636  0.66971211  0.24339529  1
  Ir  Ir124  1  0.17156696  0.50067272  0.49826455  1
  Ir  Ir125  1  0.33546959  -0.00512336  0.50296644  1
  Ir  Ir126  1  0.83384782  0.16513326  0.75240082  1
  Ir  Ir127  1  0.66491611  -0.00601784  0.49718024  1
  Ir  Ir128  1  0.50803866  0.50075257  0.00147517  1
  Ir  Ir129  1  0.83365364  0.83534500  0.75080869  1
  Ir  Ir130  1  -0.00420262  0.33298469  0.25041780  1
  Ir  Ir131  1  0.50393711  0.15907935  0.49759287  1
  Ir  Ir132  1  0.16725489  0.49723580  -0.00135596  1
  Ir  Ir133  1  0.49625108  0.49589985  0.74948550  1
  Ir  Ir134  1  -0.00034672  -0.00172762  0.24588810  1
  Ir  Ir135  1  0.33613185  0.66812465  0.25286730  1
  Ir  Ir136  1  0.66081711  -0.00457883  0.24949008  1
  Ir  Ir137  1  0.32789842  0.66772535  0.49662324  1
  Ir  Ir138  1  0.82910831  0.49925746  0.25078584  1
  Ir  Ir139  1  0.50241394  0.83490123  0.00326410  1
  Ir  Ir140  1  0.66094247  -0.00290764  0.00289713  1
  Ir  Ir141  1  0.16837095  0.83281604  0.50009106  1
  Ir  Ir142  1  0.49658298  0.50130470  0.49942319  1
  Ir  Ir143  1  0.34215758  -0.00282230  0.74974622  1
  O  O144  1  0.32478661  0.33293624  0.13054002  1
  O  O145  1  0.30520735  0.33102847  0.63326364  1
  O  O146  1  0.32137948  0.67180092  0.13149776  1
  O  O147  1  0.31202269  0.65851972  0.61735167  1
  O  O148  1  0.31923215  0.98166685  0.12742976  1
  O  O149  1  0.31236890  0.98467071  0.62712567  1
  O  O150  1  0.63074722  0.32993808  0.12357718  1
  O  O151  1  0.64973908  0.32713302  0.62478624  1
  O  O152  1  0.63009167  0.66348559  0.12513101  1
  O  O153  1  0.65140946  0.68493845  0.62358070  1
  O  O154  1  0.62867588  0.98905030  0.12708780  1
  O  O155  1  0.63573190  0.98538545  0.61812462  1
  O  O156  1  0.96246616  0.32528843  0.13136852  1
  O  O157  1  0.96019805  0.33223568  0.62234714  1
  O  O158  1  0.96227227  0.66568192  0.12569982  1
  O  O159  1  0.98369723  0.66797213  0.62209005  1
  O  O160  1  0.97062583  0.98505286  0.12478116  1
  O  O161  1  0.98331818  0.99107370  0.63176270  1
  O  O162  1  0.20896984  0.16160556  0.12834754  1
  O  O163  1  0.18927808  0.15931420  0.62702335  1
  O  O164  1  0.18553765  0.49947328  0.11843787  1
  O  O165  1  0.20538566  0.49601308  0.61545488  1
  O  O166  1  0.20522735  0.83081346  0.12619216  1
  O  O167  1  0.20191266  0.83016930  0.61932161  1
  O  O168  1  0.51983774  0.15895743  0.13138002  1
  O  O169  1  0.52283806  0.15398619  0.61974263  1
  O  O170  1  0.53524104  0.49588678  0.12468126  1
  O  O171  1  0.51556099  0.50415902  0.62424895  1
  O  O172  1  0.53303018  0.82059733  0.12434261  1
  O  O173  1  0.53116713  0.83127001  0.63127686  1
  O  O174  1  0.85791782  0.16743821  0.12737897  1
  O  O175  1  0.85034643  0.16192380  0.63210063  1
  O  O176  1  0.84836771  0.48918131  0.13150523  1
  O  O177  1  0.84989727  0.48811787  0.61382748  1
  O  O178  1  0.85904908  0.82626733  0.12361200  1
  O  O179  1  0.86438427  0.83309865  0.62402182  1
  O  O180  1  0.15337013  0.19127197  0.37098259  1
  O  O181  1  0.15369853  0.18504577  0.87691710  1
  O  O182  1  0.15181890  0.50016040  0.37808470  1
  O  O183  1  0.15389091  0.49697258  0.87959781  1
  O  O184  1  0.13635880  0.84279571  0.38093113  1
  O  O185  1  0.13373781  0.84218074  0.87664199  1
  O  O186  1  0.48478553  0.16124376  0.37304148  1
  O  O187  1  0.46152625  0.18201305  0.87770708  1
  O  O188  1  0.48141179  0.50011053  0.37314349  1
  O  O189  1  0.48242708  0.49091629  0.87586097  1
  O  O190  1  0.46794647  0.83341796  0.36705918  1
  O  O191  1  0.46673644  0.84640379  0.87663271  1
  O  O192  1  0.79088767  0.17975648  0.37134049  1
  O  O193  1  0.80129503  0.17437845  0.87285274  1
  O  O194  1  0.80756897  0.50266704  0.37115275  1
  O  O195  1  0.80545965  0.51875165  0.87869240  1
  O  O196  1  0.79791197  0.83829124  0.37422065  1
  O  O197  1  0.80674478  0.84069582  0.87299883  1
  O  O198  1  0.03346991  -0.00402798  0.36365921  1
  O  O199  1  0.01448664  -0.00806134  0.88025644  1
  O  O200  1  0.03494202  0.33763337  0.36790362  1
  O  O201  1  0.03685146  0.33477318  0.87431920  1
  O  O202  1  0.03096696  0.68574380  0.37467644  1
  O  O203  1  0.03519512  0.69293672  0.87797450  1
  O  O204  1  0.35586000  -0.00272702  0.38421594  1
  O  O205  1  0.37560379  0.00966714  0.86833652  1
  O  O206  1  0.35323978  0.33308585  0.37043743  1
  O  O207  1  0.37118513  0.34135719  0.86921462  1
  O  O208  1  0.35540072  0.67683990  0.37511035  1
  O  O209  1  0.36141590  0.68189801  0.87575593  1
  O  O210  1  0.68508273  0.00561516  0.37284639  1
  O  O211  1  0.67937329  0.00173305  0.88124280  1
  O  O212  1  0.69248372  0.33774223  0.36476095  1
  O  O213  1  0.70047766  0.33953442  0.88624753  1
  O  O214  1  0.68429945  0.67808054  0.36483104  1
  O  O215  1  0.69349258  0.67044483  0.88600545  1
  O  O216  1  0.06376333  0.08796073  0.02607248  1
  O  O217  1  0.07801041  0.08901252  0.50751911  1
  O  O218  1  0.07776947  0.42747311  0.01762247  1
  O  O219  1  0.08482029  0.42875050  0.52081913  1
  O  O220  1  0.06555608  0.76692193  0.03448585  1
  O  O221  1  0.07402181  0.77147140  0.52266218  1
  O  O222  1  0.40428065  0.09875831  0.03139538  1
  O  O223  1  0.41127200  0.08294786  0.52661073  1
  O  O224  1  0.41614039  0.43389811  0.01963486  1
  O  O225  1  0.40451643  0.43311266  0.52075402  1
  O  O226  1  0.40827415  0.77010763  0.02567929  1
  O  O227  1  0.39350158  0.76359667  0.51796853  1
  O  O228  1  0.72987003  0.09108762  0.00996481  1
  O  O229  1  0.73187208  0.08652377  0.50822991  1
  O  O230  1  0.72730339  0.42930227  0.03219936  1
  O  O231  1  0.74799341  0.42428107  0.50909639  1
  O  O232  1  0.73176759  0.76548599  0.03039442  1
  O  O233  1  0.74174852  0.76814907  0.51407504  1
  O  O234  1  0.08208480  0.24735422  0.03256614  1
  O  O235  1  0.09822867  0.26882508  0.52290613  1
  O  O236  1  0.09808313  0.59083566  0.00569337  1
  O  O237  1  0.10137536  0.59250678  0.50499519  1
  O  O238  1  0.08314194  0.92593811  0.02186225  1
  O  O239  1  0.09755739  0.92071743  0.52067587  1
  O  O240  1  0.43825342  0.27112612  0.02861507  1
  O  O241  1  0.43286382  0.24895121  0.51221622  1
  O  O242  1  0.44048198  0.59680016  0.02377751  1
  O  O243  1  0.41827157  0.59186913  0.52101703  1
  O  O244  1  0.44340877  0.93238931  0.02289819  1
  O  O245  1  0.42778410  0.92580695  0.53022500  1
  O  O246  1  0.75965531  0.27270034  0.02592858  1
  O  O247  1  0.76624856  0.26614030  0.52090193  1
  O  O248  1  0.75646077  0.60543400  0.03382166  1
  O  O249  1  0.75941116  0.58753904  0.51129236  1
  O  O250  1  0.75194820  0.92241375  0.02645577  1
  O  O251  1  0.75311507  0.92165126  0.52527950  1
  O  O252  1  0.23040869  0.06157066  0.28057567  1
  O  O253  1  0.25772274  0.07412986  0.77402544  1
  O  O254  1  0.24192319  0.39717372  0.27108677  1
  O  O255  1  0.24247670  0.39623974  0.77198200  1
  O  O256  1  0.24118368  0.73313286  0.28058762  1
  O  O257  1  0.23695516  0.74002501  0.78038844  1
  O  O258  1  0.56926597  0.06866557  0.26623546  1
  O  O259  1  0.57308540  0.07159331  0.77929656  1
  O  O260  1  0.56944310  0.40236264  0.26048007  1
  O  O261  1  0.56338949  0.40177734  0.76938570  1
  O  O262  1  0.57212495  0.74010732  0.26802521  1
  O  O263  1  0.56588022  0.74539754  0.77226353  1
  O  O264  1  0.91191670  0.07132563  0.26421657  1
  O  O265  1  0.90334593  0.07021085  0.77062324  1
  O  O266  1  0.89605054  0.40287244  0.27399546  1
  O  O267  1  0.90403637  0.40286912  0.77967678  1
  O  O268  1  0.90239672  0.75095241  0.26882666  1
  O  O269  1  0.90072168  0.74697721  0.78084845  1
  O  O270  1  0.27339487  0.24148526  0.25880203  1
  O  O271  1  0.27324443  0.24261519  0.78186451  1
  O  O272  1  0.26168844  0.57969621  0.26760751  1
  O  O273  1  0.25893592  0.57688912  0.76547956  1
  O  O274  1  0.26303391  0.89966008  0.28278899  1
  O  O275  1  0.27350292  0.90466533  0.77179641  1
  O  O276  1  0.60258524  0.23492362  0.27204723  1
  O  O277  1  0.59618774  0.23606239  0.78611412  1
  O  O278  1  0.60078342  0.57080943  0.25890022  1
  O  O279  1  0.58485381  0.56990490  0.75931600  1
  O  O280  1  0.59890424  0.89474622  0.26863776  1
  O  O281  1  0.58282416  0.90773511  0.77418946  1
  O  O282  1  0.91997757  0.25144884  0.27585149  1
  O  O283  1  0.92183723  0.23513273  0.77322129  1
  O  O284  1  0.91777301  0.57132767  0.26627929  1
  O  O285  1  0.91991427  0.58369517  0.77155780  1
  O  O286  1  0.92878142  0.90206745  0.27265236  1
  O  O287  1  0.93086492  0.89999244  0.76839220  1
  O  O288  1  0.25871171  0.24715263  0.48359240  1
  O  O289  1  0.27290835  0.23784307  0.98482843  1
  O  O290  1  0.25762803  0.57815646  0.46990871  1
  O  O291  1  0.25655115  0.57150188  0.98305546  1
  O  O292  1  0.26624112  0.89888955  0.47503254  1
  O  O293  1  0.27363822  0.89574094  0.97839083  1
  O  O294  1  0.59638820  0.22647459  0.47435063  1
  O  O295  1  0.60376615  0.23911089  0.97254380  1
  O  O296  1  0.58415347  0.57462840  0.48871254  1
  O  O297  1  0.60411147  0.56991047  0.99070867  1
  O  O298  1  0.60097554  0.90109161  0.47590917  1
  O  O299  1  0.59317682  0.90459744  0.98367015  1
  O  O300  1  0.91965202  0.24729475  0.46551433  1
  O  O301  1  0.91777758  0.24408072  0.97465895  1
  O  O302  1  0.91949914  0.57362002  0.48129447  1
  O  O303  1  0.91874041  0.58319232  0.97708545  1
  O  O304  1  0.92868620  0.90152096  0.47698865  1
  O  O305  1  0.92832320  0.89629290  0.98199867  1
  O  O306  1  0.24268134  0.06119601  0.47924648  1
  O  O307  1  0.24523549  0.07376070  0.97369275  1
  O  O308  1  0.23732440  0.40660380  0.48200341  1
  O  O309  1  0.23470048  0.40184452  0.98038731  1
  O  O310  1  0.23546950  0.73862656  0.46788768  1
  O  O311  1  0.23661503  0.73367514  0.97138264  1
  O  O312  1  0.57265680  0.06460661  0.48069467  1
  O  O313  1  0.56921632  0.06836912  0.97882363  1
  O  O314  1  0.57016700  0.41176007  0.48554130  1
  O  O315  1  0.56853667  0.39777191  0.98141528  1
  O  O316  1  0.57855802  0.74706281  0.47374516  1
  O  O317  1  0.56705594  0.73638342  0.98774202  1
  O  O318  1  0.90689324  0.07414656  0.48272876  1
  O  O319  1  0.90780305  0.06866288  0.99076030  1
  O  O320  1  0.90161694  0.40929458  0.47034917  1
  O  O321  1  0.89703190  0.40201724  0.98253726  1
  O  O322  1  0.90839244  0.75312635  0.47158683  1
  O  O323  1  0.89187312  0.74190607  0.97572578  1
  O  O324  1  0.07598468  0.25327923  0.22341594  1
  O  O325  1  0.10134991  0.26534618  0.72367063  1
  O  O326  1  0.09434488  0.59198812  0.24532271  1
  O  O327  1  0.09712552  0.59654939  0.74989159  1
  O  O328  1  0.08546107  0.92575065  0.22666460  1
  O  O329  1  0.08413602  0.92846361  0.73388314  1
  O  O330  1  0.43699354  0.26497965  0.22445182  1
  O  O331  1  0.42776144  0.26651549  0.73169545  1
  O  O332  1  0.43645431  0.59958980  0.22775538  1
  O  O333  1  0.42377102  0.58463606  0.73259703  1
  O  O334  1  0.43544986  0.92386640  0.22164972  1
  O  O335  1  0.43178946  0.92716738  0.71923657  1
  O  O336  1  0.75886579  0.27320864  0.22468924  1
  O  O337  1  0.77169823  0.25984275  0.73488823  1
  O  O338  1  0.76003675  0.59936990  0.21888569  1
  O  O339  1  0.75667818  0.59584446  0.73669411  1
  O  O340  1  0.75065942  0.92124813  0.22679377  1
  O  O341  1  0.75650807  0.91862268  0.72517782  1
  O  O342  1  0.06405286  0.09173130  0.21923843  1
  O  O343  1  0.07010735  0.08638565  0.74499329  1
  O  O344  1  0.06919794  0.41748150  0.22895206  1
  O  O345  1  0.08331430  0.42191438  0.71668079  1
  O  O346  1  0.06574270  0.76865596  0.22824640  1
  O  O347  1  0.06491146  0.77291611  0.72259396  1
  O  O348  1  0.40691483  0.09947953  0.22812972  1
  O  O349  1  0.41373452  0.08178300  0.72315749  1
  O  O350  1  0.41297355  0.42872907  0.22949149  1
  O  O351  1  0.39974724  0.43006561  0.72337719  1
  O  O352  1  0.40474480  0.76527356  0.22567287  1
  O  O353  1  0.40409845  0.77063510  0.72500066  1
  O  O354  1  0.73010151  0.08832932  0.23754809  1
  O  O355  1  0.73972921  0.09547698  0.74410428  1
  O  O356  1  0.73103810  0.42960985  0.22099910  1
  O  O357  1  0.74433780  0.41872553  0.72950150  1
  O  O358  1  0.73367717  0.76516141  0.22161257  1
  O  O359  1  0.74134822  0.76964543  0.72980980  1
