# generated using pymatgen
data_BaLaInIrO6
_symmetry_space_group_name_H-M   'P 1'
_cell_length_a   17.53282319
_cell_length_b   17.57618450
_cell_length_c   16.52339933
_cell_angle_alpha   90.04962338
_cell_angle_beta   89.98125201
_cell_angle_gamma   90.02157431
_symmetry_Int_Tables_number   1
_chemical_formula_structural   BaLaInIrO6
_chemical_formula_sum   'Ba36 La36 In36 Ir36 O216'
_cell_volume   5091.85042876
_cell_formula_units_Z   36
loop_
 _symmetry_equiv_pos_site_id
 _symmetry_equiv_pos_as_xyz
  1  'x, y, z'
loop_
 _atom_site_type_symbol
 _atom_site_label
 _atom_site_symmetry_multiplicity
 _atom_site_fract_x
 _atom_site_fract_y
 _atom_site_fract_z
 _atom_site_occupancy
  Ba  Ba0  1  0.33208510  0.50554297  0.62280184  1
  Ba  Ba1  1  -0.00322998  0.15606903  0.87273918  1
  Ba  Ba2  1  0.16597228  0.65700081  0.37179148  1
  Ba  Ba3  1  0.16422938  0.32637750  0.36958568  1
  Ba  Ba4  1  0.66402259  0.16210334  0.87415789  1
  Ba  Ba5  1  0.50276902  0.67599162  0.12323577  1
  Ba  Ba6  1  0.16507303  0.01062195  0.62563437  1
  Ba  Ba7  1  0.49628847  0.66144120  0.87549296  1
  Ba  Ba8  1  0.33460359  0.48798629  0.37316667  1
  Ba  Ba9  1  0.16420102  0.33675481  0.62139595  1
  Ba  Ba10  1  1.00095779  0.50557562  0.12508961  1
  Ba  Ba11  1  0.33480850  0.84303359  0.12940184  1
  Ba  Ba12  1  0.82889210  0.67999152  0.12965709  1
  Ba  Ba13  1  0.33140275  0.16116241  0.37326292  1
  Ba  Ba14  1  -0.00162867  0.15405337  0.37246255  1
  Ba  Ba15  1  0.33033427  0.17190188  0.62996370  1
  Ba  Ba16  1  0.33552499  0.84636838  0.62332601  1
  Ba  Ba17  1  0.83792890  0.65614408  0.37262240  1
  Ba  Ba18  1  0.84150481  0.99095201  0.87482243  1
  Ba  Ba19  1  0.83687693  0.34044267  0.62786199  1
  Ba  Ba20  1  0.66627820  0.84445211  0.62492946  1
  Ba  Ba21  1  -0.00077384  0.82447055  0.37553844  1
  Ba  Ba22  1  0.49671699  0.01140905  0.62572691  1
  Ba  Ba23  1  1.00237342  0.50860426  0.62454799  1
  Ba  Ba24  1  -0.00162151  0.82556727  0.87758355  1
  Ba  Ba25  1  0.16877377  0.33787673  0.12451425  1
  Ba  Ba26  1  0.83111713  0.67915784  0.62266447  1
  Ba  Ba27  1  0.83065388  0.00814137  0.12786750  1
  Ba  Ba28  1  0.83373357  0.00800304  0.62114419  1
  Ba  Ba29  1  0.33205309  0.15844546  0.87835470  1
  Ba  Ba30  1  0.66759706  0.48768837  0.37339618  1
  Ba  Ba31  1  0.99951874  0.84478246  0.13113034  1
  Ba  Ba32  1  0.16591746  0.32085692  0.87594462  1
  Ba  Ba33  1  0.83677007  0.32377056  0.37877857  1
  Ba  Ba34  1  0.66857971  0.51075651  0.62393952  1
  Ba  Ba35  1  0.16656731  0.99251380  0.87213221  1
  La  La36  1  0.67743006  0.84956011  0.12756959  1
  La  La37  1  0.50029257  0.98637128  0.37676239  1
  La  La38  1  -0.00124176  0.48756569  0.87549043  1
  La  La39  1  0.33854341  0.51122052  0.12908341  1
  La  La40  1  0.67234779  0.17854230  0.62182053  1
  La  La41  1  0.50530530  0.65119509  0.36879310  1
  La  La42  1  0.84018236  0.98555402  0.37652955  1
  La  La43  1  0.15922847  0.68225552  0.62282220  1
  La  La44  1  0.17033790  0.65577711  0.87356694  1
  La  La45  1  0.50276577  0.98441166  0.87159851  1
  La  La46  1  0.49304167  0.34554086  0.62241474  1
  La  La47  1  0.50796378  0.31512395  0.37725880  1
  La  La48  1  0.66535210  0.82545116  0.87427147  1
  La  La49  1  -0.00410843  0.48850032  0.38009251  1
  La  La50  1  0.84189585  0.31721945  0.87904902  1
  La  La51  1  0.32533025  0.48654345  0.87191492  1
  La  La52  1  0.83765982  0.65386618  0.87412001  1
  La  La53  1  0.32836900  0.81738834  0.38092755  1
  La  La54  1  0.66369564  0.48593333  0.87300202  1
  La  La55  1  0.67433398  0.51514670  0.12615160  1
  La  La56  1  0.66757635  0.81708546  0.37467668  1
  La  La57  1  1.00311579  0.84804268  0.62392945  1
  La  La58  1  1.00712512  0.17776644  0.62174688  1
  La  La59  1  0.15908324  0.01293480  0.12501740  1
  La  La60  1  0.16918086  0.98772880  0.37399032  1
  La  La61  1  0.49186474  0.67968853  0.61729002  1
  La  La62  1  0.66868001  0.18484933  0.12880305  1
  La  La63  1  0.99949987  0.17136278  0.12287649  1
  La  La64  1  0.15630597  0.67973688  0.12184116  1
  La  La65  1  0.33624062  0.18200299  0.12954224  1
  La  La66  1  0.49721020  0.01527252  0.12542915  1
  La  La67  1  0.49501891  0.34545643  0.12731782  1
  La  La68  1  0.83137415  0.34643905  0.12720295  1
  La  La69  1  0.49631659  0.33181390  0.85966356  1
  La  La70  1  0.66794555  0.15403961  0.37541674  1
  La  La71  1  0.32671847  0.82113363  0.87402365  1
  In  In72  1  -0.00050814  0.66830908  0.75139469  1
  In  In73  1  0.50037560  0.16845301  0.00143208  1
  In  In74  1  0.83184855  0.50115420  0.50393739  1
  In  In75  1  0.66332311  0.00351593  -0.00073072  1
  In  In76  1  -0.00177466  0.32924455  0.24838340  1
  In  In77  1  0.66905981  0.00202908  0.75094426  1
  In  In78  1  0.16516304  0.16334052  0.49442769  1
  In  In79  1  0.66791913  0.33140978  0.50109210  1
  In  In80  1  0.49930287  0.83508698  0.00176470  1
  In  In81  1  0.66788064  0.66754738  0.75132295  1
  In  In82  1  0.83039131  0.16676642  0.00451345  1
  In  In83  1  0.16845446  0.49912822  0.24623926  1
  In  In84  1  0.83287694  0.83347964  0.00012399  1
  In  In85  1  0.66844697  0.66758830  -0.00268424  1
  In  In86  1  0.33349247  0.00077178  0.75221217  1
  In  In87  1  0.50055660  0.16806098  0.75059105  1
  In  In88  1  0.33355237  0.66563557  0.25013180  1
  In  In89  1  0.16694802  0.83563091  -0.00208392  1
  In  In90  1  0.50004888  0.49838756  -0.00145791  1
  In  In91  1  0.83325774  0.16519311  0.74634526  1
  In  In92  1  0.50001884  0.49877278  0.49789917  1
  In  In93  1  0.33476235  0.00261730  0.49681020  1
  In  In94  1  0.00196147  0.33149474  0.00272627  1
  In  In95  1  0.16929608  0.83593203  0.25073856  1
  In  In96  1  0.66562697  0.33457074  -0.00088168  1
  In  In97  1  0.50223452  0.83514464  0.24859375  1
  In  In98  1  0.16640993  0.50277879  0.74693377  1
  In  In99  1  0.49874932  0.83198774  0.75151928  1
  In  In100  1  -0.00082259  0.33567836  0.75073808  1
  In  In101  1  0.49861816  0.50574812  0.75008958  1
  In  In102  1  0.33393108  0.33404895  0.00168941  1
  In  In103  1  0.50114961  0.83404145  0.49574417  1
  In  In104  1  0.33002037  0.66605851  0.00178012  1
  In  In105  1  0.33339268  0.33108565  0.49711700  1
  In  In106  1  -0.00075931  0.66498282  0.24720440  1
  In  In107  1  -0.00095740  0.66698034  0.49972312  1
  Ir  Ir108  1  0.16680241  0.83478030  0.50140057  1
  Ir  Ir109  1  0.33498475  0.00505894  0.24793184  1
  Ir  Ir110  1  0.00008900  0.33235767  0.49822336  1
  Ir  Ir111  1  0.16520919  0.83172664  0.74732958  1
  Ir  Ir112  1  0.83014255  0.83665051  0.49904764  1
  Ir  Ir113  1  0.00146262  0.00112387  0.00339169  1
  Ir  Ir114  1  0.16872720  0.16053877  0.00276260  1
  Ir  Ir115  1  0.67024900  0.00238359  0.49296724  1
  Ir  Ir116  1  0.33307661  0.33303763  0.74922460  1
  Ir  Ir117  1  0.50518689  0.49498228  0.24777953  1
  Ir  Ir118  1  0.83472373  0.83399369  0.74783125  1
  Ir  Ir119  1  0.83026142  0.16488593  0.25241215  1
  Ir  Ir120  1  -0.00026369  0.00372512  0.25140855  1
  Ir  Ir121  1  0.50390892  0.16376958  0.25381590  1
  Ir  Ir122  1  0.82927125  0.83801211  0.25430345  1
  Ir  Ir123  1  0.32989591  0.66581362  0.50226789  1
  Ir  Ir124  1  0.16800768  0.50204559  -0.00340073  1
  Ir  Ir125  1  0.00056544  0.66152345  -0.00190270  1
  Ir  Ir126  1  0.83010135  0.49553900  0.24683919  1
  Ir  Ir127  1  0.66324636  0.66947697  0.49518928  1
  Ir  Ir128  1  0.33284333  0.00242673  0.00723909  1
  Ir  Ir129  1  0.32893492  0.66832806  0.74516105  1
  Ir  Ir130  1  0.83576596  0.16436202  0.49829655  1
  Ir  Ir131  1  0.00133359  -0.00385411  0.74832993  1
  Ir  Ir132  1  0.50753771  0.16494912  0.49713056  1
  Ir  Ir133  1  0.16561147  0.50113823  0.49795813  1
  Ir  Ir134  1  0.82975640  0.49987401  0.75789979  1
  Ir  Ir135  1  0.66779215  0.33621870  0.75017234  1
  Ir  Ir136  1  0.16807626  0.16163382  0.24366122  1
  Ir  Ir137  1  0.66499770  0.00208589  0.25743049  1
  Ir  Ir138  1  0.34040593  0.32960271  0.24838946  1
  Ir  Ir139  1  -0.00116796  -0.00199042  0.49905787  1
  Ir  Ir140  1  0.66475948  0.33006432  0.25019784  1
  Ir  Ir141  1  0.66662334  0.66451663  0.25371968  1
  Ir  Ir142  1  0.83049356  0.50140462  -0.00044167  1
  Ir  Ir143  1  0.16419393  0.16634671  0.75253441  1
  O  O144  1  0.31607659  0.32409004  0.13080085  1
  O  O145  1  0.31538722  0.33162458  0.63034504  1
  O  O146  1  0.29345127  0.65510051  0.12533419  1
  O  O147  1  0.29636339  0.66291824  0.62364263  1
  O  O148  1  0.29826411  0.99809900  0.12902930  1
  O  O149  1  0.31634706  1.00265029  0.62320496  1
  O  O150  1  0.63411073  0.32880882  0.13264545  1
  O  O151  1  0.63261323  0.32757259  0.62994203  1
  O  O152  1  0.65125109  0.65246376  0.13261377  1
  O  O153  1  0.63258256  0.66764289  0.61625045  1
  O  O154  1  0.63318236  0.98888888  0.13867710  1
  O  O155  1  0.64751701  0.99899546  0.61135256  1
  O  O156  1  0.96842196  0.31960557  0.12466237  1
  O  O157  1  0.99025198  0.32038724  0.62082918  1
  O  O158  1  0.97798674  0.66132879  0.11639443  1
  O  O159  1  0.98228655  0.66462301  0.62578008  1
  O  O160  1  0.97969974  1.00892000  0.12787718  1
  O  O161  1  0.98002778  0.98470457  0.62390176  1
  O  O162  1  0.19868985  0.15128763  0.12352721  1
  O  O163  1  0.17485735  0.16950195  0.63063234  1
  O  O164  1  0.20204629  0.49510645  0.11350844  1
  O  O165  1  0.18220902  0.49322009  0.61818873  1
  O  O166  1  0.18539153  0.82263391  0.12386362  1
  O  O167  1  0.18874365  0.82156647  0.62535882  1
  O  O168  1  0.53369466  0.15143770  0.13666454  1
  O  O169  1  0.53621830  0.16389835  0.61696133  1
  O  O170  1  0.53866859  0.48345697  0.12951964  1
  O  O171  1  0.51927289  0.48621249  0.62556056  1
  O  O172  1  0.53969445  0.83861386  0.12730210  1
  O  O173  1  0.51582863  0.81624026  0.62126083  1
  O  O174  1  0.86184284  0.16343875  0.13481999  1
  O  O175  1  0.86986325  0.16312233  0.61635909  1
  O  O176  1  0.85069563  0.48651291  0.12186377  1
  O  O177  1  0.85158354  0.49833350  0.63828687  1
  O  O178  1  0.84743782  0.83770077  0.13463432  1
  O  O179  1  0.86422309  0.83281333  0.62313533  1
  O  O180  1  0.14844175  0.16511309  0.36237263  1
  O  O181  1  0.14519862  0.16370215  0.88093075  1
  O  O182  1  0.13505983  0.50354432  0.37842200  1
  O  O183  1  0.13547664  0.51320041  0.87903927  1
  O  O184  1  0.14749149  0.84950453  0.38128004  1
  O  O185  1  0.14699794  0.83254091  0.86670685  1
  O  O186  1  0.48076330  0.17742511  0.37552596  1
  O  O187  1  0.48214544  0.19709798  0.87751906  1
  O  O188  1  0.48281686  0.51132276  0.36773141  1
  O  O189  1  0.46077690  0.49894824  0.87310589  1
  O  O190  1  0.46608745  0.84479017  0.37141994  1
  O  O191  1  0.45929895  0.84492157  0.87704611  1
  O  O192  1  0.80263962  0.16801386  0.37527770  1
  O  O193  1  0.81426009  0.17654822  0.87497870  1
  O  O194  1  0.81832868  0.49455702  0.36675433  1
  O  O195  1  0.79924618  0.51220445  0.87983002  1
  O  O196  1  0.80127172  0.84610440  0.37629435  1
  O  O197  1  0.80692106  0.83673811  0.86877210  1
  O  O198  1  0.03010402  0.00043287  0.37523918  1
  O  O199  1  0.01971795  -0.00155437  0.87719846  1
  O  O200  1  0.01009834  0.34689521  0.37609581  1
  O  O201  1  0.01373944  0.34781958  0.87865711  1
  O  O202  1  0.01337851  0.66175499  0.37382195  1
  O  O203  1  0.03040594  0.66262388  0.87981853  1
  O  O204  1  0.36656010  0.01097627  0.36512922  1
  O  O205  1  0.36370238  0.00533093  0.88928618  1
  O  O206  1  0.37021613  0.32940247  0.36752201  1
  O  O207  1  0.35932320  0.34007519  0.87224552  1
  O  O208  1  0.36498090  0.67117563  0.38321758  1
  O  O209  1  0.34735119  0.67841801  0.86500808  1
  O  O210  1  0.70267877  0.01589809  0.37423909  1
  O  O211  1  0.69549746  0.01224951  0.87595732  1
  O  O212  1  0.68635702  0.32558795  0.36855236  1
  O  O213  1  0.70332377  0.34095924  0.86997515  1
  O  O214  1  0.69090018  0.67677421  0.37459031  1
  O  O215  1  0.70693042  0.68429503  0.87494586  1
  O  O216  1  0.07475913  0.09179004  0.03019797  1
  O  O217  1  0.06336112  0.09232339  0.52154235  1
  O  O218  1  0.07981569  0.42920787  0.01508797  1
  O  O219  1  0.06691530  0.43280598  0.50733729  1
  O  O220  1  0.07034507  0.75152680  0.01922420  1
  O  O221  1  0.07529382  0.76546273  0.52463167  1
  O  O222  1  0.39548402  0.09676048  0.03409079  1
  O  O223  1  0.41532922  0.10136522  0.51213537  1
  O  O224  1  0.40753484  0.42515120  0.03560133  1
  O  O225  1  0.40962248  0.42008447  0.51724685  1
  O  O226  1  0.40349521  0.76090558  0.01600454  1
  O  O227  1  0.40123670  0.75393832  0.51739780  1
  O  O228  1  0.73020355  0.10284661  0.03381087  1
  O  O229  1  0.73475008  0.10149089  0.51581173  1
  O  O230  1  0.73359197  0.43878489  0.02105799  1
  O  O231  1  0.74337490  0.42261121  0.51541466  1
  O  O232  1  0.73586382  0.76550932  0.02883695  1
  O  O233  1  0.73115122  0.76989831  0.50789316  1
  O  O234  1  0.09266664  0.24543067  0.02367287  1
  O  O235  1  0.08553772  0.25644318  0.50797794  1
  O  O236  1  0.09986736  0.59645942  0.02179390  1
  O  O237  1  0.10302826  0.59633619  0.52110723  1
  O  O238  1  0.09471113  0.93346710  0.02300763  1
  O  O239  1  0.09196467  0.92487110  0.52269203  1
  O  O240  1  0.42700143  0.25898148  0.03661136  1
  O  O241  1  0.44565760  0.26167469  0.51653621  1
  O  O242  1  0.41841684  0.58515421  0.02741549  1
  O  O243  1  0.42492991  0.59986606  0.52195661  1
  O  O244  1  0.42662197  0.94063814  0.03069172  1
  O  O245  1  0.43320397  0.93286843  0.50477644  1
  O  O246  1  0.76610759  0.27235668  0.02848350  1
  O  O247  1  0.76180372  0.25028847  0.52418205  1
  O  O248  1  0.76686352  0.59272846  0.01806621  1
  O  O249  1  0.75309641  0.59907020  0.51253368  1
  O  O250  1  0.75107362  0.92258768  0.02457172  1
  O  O251  1  0.76537191  0.93515233  0.50634661  1
  O  O252  1  0.23456944  0.06464343  0.26792675  1
  O  O253  1  0.23666983  0.07930292  0.76525578  1
  O  O254  1  0.25080819  0.39998472  0.26452511  1
  O  O255  1  0.24740384  0.41019108  0.77278811  1
  O  O256  1  0.25228411  0.75195810  0.28143051  1
  O  O257  1  0.22978308  0.73304404  0.76803882  1
  O  O258  1  0.57129300  0.06971295  0.28395236  1
  O  O259  1  0.56756258  0.06994316  0.77566899  1
  O  O260  1  0.56806080  0.39551772  0.27494220  1
  O  O261  1  0.58002725  0.40855390  0.77692974  1
  O  O262  1  0.57770420  0.73552104  0.27990635  1
  O  O263  1  0.57986377  0.74579126  0.77702689  1
  O  O264  1  0.89790709  0.06971394  0.27552495  1
  O  O265  1  0.91374496  0.06876654  0.76039667  1
  O  O266  1  0.89733563  0.40433227  0.25521816  1
  O  O267  1  0.89631649  0.40994595  0.78266030  1
  O  O268  1  0.90269685  0.74954300  0.26511599  1
  O  O269  1  0.89947882  0.73883387  0.77431643  1
  O  O270  1  0.26666039  0.23066767  0.25580473  1
  O  O271  1  0.25709622  0.24105465  0.77064204  1
  O  O272  1  0.26594802  0.56697260  0.26494271  1
  O  O273  1  0.26630861  0.57411738  0.77376999  1
  O  O274  1  0.26934197  0.91405579  0.27915938  1
  O  O275  1  0.26090680  0.89660818  0.77159235  1
  O  O276  1  0.59876216  0.23260284  0.27762910  1
  O  O277  1  0.59282347  0.25320774  0.76876738  1
  O  O278  1  0.59421104  0.57249709  0.27364716  1
  O  O279  1  0.59879111  0.57003634  0.77943564  1
  O  O280  1  0.59934758  0.91044712  0.28723993  1
  O  O281  1  0.59750733  0.90537486  0.77620393  1
  O  O282  1  0.92055736  0.23284951  0.26755087  1
  O  O283  1  0.91581433  0.25060531  0.76614469  1
  O  O284  1  0.92492651  0.56146438  0.26647016  1
  O  O285  1  0.92446337  0.56702760  0.78210534  1
  O  O286  1  0.92182488  0.91428243  0.27797171  1
  O  O287  1  0.93444182  0.89802944  0.75950159  1
  O  O288  1  0.25745337  0.24064566  0.48672642  1
  O  O289  1  0.25649649  0.23642475  0.99288725  1
  O  O290  1  0.25936120  0.57075239  0.48166239  1
  O  O291  1  0.25557558  0.57077230  0.96450654  1
  O  O292  1  0.26047562  0.90181807  0.47406943  1
  O  O293  1  0.27120254  0.90598920  0.97874376  1
  O  O294  1  0.60149233  0.22822223  0.47691149  1
  O  O295  1  0.60431930  0.23107508  1.00354803  1
  O  O296  1  0.59071357  0.58164717  0.47518308  1
  O  O297  1  0.60225832  0.56429692  0.97951378  1
  O  O298  1  0.60365771  0.90893308  0.46771934  1
  O  O299  1  0.59120649  0.90717746  0.96218733  1
  O  O300  1  0.93328733  0.23464636  0.48552316  1
  O  O301  1  0.92270428  0.24292067  0.98091031  1
  O  O302  1  0.92917790  0.56683190  0.47944508  1
  O  O303  1  0.92933057  0.56594942  0.97269513  1
  O  O304  1  0.92562873  0.90660603  0.47981069  1
  O  O305  1  0.93021420  0.90976593  0.99074525  1
  O  O306  1  0.23254113  0.06501786  0.47277217  1
  O  O307  1  0.23642455  0.06596569  0.98851748  1
  O  O308  1  0.23489812  0.41089404  0.48058705  1
  O  O309  1  0.24277262  0.41550150  0.97204589  1
  O  O310  1  0.23974940  0.74163921  0.47840350  1
  O  O311  1  0.23376207  0.73702314  0.97205901  1
  O  O312  1  0.57465593  0.06880168  0.46747695  1
  O  O313  1  0.55356277  0.06101983  0.98603912  1
  O  O314  1  0.56784496  0.39677944  0.47633507  1
  O  O315  1  0.56839530  0.39910404  0.96460988  1
  O  O316  1  0.57011225  0.73560481  0.46769759  1
  O  O317  1  0.57685583  0.74274604  0.97676672  1
  O  O318  1  0.90368525  0.06658458  0.47265331  1
  O  O319  1  0.91397013  0.07355595  0.99078780  1
  O  O320  1  0.91440256  0.40668727  0.48999672  1
  O  O321  1  0.89519267  0.40825959  0.98129220  1
  O  O322  1  0.89973240  0.74770683  0.48498003  1
  O  O323  1  0.90576281  0.72832154  0.97652056  1
  O  O324  1  0.09117838  0.24596390  0.22304189  1
  O  O325  1  0.08831519  0.25079740  0.73946084  1
  O  O326  1  0.09940785  0.59682544  0.21934126  1
  O  O327  1  0.10651712  0.60865329  0.73371033  1
  O  O328  1  0.09707599  0.93991595  0.23326212  1
  O  O329  1  0.09410636  0.92340212  0.72733042  1
  O  O330  1  0.43845095  0.25939607  0.22523788  1
  O  O331  1  0.42903756  0.26884860  0.72611130  1
  O  O332  1  0.43210599  0.58226312  0.22542142  1
  O  O333  1  0.42570172  0.60516391  0.72084881  1
  O  O334  1  0.43182701  0.94287636  0.22940679  1
  O  O335  1  0.42971451  0.92944882  0.73880786  1
  O  O336  1  0.76015467  0.26047971  0.22097735  1
  O  O337  1  0.74813759  0.25968512  0.72362529  1
  O  O338  1  0.75694387  0.58565177  0.23016277  1
  O  O339  1  0.76650576  0.59314048  0.73976355  1
  O  O340  1  0.75382124  0.92920989  0.23446487  1
  O  O341  1  0.76752327  0.92355689  0.73156514  1
  O  O342  1  0.07150272  0.09470420  0.22005826  1
  O  O343  1  0.06813957  0.09643425  0.72788192  1
  O  O344  1  0.07652932  0.42113934  0.23737167  1
  O  O345  1  0.06776210  0.43369590  0.74519582  1
  O  O346  1  0.07903508  0.75676741  0.23378465  1
  O  O347  1  0.07101693  0.76857190  0.72296923  1
  O  O348  1  0.40619854  0.09874121  0.22133450  1
  O  O349  1  0.40536572  0.09759243  0.74111858  1
  O  O350  1  0.41105976  0.42351005  0.22046276  1
  O  O351  1  0.40880656  0.41765299  0.73446661  1
  O  O352  1  0.41426639  0.75420943  0.23230595  1
  O  O353  1  0.39887090  0.75534481  0.72869353  1
  O  O354  1  0.72970737  0.10112574  0.23325866  1
  O  O355  1  0.73590137  0.09973041  0.71762011  1
  O  O356  1  0.73348780  0.42427270  0.21961234  1
  O  O357  1  0.73501145  0.43222128  0.73768736  1
  O  O358  1  0.73098566  0.76833277  0.23576328  1
  O  O359  1  0.74567662  0.76631380  0.72980161  1
