# generated using pymatgen
data_BaLaInIrO6
_symmetry_space_group_name_H-M   'P 1'
_cell_length_a   17.51818667
_cell_length_b   17.53599228
_cell_length_c   16.48455858
_cell_angle_alpha   89.99008314
_cell_angle_beta   90.01113679
_cell_angle_gamma   89.97899165
_symmetry_Int_Tables_number   1
_chemical_formula_structural   BaLaInIrO6
_chemical_formula_sum   'Ba36 La36 In36 Ir36 O216'
_cell_volume   5064.03587302
_cell_formula_units_Z   36
loop_
 _symmetry_equiv_pos_site_id
 _symmetry_equiv_pos_as_xyz
  1  'x, y, z'
loop_
 _atom_site_type_symbol
 _atom_site_label
 _atom_site_symmetry_multiplicity
 _atom_site_fract_x
 _atom_site_fract_y
 _atom_site_fract_z
 _atom_site_occupancy
  Ba  Ba0  1  0.50605195  0.99134192  0.87108954  1
  Ba  Ba1  1  0.16721519  0.00678882  0.62417091  1
  Ba  Ba2  1  -0.00061346  0.82832871  0.37264798  1
  Ba  Ba3  1  0.16877261  0.65999380  0.37437784  1
  Ba  Ba4  1  0.50097508  0.32543188  0.87841359  1
  Ba  Ba5  1  0.50554811  0.32569403  0.37964719  1
  Ba  Ba6  1  0.66160445  0.82148873  0.87276697  1
  Ba  Ba7  1  0.33247716  0.48901925  0.87221336  1
  Ba  Ba8  1  0.66411913  0.15569659  0.87718502  1
  Ba  Ba9  1  0.33128244  0.84403120  0.62780545  1
  Ba  Ba10  1  0.83430086  0.32870597  0.37611685  1
  Ba  Ba11  1  0.00231391  0.49182170  0.87703969  1
  Ba  Ba12  1  0.16816254  0.67202956  0.62867805  1
  Ba  Ba13  1  0.50287848  0.66032510  0.37100229  1
  Ba  Ba14  1  0.82800759  0.68482605  0.12096825  1
  Ba  Ba15  1  0.66088722  0.82467051  0.37384245  1
  Ba  Ba16  1  0.66333485  0.15293459  0.37624489  1
  Ba  Ba17  1  0.33095475  0.82817923  0.37475326  1
  Ba  Ba18  1  0.33862138  0.51017238  0.62651084  1
  Ba  Ba19  1  0.16950335  0.00749567  0.12553286  1
  Ba  Ba20  1  0.83364469  0.98629430  0.87492342  1
  Ba  Ba21  1  0.66564452  0.84296134  0.61937864  1
  Ba  Ba22  1  0.83718791  0.34078007  0.12678037  1
  Ba  Ba23  1  0.33511309  0.82852375  0.87578111  1
  Ba  Ba24  1  0.49771209  0.00275125  0.12296378  1
  Ba  Ba25  1  0.50124224  0.98943982  0.37364854  1
  Ba  Ba26  1  0.83459548  0.99036232  0.37477330  1
  Ba  Ba27  1  0.66793991  0.84809368  0.12453883  1
  Ba  Ba28  1  0.99567989  0.84507744  0.12176202  1
  Ba  Ba29  1  0.16506820  0.99453224  0.87197173  1
  Ba  Ba30  1  -0.00219204  0.15952493  0.37562192  1
  Ba  Ba31  1  0.66722296  0.50783219  0.62309020  1
  Ba  Ba32  1  0.16474612  0.65802080  0.87539267  1
  Ba  Ba33  1  1.00296014  0.50597793  0.62439989  1
  Ba  Ba34  1  0.16628465  0.98997197  0.37822229  1
  Ba  Ba35  1  0.50310523  0.67738627  0.12258117  1
  La  La36  1  0.32550149  0.15099201  0.38050201  1
  La  La37  1  0.66170860  0.48678687  0.87668007  1
  La  La38  1  0.98836122  0.16469442  0.12681450  1
  La  La39  1  0.16386712  0.68519192  0.11945575  1
  La  La40  1  0.83455590  0.65342477  0.87571743  1
  La  La41  1  0.83711257  0.31743302  0.87946201  1
  La  La42  1  0.67392924  0.51684012  0.12149263  1
  La  La43  1  0.33881215  0.51248218  0.11960673  1
  La  La44  1  0.66738157  0.49566871  0.36101823  1
  La  La45  1  0.33886579  0.18133791  0.62917274  1
  La  La46  1  -0.00306491  0.49025543  0.37335865  1
  La  La47  1  0.82593633  0.01372275  0.61458186  1
  La  La48  1  0.83901231  0.65547851  0.36961618  1
  La  La49  1  0.49726586  0.01533124  0.62489232  1
  La  La50  1  0.16763661  0.34877355  0.62944566  1
  La  La51  1  -0.00549090  0.15253272  0.87572041  1
  La  La52  1  0.49779640  0.34733373  0.12303222  1
  La  La53  1  0.33128265  0.48543879  0.37670945  1
  La  La54  1  0.82531170  0.00842052  0.12853619  1
  La  La55  1  -0.00980241  0.81652800  0.87353060  1
  La  La56  1  0.33253522  0.15293682  0.87415648  1
  La  La57  1  0.33830011  0.84664379  0.12473659  1
  La  La58  1  1.00753998  0.18174007  0.62490230  1
  La  La59  1  1.00655210  0.84589566  0.62300402  1
  La  La60  1  0.34079764  0.18119373  0.12125128  1
  La  La61  1  0.82938222  0.34710874  0.63041576  1
  La  La62  1  0.49360364  0.68426929  0.62676362  1
  La  La63  1  0.17322987  0.31941201  0.87343111  1
  La  La64  1  0.50458790  0.65080704  0.87214034  1
  La  La65  1  0.66468440  0.17916810  0.62639444  1
  La  La66  1  1.00480572  0.51611048  0.12580414  1
  La  La67  1  0.17329774  0.31996236  0.38055897  1
  La  La68  1  0.66289467  0.17084890  0.12918004  1
  La  La69  1  0.49784353  0.35140938  0.62785717  1
  La  La70  1  0.82598459  0.67944069  0.62484244  1
  La  La71  1  0.16454522  0.33961345  0.12363789  1
  In  In72  1  0.66843365  0.33106175  0.00162160  1
  In  In73  1  0.00329762  0.33265076  0.00056029  1
  In  In74  1  0.33245052  0.66710722  -0.00005246  1
  In  In75  1  -0.00327204  0.66584260  0.00104110  1
  In  In76  1  0.00308431  0.33310984  0.24926688  1
  In  In77  1  0.17057979  0.49662116  0.00348570  1
  In  In78  1  0.66681963  0.33457141  0.50250961  1
  In  In79  1  0.66605606  0.66500542  0.49855128  1
  In  In80  1  0.16422923  0.83352289  0.75223023  1
  In  In81  1  0.50092547  0.50225335  0.49576030  1
  In  In82  1  0.16914006  0.16901894  0.24937312  1
  In  In83  1  0.16200536  0.83825091  -0.00276192  1
  In  In84  1  0.00050299  0.33427995  0.75315312  1
  In  In85  1  0.49994125  0.83213124  0.24884880  1
  In  In86  1  0.83467572  0.16746980  0.74928397  1
  In  In87  1  0.33492736  0.66649120  0.75314773  1
  In  In88  1  -0.00276162  0.00270330  0.50196779  1
  In  In89  1  0.33217213  0.00345496  0.24971549  1
  In  In90  1  0.50152014  0.83166001  -0.00278650  1
  In  In91  1  -0.00405747  -0.00155499  0.74955381  1
  In  In92  1  -0.00170187  0.66626208  0.50076349  1
  In  In93  1  0.83133987  0.83195664  0.74603343  1
  In  In94  1  0.16946676  0.49829938  0.24934975  1
  In  In95  1  0.33471311  0.33263120  0.25091974  1
  In  In96  1  0.50137525  0.17132664  0.75276135  1
  In  In97  1  0.49785230  0.16870352  0.25195495  1
  In  In98  1  0.83380446  0.17077569  0.50128400  1
  In  In99  1  0.66772005  0.00058537  0.74644296  1
  In  In100  1  0.00230244  0.66864143  0.24767476  1
  In  In101  1  0.16864746  0.50136509  0.49917394  1
  In  In102  1  0.66636089  0.33346603  0.24847241  1
  In  In103  1  0.16714817  0.16676255  -0.00008742  1
  In  In104  1  0.83523014  0.50166459  0.50164414  1
  In  In105  1  0.16685843  0.83192241  0.50086579  1
  In  In106  1  -0.00088662  0.00031644  0.24822246  1
  In  In107  1  0.33258608  0.66411937  0.24943067  1
  Ir  Ir108  1  0.66011547  0.00035478  0.50026743  1
  Ir  Ir109  1  0.66482507  0.66294218  0.75003720  1
  Ir  Ir110  1  0.83059468  0.49901805  -0.00026538  1
  Ir  Ir111  1  0.33387042  0.00281037  -0.00561730  1
  Ir  Ir112  1  0.50431688  0.49841622  0.00123162  1
  Ir  Ir113  1  0.83365309  0.50080468  0.24562664  1
  Ir  Ir114  1  0.16937725  0.16988473  0.74674710  1
  Ir  Ir115  1  0.00522030  0.33310063  0.50283492  1
  Ir  Ir116  1  0.49969926  0.16576171  0.00172708  1
  Ir  Ir117  1  0.66715000  0.00200751  0.25095049  1
  Ir  Ir118  1  0.83200853  0.16423455  0.00078378  1
  Ir  Ir119  1  0.16832333  0.83323470  0.24618467  1
  Ir  Ir120  1  0.50038800  0.83377038  0.74656402  1
  Ir  Ir121  1  0.50440826  0.49925741  0.75386732  1
  Ir  Ir122  1  0.17074923  0.17118847  0.50870627  1
  Ir  Ir123  1  0.33315446  0.33310716  0.74994304  1
  Ir  Ir124  1  0.67205910  0.66447406  0.24562693  1
  Ir  Ir125  1  0.83061985  0.16612578  0.24808470  1
  Ir  Ir126  1  0.66755421  0.00426218  0.00236024  1
  Ir  Ir127  1  0.16602491  0.49729042  0.75075534  1
  Ir  Ir128  1  0.82825001  0.49915769  0.75591483  1
  Ir  Ir129  1  0.49812429  0.16681630  0.50394064  1
  Ir  Ir130  1  0.33622098  0.33047122  0.50427020  1
  Ir  Ir131  1  0.49770855  0.83543382  0.50317799  1
  Ir  Ir132  1  0.82794155  0.83369591  0.25067156  1
  Ir  Ir133  1  0.33483531  0.32884091  -0.00394785  1
  Ir  Ir134  1  -0.01023441  0.66002151  0.74966683  1
  Ir  Ir135  1  0.33533712  0.00567386  0.74850108  1
  Ir  Ir136  1  -0.00710813  0.00332531  0.00040408  1
  Ir  Ir137  1  0.50086699  0.50067109  0.24315530  1
  Ir  Ir138  1  0.33571282  0.00558111  0.50737842  1
  Ir  Ir139  1  0.83163190  0.82959861  0.49657581  1
  Ir  Ir140  1  0.66914200  0.33717429  0.75209522  1
  Ir  Ir141  1  0.33935351  0.66735169  0.49987670  1
  Ir  Ir142  1  0.82864429  0.83522817  -0.00160092  1
  Ir  Ir143  1  0.67013820  0.66332776  -0.00505238  1
  O  O144  1  0.30323152  0.31996343  0.11616141  1
  O  O145  1  0.30390699  0.32200774  0.62737039  1
  O  O146  1  0.29823614  0.64677232  0.12615371  1
  O  O147  1  0.32520341  0.66490450  0.62030683  1
  O  O148  1  0.31912007  0.99152097  0.11485851  1
  O  O149  1  0.31533870  1.00768945  0.62780419  1
  O  O150  1  0.63467197  0.31914553  0.12384836  1
  O  O151  1  0.63639879  0.32773041  0.63437014  1
  O  O152  1  0.64973376  0.65427421  0.11966624  1
  O  O153  1  0.63228447  0.65972339  0.63106116  1
  O  O154  1  0.64859896  1.01406350  0.12642501  1
  O  O155  1  0.63220738  0.99949844  0.61776994  1
  O  O156  1  0.98689473  0.30324549  0.12405400  1
  O  O157  1  0.96918351  0.32572337  0.62382821  1
  O  O158  1  0.97249005  0.65384314  0.12571423  1
  O  O159  1  0.95929321  0.65430133  0.63083965  1
  O  O160  1  0.96415840  1.00385510  0.12033441  1
  O  O161  1  0.95978566  0.98689219  0.62583065  1
  O  O162  1  0.20373758  0.17141174  0.12299199  1
  O  O163  1  0.20354044  0.16674678  0.62827501  1
  O  O164  1  0.20867959  0.47042500  0.12724828  1
  O  O165  1  0.18802547  0.48945383  0.62984393  1
  O  O166  1  0.19594033  0.83302068  0.12580767  1
  O  O167  1  0.18072244  0.82855921  0.62697419  1
  O  O168  1  0.52724968  0.16192702  0.11982089  1
  O  O169  1  0.52797111  0.16008727  0.62256072  1
  O  O170  1  0.53658715  0.48891658  0.12269381  1
  O  O171  1  0.51799992  0.49074923  0.63285543  1
  O  O172  1  0.51802195  0.83837614  0.12223121  1
  O  O173  1  0.51803070  0.82486669  0.62499636  1
  O  O174  1  0.85590101  0.15270033  0.12366100  1
  O  O175  1  0.87212684  0.16218087  0.62671456  1
  O  O176  1  0.86612947  0.49463379  0.12193866  1
  O  O177  1  0.85359157  0.48766398  0.63643035  1
  O  O178  1  0.84601591  0.84361793  0.12481828  1
  O  O179  1  0.86238259  0.81736164  0.61668787  1
  O  O180  1  0.14849351  0.18002276  0.38891221  1
  O  O181  1  0.13627507  0.17591608  0.86669890  1
  O  O182  1  0.13233887  0.49985281  0.37537610  1
  O  O183  1  0.15130922  0.49487795  0.87082498  1
  O  O184  1  0.15233373  0.83032484  0.36856489  1
  O  O185  1  0.12558251  0.83787207  0.87386547  1
  O  O186  1  0.46494451  0.17091999  0.38485009  1
  O  O187  1  0.47088280  0.16964788  0.88076714  1
  O  O188  1  0.46850731  0.50211627  0.36453428  1
  O  O189  1  0.48228316  0.51071485  0.87763385  1
  O  O190  1  0.48392895  0.83179935  0.38225944  1
  O  O191  1  0.48686650  0.83338238  0.86696792  1
  O  O192  1  0.81249989  0.17355887  0.36938908  1
  O  O193  1  0.81096974  0.17718684  0.88043029  1
  O  O194  1  0.80227546  0.50759408  0.36644499  1
  O  O195  1  0.79654944  0.51077273  0.87855497  1
  O  O196  1  0.80647865  0.83349516  0.37335123  1
  O  O197  1  0.81129493  0.83019855  0.87840278  1
  O  O198  1  0.01319565  0.00395876  0.37421935  1
  O  O199  1  0.01653065  0.01369302  0.88151175  1
  O  O200  1  0.03440218  0.34169418  0.38203277  1
  O  O201  1  0.03541452  0.33674880  0.87607655  1
  O  O202  1  0.01694560  0.66972878  0.37167601  1
  O  O203  1  0.01162046  0.67156266  0.86973450  1
  O  O204  1  0.35240429  0.01177913  0.38702143  1
  O  O205  1  0.35818907  0.01578088  0.87024437  1
  O  O206  1  0.35931411  0.34201553  0.38508154  1
  O  O207  1  0.35721214  0.33470942  0.87181010  1
  O  O208  1  0.35449590  0.67078731  0.38096473  1
  O  O209  1  0.37063099  0.66695673  0.87623166  1
  O  O210  1  0.68586469  -0.00220360  0.37429625  1
  O  O211  1  0.68366539  0.00116102  0.88050408  1
  O  O212  1  0.68348747  0.35497712  0.37506787  1
  O  O213  1  0.70103433  0.34440537  0.87341131  1
  O  O214  1  0.69873837  0.66053189  0.36591596  1
  O  O215  1  0.69818615  0.66441822  0.87246775  1
  O  O216  1  0.05746663  0.10222970  0.01713269  1
  O  O217  1  0.07467246  0.10505173  0.52873791  1
  O  O218  1  0.06909153  0.43159505  0.03306866  1
  O  O219  1  0.08235870  0.41274399  0.52641011  1
  O  O220  1  0.07132598  0.75867307  0.01895632  1
  O  O221  1  0.06265994  0.76502821  0.52374833  1
  O  O222  1  0.40015388  0.10190572  0.01763496  1
  O  O223  1  0.40367736  0.10162092  0.53130234  1
  O  O224  1  0.41035905  0.42386579  0.02769378  1
  O  O225  1  0.40617512  0.42055709  0.52131477  1
  O  O226  1  0.40134524  0.76519937  0.02630989  1
  O  O227  1  0.40825074  0.76190947  0.52339271  1
  O  O228  1  0.73647079  0.09892826  0.02807570  1
  O  O229  1  0.72958703  0.09182000  0.52730123  1
  O  O230  1  0.73790782  0.43329146  0.02310853  1
  O  O231  1  0.75538106  0.41602254  0.52500147  1
  O  O232  1  0.73361811  0.76312646  0.01383071  1
  O  O233  1  0.74226827  0.76038068  0.51575641  1
  O  O234  1  0.11283448  0.27303571  0.01057558  1
  O  O235  1  0.09858975  0.26152065  0.53514833  1
  O  O236  1  0.09544779  0.59300268  0.02536105  1
  O  O237  1  0.09238226  0.59104249  0.51962228  1
  O  O238  1  0.08444829  0.93747272  0.01854155  1
  O  O239  1  0.08557163  0.92335223  0.51944082  1
  O  O240  1  0.43147095  0.26071435  0.02757126  1
  O  O241  1  0.43051767  0.26139271  0.53512840  1
  O  O242  1  0.43205323  0.58468596  0.02080044  1
  O  O243  1  0.43581063  0.60213728  0.52100468  1
  O  O244  1  0.41788857  0.92752349  0.00585371  1
  O  O245  1  0.43104407  0.93594236  0.52677636  1
  O  O246  1  0.76594473  0.25688751  0.01678583  1
  O  O247  1  0.75574578  0.25616489  0.53852518  1
  O  O248  1  0.76157902  0.59169301  0.01986898  1
  O  O249  1  0.76642027  0.59949538  0.52461659  1
  O  O250  1  0.76346863  0.93743044  0.02191608  1
  O  O251  1  0.76192807  0.93183020  0.52036356  1
  O  O252  1  0.23908545  0.07434721  0.27450746  1
  O  O253  1  0.24652810  0.08226566  0.77534458  1
  O  O254  1  0.24008988  0.40018348  0.28691162  1
  O  O255  1  0.23298776  0.39804993  0.76695670  1
  O  O256  1  0.23403930  0.74084143  0.25520893  1
  O  O257  1  0.24317521  0.74283747  0.77012338  1
  O  O258  1  0.57695276  0.07216613  0.26369408  1
  O  O259  1  0.57358254  0.07605848  0.75762916  1
  O  O260  1  0.57150892  0.41462769  0.26501845  1
  O  O261  1  0.57848882  0.40870527  0.77736270  1
  O  O262  1  0.58136070  0.73486201  0.26039279  1
  O  O263  1  0.56497069  0.72941358  0.76774508  1
  O  O264  1  0.90010925  0.07740804  0.25784510  1
  O  O265  1  0.91272051  0.07984655  0.77864960  1
  O  O266  1  0.90702577  0.41384106  0.27044567  1
  O  O267  1  0.89247072  0.40242012  0.77603275  1
  O  O268  1  0.89483244  0.73987649  0.26880704  1
  O  O269  1  0.89667861  0.72548364  0.77025941  1
  O  O270  1  0.27080863  0.23447820  0.28288823  1
  O  O271  1  0.26401781  0.23907860  0.77580295  1
  O  O272  1  0.27220848  0.56075040  0.27741384  1
  O  O273  1  0.25441251  0.57078638  0.76221212  1
  O  O274  1  0.25566077  0.90466809  0.25895445  1
  O  O275  1  0.26289043  0.91838919  0.76692862  1
  O  O276  1  0.59309682  0.23895957  0.26809243  1
  O  O277  1  0.60070766  0.24598615  0.76674320  1
  O  O278  1  0.60266141  0.56694815  0.26122591  1
  O  O279  1  0.59660016  0.57032357  0.78193390  1
  O  O280  1  0.59597238  0.91285334  0.26225624  1
  O  O281  1  0.59036135  0.90335285  0.75773754  1
  O  O282  1  0.92268061  0.23669306  0.26162020  1
  O  O283  1  0.92876416  0.24195410  0.78293059  1
  O  O284  1  0.92515561  0.56746227  0.27358971  1
  O  O285  1  0.91662908  0.57029592  0.78014695  1
  O  O286  1  0.91681974  0.90401757  0.26098671  1
  O  O287  1  0.93245108  0.89257661  0.77452449  1
  O  O288  1  0.26812491  0.23687164  0.48245736  1
  O  O289  1  0.27186139  0.23600974  0.96850455  1
  O  O290  1  0.27540421  0.56954842  0.47969254  1
  O  O291  1  0.26859808  0.56318066  0.98860828  1
  O  O292  1  0.26366285  0.91673014  0.48979995  1
  O  O293  1  0.26086808  0.91489727  0.98152038  1
  O  O294  1  0.59175264  0.23256132  0.49007789  1
  O  O295  1  0.59031654  0.23481518  0.98504530  1
  O  O296  1  0.60292866  0.56463694  0.46788935  1
  O  O297  1  0.60269052  0.56590950  0.97657007  1
  O  O298  1  0.58951123  0.90598626  0.48322511  1
  O  O299  1  0.59742941  0.91378643  0.98708752  1
  O  O300  1  0.93137190  0.24862458  0.48428560  1
  O  O301  1  0.92780026  0.23068765  0.97663114  1
  O  O302  1  0.92516643  0.57189322  0.46473606  1
  O  O303  1  0.91786428  0.57090142  0.97917055  1
  O  O304  1  0.91921496  0.89781214  0.48686765  1
  O  O305  1  0.92910479  0.90229435  0.97681806  1
  O  O306  1  0.24400152  0.08027219  0.48194458  1
  O  O307  1  0.24674618  0.07665755  0.97632009  1
  O  O308  1  0.24418039  0.39985588  0.48097223  1
  O  O309  1  0.23905528  0.39017780  0.97397700  1
  O  O310  1  0.24685866  0.73554809  0.48718805  1
  O  O311  1  0.23444647  0.73963588  0.98936358  1
  O  O312  1  0.56240225  0.06913861  0.48583517  1
  O  O313  1  0.57080758  0.07359586  0.98279446  1
  O  O314  1  0.56862092  0.40366099  0.50037736  1
  O  O315  1  0.57751173  0.41160300  0.98031236  1
  O  O316  1  0.56700528  0.74148423  0.49296090  1
  O  O317  1  0.57384586  0.72689511  0.97382628  1
  O  O318  1  0.89856605  0.07167784  0.49046461  1
  O  O319  1  0.89959708  0.07244945  0.98252097  1
  O  O320  1  0.92397789  0.41187760  0.47763938  1
  O  O321  1  0.89599150  0.40276122  0.97605979  1
  O  O322  1  0.89032542  0.73224380  0.47680289  1
  O  O323  1  0.89815737  0.74262742  0.97452042  1
  O  O324  1  0.11261920  0.27637450  0.24337394  1
  O  O325  1  0.10043523  0.25999345  0.71951782  1
  O  O326  1  0.10046973  0.59539201  0.21399796  1
  O  O327  1  0.09010048  0.58940673  0.73477682  1
  O  O328  1  0.09488097  0.92199817  0.23325567  1
  O  O329  1  0.08657997  0.92438841  0.72568141  1
  O  O330  1  0.43072848  0.26728253  0.21520915  1
  O  O331  1  0.42521385  0.26426111  0.72307950  1
  O  O332  1  0.43025853  0.58619412  0.22174411  1
  O  O333  1  0.43963345  0.59426980  0.73381369  1
  O  O334  1  0.41778399  0.92235368  0.23557756  1
  O  O335  1  0.43343059  0.93468675  0.72444847  1
  O  O336  1  0.75787289  0.25182717  0.22629537  1
  O  O337  1  0.76186836  0.26946644  0.72783841  1
  O  O338  1  0.76236172  0.59017930  0.22317513  1
  O  O339  1  0.76398848  0.59763498  0.73032922  1
  O  O340  1  0.76225399  0.93414769  0.23015132  1
  O  O341  1  0.76636024  0.93231179  0.72046878  1
  O  O342  1  0.06710646  0.10265030  0.22456644  1
  O  O343  1  0.07435374  0.10436739  0.72590679  1
  O  O344  1  0.06574800  0.43426017  0.22107223  1
  O  O345  1  0.07983683  0.42298123  0.72937268  1
  O  O346  1  0.08155183  0.76184433  0.22292153  1
  O  O347  1  0.05247227  0.75406820  0.72957017  1
  O  O348  1  0.39828831  0.10449204  0.22814855  1
  O  O349  1  0.40422622  0.09810301  0.72670290  1
  O  O350  1  0.40908412  0.43162242  0.21978720  1
  O  O351  1  0.41342150  0.42073057  0.72763422  1
  O  O352  1  0.40118187  0.76119858  0.22569583  1
  O  O353  1  0.41460902  0.76052799  0.73049945  1
  O  O354  1  0.73765101  0.09564029  0.22515477  1
  O  O355  1  0.74009111  0.09742536  0.71532738  1
  O  O356  1  0.73857987  0.43473988  0.22259692  1
  O  O357  1  0.73866858  0.42784793  0.73082396  1
  O  O358  1  0.73771802  0.76175797  0.23282497  1
  O  O359  1  0.73676244  0.75077149  0.72506925  1
