# generated using pymatgen
data_BaLaInIrO6
_symmetry_space_group_name_H-M   'P 1'
_cell_length_a   17.53868614
_cell_length_b   17.57551797
_cell_length_c   16.50766217
_cell_angle_alpha   89.94857773
_cell_angle_beta   89.97846371
_cell_angle_gamma   89.93788853
_symmetry_Int_Tables_number   1
_chemical_formula_structural   BaLaInIrO6
_chemical_formula_sum   'Ba36 La36 In36 Ir36 O216'
_cell_volume   5088.50611807
_cell_formula_units_Z   36
loop_
 _symmetry_equiv_pos_site_id
 _symmetry_equiv_pos_as_xyz
  1  'x, y, z'
loop_
 _atom_site_type_symbol
 _atom_site_label
 _atom_site_symmetry_multiplicity
 _atom_site_fract_x
 _atom_site_fract_y
 _atom_site_fract_z
 _atom_site_occupancy
  Ba  Ba0  1  0.16420321  0.67190431  0.13119205  1
  Ba  Ba1  1  0.16564410  0.00532778  0.12650063  1
  Ba  Ba2  1  1.00281529  0.17459199  0.62654645  1
  Ba  Ba3  1  0.66552586  0.48807900  0.37432004  1
  Ba  Ba4  1  0.32974878  0.15972802  0.87569334  1
  Ba  Ba5  1  0.16929287  0.99353863  0.87336949  1
  Ba  Ba6  1  0.33534192  0.49060569  0.37059515  1
  Ba  Ba7  1  -0.00542284  0.49294593  0.87340796  1
  Ba  Ba8  1  0.67122946  0.84200317  0.12792424  1
  Ba  Ba9  1  0.00005475  0.83087419  0.87612293  1
  Ba  Ba10  1  0.67164866  0.17397332  0.63067422  1
  Ba  Ba11  1  0.33423543  0.17451334  0.12497650  1
  Ba  Ba12  1  0.66924153  0.49392821  0.87888091  1
  Ba  Ba13  1  0.32949455  0.51130650  0.12428318  1
  Ba  Ba14  1  0.83637792  0.00892781  0.62631942  1
  Ba  Ba15  1  0.83672889  0.32407604  0.37202983  1
  Ba  Ba16  1  0.33237125  0.15791239  0.37669828  1
  Ba  Ba17  1  0.50438077  0.34206974  0.62599878  1
  Ba  Ba18  1  0.83150229  0.99770635  0.87461947  1
  Ba  Ba19  1  0.16758557  0.01000164  0.62440001  1
  Ba  Ba20  1  0.33053498  0.50823440  0.62066200  1
  Ba  Ba21  1  1.00414993  0.17540896  0.12092012  1
  Ba  Ba22  1  0.16589384  0.32636191  0.37311500  1
  Ba  Ba23  1  0.16399896  0.67684934  0.62511124  1
  Ba  Ba24  1  0.66931786  0.15789499  0.87501723  1
  Ba  Ba25  1  0.83136503  0.65482455  0.37344810  1
  Ba  Ba26  1  0.49849624  0.67118766  0.12176350  1
  Ba  Ba27  1  0.00183918  0.15530544  0.87583936  1
  Ba  Ba28  1  0.99801745  0.83925825  0.12579252  1
  Ba  Ba29  1  0.33435757  0.82469321  0.37492836  1
  Ba  Ba30  1  0.33020649  0.49250126  0.87533915  1
  Ba  Ba31  1  0.83747043  0.67355206  0.63126718  1
  Ba  Ba32  1  1.00025506  0.50561957  0.12933967  1
  Ba  Ba33  1  0.83446417  0.66105878  0.87897610  1
  Ba  Ba34  1  0.50460604  0.99042654  0.87886381  1
  Ba  Ba35  1  0.66835872  0.17519781  0.12060913  1
  La  La36  1  0.50486638  0.31924094  0.87398748  1
  La  La37  1  0.16919726  0.65037854  0.87973879  1
  La  La38  1  -0.00232125  0.14839033  0.37420319  1
  La  La39  1  0.33638606  0.18960135  0.62547480  1
  La  La40  1  0.66633146  0.84738071  0.62594016  1
  La  La41  1  0.50351727  0.32116844  0.37866765  1
  La  La42  1  0.33344232  0.84875562  0.62157998  1
  La  La43  1  0.66151281  0.81699734  0.37706849  1
  La  La44  1  0.49561914  0.34350680  0.12453905  1
  La  La45  1  0.32455030  0.82645136  0.87523569  1
  La  La46  1  0.84242118  0.31748797  0.87638769  1
  La  La47  1  0.48808774  0.67945558  0.62144583  1
  La  La48  1  0.16288967  0.34594327  0.12460245  1
  La  La49  1  0.83509246  0.98547573  0.37600131  1
  La  La50  1  0.49429186  0.01511140  0.12437063  1
  La  La51  1  1.00705260  0.51691041  0.62296479  1
  La  La52  1  0.16718756  0.64726415  0.37421287  1
  La  La53  1  0.49907299  0.65222426  0.87486827  1
  La  La54  1  1.00552609  0.85105474  0.62656839  1
  La  La55  1  0.50934996  0.64793222  0.37334937  1
  La  La56  1  0.66066920  0.81588531  0.87098780  1
  La  La57  1  0.82841676  0.34609814  0.62683553  1
  La  La58  1  0.33273407  0.83866768  0.11951986  1
  La  La59  1  -0.00689311  0.48445994  0.37435375  1
  La  La60  1  0.67410642  0.51837727  0.12713313  1
  La  La61  1  0.17084698  0.98492196  0.37773267  1
  La  La62  1  -0.00346952  0.81878725  0.37620319  1
  La  La63  1  0.66307348  0.15374411  0.37733140  1
  La  La64  1  0.83075773  0.35258214  0.12297824  1
  La  La65  1  0.50324342  0.98372845  0.37229584  1
  La  La66  1  0.82850151  0.68207835  0.12313074  1
  La  La67  1  0.16764383  0.32471304  0.87955459  1
  La  La68  1  0.67089320  0.51353335  0.62667272  1
  La  La69  1  0.49249515  0.02250722  0.62183255  1
  La  La70  1  0.83197310  0.01802961  0.12139503  1
  La  La71  1  0.16513878  0.34505775  0.61985827  1
  In  In72  1  0.33087768  0.66924043  0.74817992  1
  In  In73  1  0.66916362  0.33616984  0.75282588  1
  In  In74  1  0.50163895  0.16678324  0.00011123  1
  In  In75  1  0.16761665  0.16672159  0.49755498  1
  In  In76  1  0.66613999  -0.00437740  0.00302655  1
  In  In77  1  -0.00146879  -0.00177202  0.24954482  1
  In  In78  1  0.66492298  0.66832940  0.50639567  1
  In  In79  1  0.50192742  0.49609612  0.24717488  1
  In  In80  1  0.33385505  -0.00482559  -0.00043379  1
  In  In81  1  0.83531432  0.16855028  0.49805537  1
  In  In82  1  0.66900876  0.33180780  0.50064300  1
  In  In83  1  -0.00309830  0.66427653  0.25144697  1
  In  In84  1  0.33378425  0.33621934  0.00133712  1
  In  In85  1  0.66436324  -0.00127907  0.74926060  1
  In  In86  1  0.83500836  0.49996697  0.75171956  1
  In  In87  1  0.33305630  -0.00101574  0.25276095  1
  In  In88  1  0.66930735  0.33500926  -0.00010944  1
  In  In89  1  0.83115762  0.83706653  -0.00026437  1
  In  In90  1  0.50169893  0.49828828  0.50259151  1
  In  In91  1  0.49658654  0.83430703  0.74877416  1
  In  In92  1  0.83169869  0.83430935  0.74912153  1
  In  In93  1  0.66563770  0.00115669  0.49996373  1
  In  In94  1  0.50142733  0.16680496  0.25264911  1
  In  In95  1  0.50101814  0.49779174  -0.00086712  1
  In  In96  1  0.16672659  0.16751353  0.00097281  1
  In  In97  1  0.00159250  0.67081769  0.75388861  1
  In  In98  1  0.16546930  0.49717273  0.75055224  1
  In  In99  1  -0.00201691  0.32721957  0.24929126  1
  In  In100  1  0.50283757  0.83267676  0.24538402  1
  In  In101  1  0.33638439  0.00074478  0.74891032  1
  In  In102  1  0.33463745  0.66973330  0.24982009  1
  In  In103  1  0.33164373  0.66879977  0.49588041  1
  In  In104  1  0.16892342  0.17026638  0.74738803  1
  In  In105  1  0.83635093  0.50121820  0.50228330  1
  In  In106  1  0.83450766  0.83214841  0.50149265  1
  In  In107  1  0.16330053  0.82922200  0.00137717  1
  Ir  Ir108  1  0.00503633  0.66725342  0.49634471  1
  Ir  Ir109  1  0.66532516  0.66728251  -0.00115668  1
  Ir  Ir110  1  0.33224745  0.66976230  -0.00357824  1
  Ir  Ir111  1  0.00411001  -0.00177376  0.49646832  1
  Ir  Ir112  1  0.83104884  0.49877538  0.24893753  1
  Ir  Ir113  1  0.50149936  0.83448340  0.49929320  1
  Ir  Ir114  1  0.66769488  0.32955098  0.24890957  1
  Ir  Ir115  1  0.33074566  0.33270903  0.24967815  1
  Ir  Ir116  1  0.49533409  0.16656503  0.49879359  1
  Ir  Ir117  1  0.16447566  0.49677344  0.25153609  1
  Ir  Ir118  1  -0.00095192  0.33386011  0.74698667  1
  Ir  Ir119  1  0.16420154  0.16837907  0.25200112  1
  Ir  Ir120  1  0.16285710  0.83357496  0.49882617  1
  Ir  Ir121  1  -0.00220701  0.00062869  -0.00104436  1
  Ir  Ir122  1  0.16104573  0.50040903  0.00214848  1
  Ir  Ir123  1  0.16641296  0.83284847  0.74772625  1
  Ir  Ir124  1  0.49705959  0.17074235  0.74575194  1
  Ir  Ir125  1  0.84036597  0.17100812  0.00378742  1
  Ir  Ir126  1  0.82975977  0.16524671  0.24921233  1
  Ir  Ir127  1  -0.00023231  0.33356300  0.50262706  1
  Ir  Ir128  1  0.33556763  -0.00198844  0.49922770  1
  Ir  Ir129  1  0.83333170  0.50337431  0.00524181  1
  Ir  Ir130  1  0.65538723  0.66363370  0.75053781  1
  Ir  Ir131  1  0.33307588  0.33431755  0.49854856  1
  Ir  Ir132  1  0.50074299  0.50094959  0.75090706  1
  Ir  Ir133  1  0.33720281  0.33684921  0.74914279  1
  Ir  Ir134  1  0.00169763  0.00038038  0.74949056  1
  Ir  Ir135  1  0.83061386  0.83454530  0.25341213  1
  Ir  Ir136  1  -0.00147575  0.66393172  0.00396540  1
  Ir  Ir137  1  0.67165311  -0.00024782  0.25343439  1
  Ir  Ir138  1  0.84159806  0.16885327  0.75095977  1
  Ir  Ir139  1  0.16265706  0.49673678  0.49654917  1
  Ir  Ir140  1  0.16340085  0.83210830  0.25684593  1
  Ir  Ir141  1  0.67003388  0.66747178  0.24911873  1
  Ir  Ir142  1  0.49911971  0.82758157  -0.00174598  1
  Ir  Ir143  1  -0.00137092  0.33746401  -0.00142958  1
  O  O144  1  0.29874287  0.33109307  0.13225387  1
  O  O145  1  0.30367071  0.33092039  0.62313601  1
  O  O146  1  0.31224938  0.67201927  0.11683467  1
  O  O147  1  0.31453779  0.66729269  0.62101776  1
  O  O148  1  0.31679590  0.97565311  0.12900083  1
  O  O149  1  0.31512168  0.98763125  0.61722790  1
  O  O150  1  0.63690276  0.33014417  0.13114709  1
  O  O151  1  0.65315408  0.32501943  0.62794399  1
  O  O152  1  0.64812750  0.65629930  0.12385751  1
  O  O153  1  0.62390478  0.65388213  0.63252366  1
  O  O154  1  0.63398384  0.99575881  0.13759407  1
  O  O155  1  0.62906576  0.98964019  0.62323521  1
  O  O156  1  0.96826631  0.33313567  0.11938230  1
  O  O157  1  0.96632844  0.32824521  0.62596533  1
  O  O158  1  0.96684256  0.66320122  0.12510865  1
  O  O159  1  0.98711131  0.65760266  0.61578090  1
  O  O160  1  0.97116293  0.99986415  0.12126039  1
  O  O161  1  0.98260828  0.98956226  0.62306445  1
  O  O162  1  0.18250541  0.16421132  0.13335081  1
  O  O163  1  0.19789197  0.17065371  0.62183744  1
  O  O164  1  0.18399593  0.48556993  0.12777467  1
  O  O165  1  0.18077171  0.48643708  0.61878618  1
  O  O166  1  0.19383901  0.82743512  0.13596248  1
  O  O167  1  0.19605512  0.82997713  0.62194912  1
  O  O168  1  0.52021302  0.15500798  0.12953482  1
  O  O169  1  0.52003344  0.16135413  0.62077520  1
  O  O170  1  0.53841246  0.48460296  0.12488579  1
  O  O171  1  0.53390379  0.49484614  0.63278458  1
  O  O172  1  0.52494102  0.82227884  0.11607337  1
  O  O173  1  0.53193043  0.81792956  0.61716326  1
  O  O174  1  0.85804553  0.15506825  0.12794375  1
  O  O175  1  0.85481109  0.16373920  0.62977040  1
  O  O176  1  0.85153362  0.49364293  0.12680313  1
  O  O177  1  0.87236094  0.48788794  0.62559569  1
  O  O178  1  0.84872623  0.82128066  0.13239171  1
  O  O179  1  0.87033476  0.82696716  0.62287809  1
  O  O180  1  0.13437083  0.17404195  0.37181587  1
  O  O181  1  0.14995822  0.18881861  0.87221545  1
  O  O182  1  0.13140075  0.50452994  0.37419797  1
  O  O183  1  0.14403259  0.50784386  0.88158554  1
  O  O184  1  0.13011657  0.84621391  0.37810493  1
  O  O185  1  0.14977653  0.83849367  0.86796508  1
  O  O186  1  0.47943311  0.18230980  0.37927008  1
  O  O187  1  0.47795960  0.17690721  0.86617104  1
  O  O188  1  0.48677804  0.51041363  0.37278648  1
  O  O189  1  0.47760184  0.51420127  0.86992638  1
  O  O190  1  0.48338664  0.84622870  0.37994945  1
  O  O191  1  0.46518720  0.83222249  0.88054045  1
  O  O192  1  0.79931795  0.17081927  0.36624820  1
  O  O193  1  0.81990990  0.18106319  0.87895547  1
  O  O194  1  0.81707736  0.49635023  0.37019727  1
  O  O195  1  0.81838694  0.50445236  0.88442230  1
  O  O196  1  0.79967340  0.84293396  0.37187092  1
  O  O197  1  0.79691849  0.83858231  0.87537775  1
  O  O198  1  0.03211819  0.00789062  0.37730555  1
  O  O199  1  0.02164671  -0.00047976  0.87385927  1
  O  O200  1  0.01651108  0.34587534  0.38030047  1
  O  O201  1  0.03141263  0.33927842  0.87115656  1
  O  O202  1  0.03220727  0.67796348  0.37780128  1
  O  O203  1  0.03123570  0.66743437  0.88472377  1
  O  O204  1  0.36531728  -0.00135425  0.38081584  1
  O  O205  1  0.35266878  -0.02238021  0.87314911  1
  O  O206  1  0.36473243  0.33412487  0.37492814  1
  O  O207  1  0.36731174  0.33709108  0.86818544  1
  O  O208  1  0.37159756  0.66987288  0.37513234  1
  O  O209  1  0.36204706  0.68046231  0.87628284  1
  O  O210  1  0.70158068  0.01100182  0.37043226  1
  O  O211  1  0.67947817  -0.00044285  0.87489573  1
  O  O212  1  0.68877149  0.33016176  0.36711000  1
  O  O213  1  0.70687605  0.33848508  0.87518294  1
  O  O214  1  0.68344318  0.67804722  0.37071254  1
  O  O215  1  0.68531079  0.67692947  0.87364355  1
  O  O216  1  0.07112138  0.08721066  0.01207191  1
  O  O217  1  0.06981664  0.09162139  0.51167927  1
  O  O218  1  0.07505732  0.42348815  0.02644774  1
  O  O219  1  0.06557972  0.42967781  0.52478596  1
  O  O220  1  0.07126967  0.75056198  0.02189837  1
  O  O221  1  0.06421680  0.77031845  0.51850841  1
  O  O222  1  0.41351666  0.08394225  0.01902006  1
  O  O223  1  0.39951350  0.09634930  0.52769633  1
  O  O224  1  0.40958886  0.42485733  0.02807277  1
  O  O225  1  0.40222121  0.42355529  0.51273573  1
  O  O226  1  0.39821437  0.76521944  0.01868881  1
  O  O227  1  0.40600529  0.77235245  0.52532755  1
  O  O228  1  0.75356367  0.09563019  0.01764178  1
  O  O229  1  0.73278036  0.10206842  0.50661362  1
  O  O230  1  0.74020671  0.43548660  0.03030335  1
  O  O231  1  0.73761783  0.43251044  0.52793817  1
  O  O232  1  0.73975673  0.75298580  0.01622903  1
  O  O233  1  0.72810548  0.76993322  0.52072547  1
  O  O234  1  0.09404713  0.27224151  0.01822816  1
  O  O235  1  0.09467193  0.27044702  0.52390638  1
  O  O236  1  0.09163364  0.59284406  0.02114409  1
  O  O237  1  0.09602633  0.59192702  0.51602456  1
  O  O238  1  0.08627492  0.92666752  0.01408231  1
  O  O239  1  0.09424064  0.92594859  0.52144449  1
  O  O240  1  0.43211083  0.26569593  0.02368013  1
  O  O241  1  0.42393257  0.26131543  0.52222134  1
  O  O242  1  0.42209821  0.59767323  0.00808247  1
  O  O243  1  0.43218438  0.59857285  0.52161306  1
  O  O244  1  0.43715387  0.91907935  0.02945039  1
  O  O245  1  0.43745768  0.93362084  0.52205504  1
  O  O246  1  0.77541241  0.26622409  0.02270529  1
  O  O247  1  0.77476654  0.27103830  0.51949267  1
  O  O248  1  0.76281410  0.59808118  0.02866990  1
  O  O249  1  0.75962455  0.59394071  0.52447490  1
  O  O250  1  0.76432829  0.93358661  0.03308538  1
  O  O251  1  0.76365241  0.93055521  0.51279520  1
  O  O252  1  0.22890905  0.07226432  0.27655620  1
  O  O253  1  0.24509550  0.07664648  0.76424094  1
  O  O254  1  0.23906765  0.40564703  0.26706673  1
  O  O255  1  0.23865788  0.39848191  0.77126185  1
  O  O256  1  0.22949250  0.73857485  0.28035247  1
  O  O257  1  0.22970893  0.74004373  0.77667883  1
  O  O258  1  0.57994669  0.06732279  0.28440997  1
  O  O259  1  0.56505335  0.07915321  0.75692862  1
  O  O260  1  0.57015577  0.39024145  0.27232166  1
  O  O261  1  0.56507415  0.40704214  0.77777048  1
  O  O262  1  0.57624362  0.73761373  0.27532012  1
  O  O263  1  0.56257551  0.72872142  0.77378119  1
  O  O264  1  0.89645378  0.07089793  0.27623519  1
  O  O265  1  0.91157945  0.07453232  0.76828595  1
  O  O266  1  0.90532724  0.40895883  0.25987213  1
  O  O267  1  0.90299339  0.39434570  0.77148629  1
  O  O268  1  0.90493276  0.74647203  0.27348769  1
  O  O269  1  0.90807453  0.74450977  0.77139647  1
  O  O270  1  0.25891918  0.23880788  0.26949832  1
  O  O271  1  0.26965121  0.24753606  0.76091986  1
  O  O272  1  0.24843516  0.57639511  0.26894233  1
  O  O273  1  0.25406594  0.57834569  0.77035470  1
  O  O274  1  0.24870730  0.90773370  0.27843771  1
  O  O275  1  0.26469696  0.89224936  0.75879065  1
  O  O276  1  0.60427260  0.23561800  0.27427891  1
  O  O277  1  0.58519780  0.24381780  0.77029792  1
  O  O278  1  0.59933865  0.57787685  0.26333603  1
  O  O279  1  0.59124666  0.56957624  0.77489637  1
  O  O280  1  0.60714353  0.90658701  0.28124620  1
  O  O281  1  0.59905531  0.89180600  0.76951512  1
  O  O282  1  0.92689941  0.22733962  0.27412907  1
  O  O283  1  0.93353037  0.24172991  0.77070063  1
  O  O284  1  0.92614847  0.56539248  0.27588092  1
  O  O285  1  0.92306770  0.57834834  0.75912447  1
  O  O286  1  0.92088317  0.90455751  0.28292039  1
  O  O287  1  0.92774872  0.91485832  0.76077931  1
  O  O288  1  0.26541921  0.24238156  0.48723453  1
  O  O289  1  0.25394127  0.25103296  0.98054510  1
  O  O290  1  0.24999257  0.57152294  0.47261102  1
  O  O291  1  0.25332948  0.57980132  0.97557975  1
  O  O292  1  0.26110090  0.90458461  0.47953788  1
  O  O293  1  0.26708951  0.89041883  0.98874145  1
  O  O294  1  0.59227744  0.23119363  0.47497992  1
  O  O295  1  0.59349362  0.24343403  0.97668736  1
  O  O296  1  0.59346876  0.57608969  0.48104898  1
  O  O297  1  0.59290661  0.57961438  0.98565324  1
  O  O298  1  0.59762639  0.89796224  0.47439694  1
  O  O299  1  0.59505595  0.88852395  0.97647288  1
  O  O300  1  0.94150981  0.23503152  0.47535134  1
  O  O301  1  0.92898475  0.24768387  0.97611914  1
  O  O302  1  0.94232186  0.56972679  0.47652100  1
  O  O303  1  0.92731202  0.57424517  0.98578224  1
  O  O304  1  0.93458310  0.90729653  0.47129029  1
  O  O305  1  0.92544010  0.91382171  0.98568981  1
  O  O306  1  0.23947336  0.06294107  0.47435712  1
  O  O307  1  0.24206633  0.07449154  0.98812015  1
  O  O308  1  0.23425927  0.40165780  0.48613010  1
  O  O309  1  0.23027056  0.40936198  0.98151793  1
  O  O310  1  0.22634268  0.73919318  0.47220063  1
  O  O311  1  0.23987288  0.73457647  0.97027875  1
  O  O312  1  0.56022804  0.07033368  0.47477726  1
  O  O313  1  0.57463010  0.06909551  0.99502219  1
  O  O314  1  0.56808191  0.39728799  0.47586079  1
  O  O315  1  0.56883626  0.40054509  0.97163767  1
  O  O316  1  0.56092840  0.73794101  0.47380560  1
  O  O317  1  0.56858842  0.73354099  0.96859146  1
  O  O318  1  0.91063957  0.06816498  0.46843914  1
  O  O319  1  0.90546866  0.07365464  0.98778213  1
  O  O320  1  0.91190175  0.40296909  0.48324483  1
  O  O321  1  0.89731243  0.40279367  0.98364369  1
  O  O322  1  0.91536079  0.73860846  0.47237696  1
  O  O323  1  0.90961640  0.73778702  0.99269819  1
  O  O324  1  0.09962978  0.26245425  0.22592547  1
  O  O325  1  0.09728591  0.27392634  0.72584131  1
  O  O326  1  0.09267487  0.58613474  0.24169717  1
  O  O327  1  0.08893299  0.58918022  0.73388032  1
  O  O328  1  0.09353413  0.92225734  0.23699481  1
  O  O329  1  0.09201668  0.92460367  0.72516208  1
  O  O330  1  0.42642709  0.26930316  0.22960738  1
  O  O331  1  0.42526644  0.26221126  0.72482487  1
  O  O332  1  0.42548996  0.59065075  0.23241983  1
  O  O333  1  0.43753417  0.59855751  0.72996087  1
  O  O334  1  0.44501165  0.93764603  0.23872734  1
  O  O335  1  0.43320858  0.93287335  0.71362396  1
  O  O336  1  0.76745816  0.26621901  0.22136794  1
  O  O337  1  0.77674050  0.26284968  0.73558625  1
  O  O338  1  0.76358662  0.59554649  0.22218272  1
  O  O339  1  0.74468198  0.59241977  0.72876292  1
  O  O340  1  0.76911639  0.93550188  0.22934479  1
  O  O341  1  0.75141415  0.91812578  0.71472866  1
  O  O342  1  0.06936349  0.10173251  0.24232170  1
  O  O343  1  0.07489010  0.08780779  0.73631599  1
  O  O344  1  0.07881892  0.42077103  0.23629343  1
  O  O345  1  0.06281907  0.42648510  0.72220075  1
  O  O346  1  0.07334455  0.76270878  0.24082468  1
  O  O347  1  0.07167331  0.77105681  0.72597294  1
  O  O348  1  0.40885727  0.09101879  0.23410492  1
  O  O349  1  0.40640769  0.10247087  0.71927088  1
  O  O350  1  0.40472516  0.41749506  0.22597863  1
  O  O351  1  0.40721565  0.43238901  0.73041129  1
  O  O352  1  0.39917424  0.77138189  0.22620663  1
  O  O353  1  0.39919403  0.76807377  0.72061430  1
  O  O354  1  0.73988491  0.09178093  0.22446339  1
  O  O355  1  0.75182366  0.09522089  0.74115931  1
  O  O356  1  0.73491845  0.42791927  0.22123336  1
  O  O357  1  0.74028372  0.43192674  0.71923512  1
  O  O358  1  0.74415031  0.75585687  0.22972587  1
  O  O359  1  0.71974545  0.75756228  0.72671904  1
