# generated using pymatgen
data_BaLaInIrO6
_symmetry_space_group_name_H-M   'P 1'
_cell_length_a   17.50371139
_cell_length_b   17.53428676
_cell_length_c   16.49200283
_cell_angle_alpha   89.96860577
_cell_angle_beta   90.03023523
_cell_angle_gamma   89.97274917
_symmetry_Int_Tables_number   1
_chemical_formula_structural   BaLaInIrO6
_chemical_formula_sum   'Ba36 La36 In36 Ir36 O216'
_cell_volume   5061.64257661
_cell_formula_units_Z   36
loop_
 _symmetry_equiv_pos_site_id
 _symmetry_equiv_pos_as_xyz
  1  'x, y, z'
loop_
 _atom_site_type_symbol
 _atom_site_label
 _atom_site_symmetry_multiplicity
 _atom_site_fract_x
 _atom_site_fract_y
 _atom_site_fract_z
 _atom_site_occupancy
  Ba  Ba0  1  0.16410790  0.66181434  0.37343406  1
  Ba  Ba1  1  0.66505677  0.82266140  0.87408617  1
  Ba  Ba2  1  0.33556674  0.50941116  0.62393973  1
  Ba  Ba3  1  0.50391560  0.98688588  0.87616780  1
  Ba  Ba4  1  0.66629314  0.83912526  0.12575466  1
  Ba  Ba5  1  0.33417590  0.82497447  0.86811042  1
  Ba  Ba6  1  0.33616242  0.49177470  0.87229497  1
  Ba  Ba7  1  0.16777093  0.00738873  0.12769983  1
  Ba  Ba8  1  0.16860018  0.67670374  0.12243775  1
  Ba  Ba9  1  0.83010234  0.34564122  0.12177829  1
  Ba  Ba10  1  0.33852978  0.51041628  0.12620442  1
  Ba  Ba11  1  -0.00104092  0.82472903  0.37246034  1
  Ba  Ba12  1  0.33524901  0.15738963  0.37593646  1
  Ba  Ba13  1  0.49851988  0.34659657  0.12994635  1
  Ba  Ba14  1  0.49732053  0.00688898  0.62796040  1
  Ba  Ba15  1  0.83278862  0.34152649  0.62827253  1
  Ba  Ba16  1  0.66703147  0.51076825  0.62142392  1
  Ba  Ba17  1  0.83424218  0.32274414  0.87428754  1
  Ba  Ba18  1  -0.00172593  0.82831686  0.86995313  1
  Ba  Ba19  1  0.83605039  0.65873835  0.37503683  1
  Ba  Ba20  1  0.83371194  0.66066809  0.87261753  1
  Ba  Ba21  1  0.33727709  0.83961064  0.62108845  1
  Ba  Ba22  1  0.82817612  0.01167866  0.62733091  1
  Ba  Ba23  1  0.66778028  0.17307595  0.12526418  1
  Ba  Ba24  1  0.16486979  0.00284584  0.62770979  1
  Ba  Ba25  1  0.00089403  0.15683909  0.87417074  1
  Ba  Ba26  1  0.16818207  0.99073216  0.37586571  1
  Ba  Ba27  1  0.99745491  0.17433689  0.62894109  1
  Ba  Ba28  1  -0.00313278  0.49357721  0.37478809  1
  Ba  Ba29  1  0.66829933  0.51063339  0.12795420  1
  Ba  Ba30  1  0.99630729  0.84141871  0.62188980  1
  Ba  Ba31  1  0.50275104  0.98841457  0.37373699  1
  Ba  Ba32  1  0.50135170  0.67641422  0.61896244  1
  Ba  Ba33  1  0.16295613  0.34111377  0.62538570  1
  Ba  Ba34  1  0.49973324  0.32458610  0.37699169  1
  Ba  Ba35  1  0.66901044  0.84294900  0.62491444  1
  La  La36  1  0.49522335  0.34944466  0.62375938  1
  La  La37  1  0.82571859  0.68184014  0.61890493  1
  La  La38  1  0.65465352  0.15295368  0.37996443  1
  La  La39  1  0.50344305  0.65148100  0.37617137  1
  La  La40  1  1.00287424  0.51227881  0.62490943  1
  La  La41  1  0.83023879  0.31880656  0.37324941  1
  La  La42  1  0.32703636  0.15121308  0.87729963  1
  La  La43  1  0.32963527  0.82261826  0.37586797  1
  La  La44  1  0.32697331  0.48444280  0.37725204  1
  La  La45  1  0.17300279  0.31677823  0.38162417  1
  La  La46  1  0.66192119  0.48915070  0.87244559  1
  La  La47  1  0.83366437  0.99362042  0.87144511  1
  La  La48  1  0.83642886  0.98355707  0.37483211  1
  La  La49  1  1.00245892  0.84533685  0.12315870  1
  La  La50  1  -0.00648754  0.48834453  0.87781566  1
  La  La51  1  0.17150690  0.64976419  0.87225315  1
  La  La52  1  1.00340996  0.51818362  0.12560778  1
  La  La53  1  0.83222351  0.01038888  0.12302508  1
  La  La54  1  -0.00295692  0.15129140  0.38191111  1
  La  La55  1  0.33811714  0.84003511  0.12625010  1
  La  La56  1  0.67056740  0.18499119  0.62622250  1
  La  La57  1  0.50448450  0.65586574  0.87075000  1
  La  La58  1  0.50523663  0.32374464  0.87424596  1
  La  La59  1  0.66582367  0.48435913  0.37628216  1
  La  La60  1  0.66272938  0.81657006  0.37696721  1
  La  La61  1  0.16198743  0.67830522  0.62535393  1
  La  La62  1  0.66635648  0.15416317  0.87107732  1
  La  La63  1  1.00582392  0.18070715  0.12345531  1
  La  La64  1  0.33730963  0.18199184  0.62155176  1
  La  La65  1  0.16651674  0.32387329  0.86951316  1
  La  La66  1  0.48990321  0.01162845  0.12444464  1
  La  La67  1  0.49576687  0.67631594  0.12375347  1
  La  La68  1  0.34209741  0.18155546  0.12311553  1
  La  La69  1  0.83212110  0.67876578  0.12551449  1
  La  La70  1  0.15971736  0.34868085  0.12787433  1
  La  La71  1  0.17107721  0.98390598  0.87576152  1
  In  In72  1  -0.00280786  0.66705357  0.50107130  1
  In  In73  1  0.66830644  0.33331176  0.24802025  1
  In  In74  1  0.00008605  0.33363585  0.49723917  1
  In  In75  1  0.33448435  0.66512060  0.25147877  1
  In  In76  1  -0.00027436  0.33468442  0.00272756  1
  In  In77  1  0.83097110  0.50303053  -0.00235310  1
  In  In78  1  0.49821484  0.16939073  0.74911374  1
  In  In79  1  0.33261831  0.00125206  0.74911488  1
  In  In80  1  0.33096583  -0.00165607  0.25049523  1
  In  In81  1  0.33516397  0.66481603  0.49788629  1
  In  In82  1  0.16625862  0.50063903  0.50152175  1
  In  In83  1  0.66832451  0.66250040  0.74836211  1
  In  In84  1  0.16791948  0.16253652  0.50281363  1
  In  In85  1  0.33276493  0.33302821  -0.00194392  1
  In  In86  1  0.50088479  0.16558879  0.25077055  1
  In  In87  1  0.66690246  -0.00490654  0.24958398  1
  In  In88  1  0.83278951  0.49739437  0.49919641  1
  In  In89  1  0.00182620  0.66980051  -0.00464788  1
  In  In90  1  -0.00104605  0.33383714  0.25555878  1
  In  In91  1  0.82808324  0.16518291  0.49882225  1
  In  In92  1  0.83277472  0.83530447  0.74916683  1
  In  In93  1  0.83357278  0.83413680  0.00157547  1
  In  In94  1  0.50104832  0.83099037  0.74729010  1
  In  In95  1  0.16688457  0.83384273  0.49824514  1
  In  In96  1  0.50035744  0.16777560  -0.00331796  1
  In  In97  1  0.33382491  0.66938509  -0.00410537  1
  In  In98  1  -0.00029079  0.00066526  0.24983521  1
  In  In99  1  0.16806260  0.16669371  0.75173694  1
  In  In100  1  0.83390658  0.16408586  0.25289556  1
  In  In101  1  0.16601108  0.49854250  -0.00028428  1
  In  In102  1  0.50169217  0.50218219  0.00185406  1
  In  In103  1  0.16955038  0.16545238  0.00441531  1
  In  In104  1  0.16534740  0.82863119  0.75144844  1
  In  In105  1  0.66517329  -0.00061046  0.00343623  1
  In  In106  1  0.83654668  0.16491834  0.00067692  1
  In  In107  1  0.32939272  0.33501216  0.25002018  1
  Ir  Ir108  1  0.66501683  0.33597273  0.75167490  1
  Ir  Ir109  1  0.33764589  0.33597701  0.74964492  1
  Ir  Ir110  1  0.16677382  0.16809840  0.24937581  1
  Ir  Ir111  1  0.83397229  0.82945832  0.24926713  1
  Ir  Ir112  1  0.00204910  -0.00269486  -0.00135088  1
  Ir  Ir113  1  0.66344005  0.33497405  0.50325183  1
  Ir  Ir114  1  0.66782969  0.00491928  0.74781769  1
  Ir  Ir115  1  0.16409130  0.50018616  0.25181377  1
  Ir  Ir116  1  0.33681712  0.33268980  0.50282512  1
  Ir  Ir117  1  0.66436402  0.66537679  0.00368299  1
  Ir  Ir118  1  0.83142886  0.50382155  0.25067922  1
  Ir  Ir119  1  0.66609834  0.66629611  0.25009952  1
  Ir  Ir120  1  0.66613161  0.33519850  -0.00682526  1
  Ir  Ir121  1  0.16619430  0.83078897  0.24567765  1
  Ir  Ir122  1  0.50226464  0.50504913  0.25611210  1
  Ir  Ir123  1  -0.00092447  0.00218611  0.75064715  1
  Ir  Ir124  1  0.16325861  0.49930125  0.75022474  1
  Ir  Ir125  1  0.33255060  -0.00601338  0.00109890  1
  Ir  Ir126  1  0.16700994  0.83620171  0.00118586  1
  Ir  Ir127  1  0.50162237  0.83531640  0.49204244  1
  Ir  Ir128  1  0.83518438  0.49975091  0.74959517  1
  Ir  Ir129  1  0.66657677  0.66812565  0.49362371  1
  Ir  Ir130  1  -0.00050834  0.33789075  0.75085096  1
  Ir  Ir131  1  0.82988691  0.16942155  0.75060233  1
  Ir  Ir132  1  0.50375400  0.16652547  0.50485346  1
  Ir  Ir133  1  0.50125554  0.82939865  0.24958866  1
  Ir  Ir134  1  0.33233780  0.66083170  0.74930225  1
  Ir  Ir135  1  0.66690744  0.00134846  0.50143463  1
  Ir  Ir136  1  0.50012340  0.82979032  0.00318032  1
  Ir  Ir137  1  0.49943221  0.49878624  0.74803455  1
  Ir  Ir138  1  0.33784227  -0.00010276  0.49832429  1
  Ir  Ir139  1  0.50244372  0.49898113  0.49778830  1
  Ir  Ir140  1  -0.00033930  0.66140919  0.74873742  1
  Ir  Ir141  1  -0.00426529  -0.00127543  0.50145770  1
  Ir  Ir142  1  0.82737620  0.83643568  0.49576641  1
  Ir  Ir143  1  -0.00296927  0.66584448  0.24645823  1
  O  O144  1  0.29692529  0.32759459  0.12650728  1
  O  O145  1  0.31324437  0.32256734  0.62666096  1
  O  O146  1  0.32309042  0.66782299  0.12495125  1
  O  O147  1  0.30074566  0.66311234  0.62845055  1
  O  O148  1  0.31679448  0.97843550  0.12048088  1
  O  O149  1  0.31868759  0.99796343  0.61679468  1
  O  O150  1  0.64733819  0.33314154  0.11426285  1
  O  O151  1  0.63276872  0.32449036  0.62811757  1
  O  O152  1  0.63346806  0.66489568  0.12793229  1
  O  O153  1  0.65137429  0.66863005  0.61463715  1
  O  O154  1  0.62409273  0.99413030  0.12643921  1
  O  O155  1  0.64465986  0.99761449  0.62438082  1
  O  O156  1  0.97765650  0.31651570  0.13158110  1
  O  O157  1  0.98150755  0.33210882  0.63170124  1
  O  O158  1  0.97118381  0.65928718  0.12744990  1
  O  O159  1  0.96413149  0.65303924  0.63263108  1
  O  O160  1  0.97242558  0.99075663  0.12055669  1
  O  O161  1  0.97503142  1.00151509  0.62712404  1
  O  O162  1  0.20400114  0.16354736  0.13192349  1
  O  O163  1  0.20055903  0.16232846  0.62822139  1
  O  O164  1  0.18992681  0.49147335  0.13343161  1
  O  O165  1  0.18765304  0.49705042  0.63335253  1
  O  O166  1  0.19812167  0.83287222  0.12293271  1
  O  O167  1  0.18622247  0.82033568  0.62573578  1
  O  O168  1  0.51904091  0.14960466  0.12246564  1
  O  O169  1  0.53256974  0.16833850  0.62340605  1
  O  O170  1  0.51825158  0.50678999  0.13470398  1
  O  O171  1  0.52168432  0.48575925  0.62304370  1
  O  O172  1  0.52104646  0.81370803  0.12704519  1
  O  O173  1  0.52012898  0.83362412  0.61319343  1
  O  O174  1  0.87417875  0.14934534  0.12762638  1
  O  O175  1  0.84639215  0.17154675  0.62945030  1
  O  O176  1  0.86095774  0.50123006  0.13079788  1
  O  O177  1  0.86546277  0.49347925  0.63153912  1
  O  O178  1  0.86520132  0.81957220  0.13115889  1
  O  O179  1  0.84341237  0.82795337  0.61845570  1
  O  O180  1  0.13553263  0.17292155  0.36973798  1
  O  O181  1  0.15167975  0.18671973  0.87797674  1
  O  O182  1  0.14523057  0.50532402  0.36952838  1
  O  O183  1  0.13224639  0.50697222  0.86887443  1
  O  O184  1  0.14765574  0.83328325  0.36572521  1
  O  O185  1  0.14560992  0.84294791  0.88120213  1
  O  O186  1  0.48516825  0.16690967  0.38534389  1
  O  O187  1  0.46297087  0.18282499  0.87303354  1
  O  O188  1  0.46928095  0.50938596  0.37679776  1
  O  O189  1  0.48679841  0.51358252  0.86831243  1
  O  O190  1  0.46937449  0.83496457  0.36911386  1
  O  O191  1  0.48533458  0.82663157  0.88342680  1
  O  O192  1  0.78918293  0.17740420  0.37725000  1
  O  O193  1  0.80409236  0.16104401  0.87074371  1
  O  O194  1  0.80081571  0.50922612  0.37002777  1
  O  O195  1  0.79955746  0.50709552  0.86690195  1
  O  O196  1  0.80017758  0.84325969  0.37121447  1
  O  O197  1  0.81750548  0.85181589  0.87551060  1
  O  O198  1  0.01818819  0.00169237  0.38171023  1
  O  O199  1  0.03214929  0.00041409  0.87471581  1
  O  O200  1  0.04234631  0.34282998  0.37337607  1
  O  O201  1  0.03068014  0.34775390  0.87128935  1
  O  O202  1  0.01318588  0.66650174  0.36756457  1
  O  O203  1  0.03485683  0.66858564  0.86591610  1
  O  O204  1  0.35383765  -0.00140064  0.37849681  1
  O  O205  1  0.35491786  0.00906415  0.88353555  1
  O  O206  1  0.35043782  0.34303863  0.38084889  1
  O  O207  1  0.36879359  0.33880452  0.86787357  1
  O  O208  1  0.36775683  0.68111934  0.37261175  1
  O  O209  1  0.36602223  0.66394064  0.86777432  1
  O  O210  1  0.69718172  0.01092137  0.38231459  1
  O  O211  1  0.69673039  0.01141102  0.86845078  1
  O  O212  1  0.69239397  0.34349791  0.38257517  1
  O  O213  1  0.68844579  0.35214000  0.87125895  1
  O  O214  1  0.68884717  0.67753333  0.37146216  1
  O  O215  1  0.68217601  0.66261748  0.88282433  1
  O  O216  1  0.06513645  0.09453411  0.02249342  1
  O  O217  1  0.06537074  0.08991644  0.51223863  1
  O  O218  1  0.06794504  0.43226468  0.03196536  1
  O  O219  1  0.06554343  0.43545795  0.52550884  1
  O  O220  1  0.07214347  0.77310237  0.02469945  1
  O  O221  1  0.07650391  0.75459219  0.51759592  1
  O  O222  1  0.39849834  0.08729733  0.02481620  1
  O  O223  1  0.40507553  0.10079202  0.52536615  1
  O  O224  1  0.40739470  0.42872277  0.01465542  1
  O  O225  1  0.41134439  0.42426889  0.52013962  1
  O  O226  1  0.40347887  0.76996037  0.02186357  1
  O  O227  1  0.41280148  0.76519136  0.50815645  1
  O  O228  1  0.74837390  0.08734211  0.02488125  1
  O  O229  1  0.72550714  0.09897558  0.52492748  1
  O  O230  1  0.73252989  0.42868974  0.00851742  1
  O  O231  1  0.73055752  0.42816870  0.51298576  1
  O  O232  1  0.73584637  0.75378107  0.01935099  1
  O  O233  1  0.73431968  0.76418539  0.51097770  1
  O  O234  1  0.10254118  0.26634784  0.02690924  1
  O  O235  1  0.09736503  0.25952698  0.50954751  1
  O  O236  1  0.09090972  0.59328196  0.01918640  1
  O  O237  1  0.09677838  0.59753811  0.53050443  1
  O  O238  1  0.09915897  0.93234481  0.01731199  1
  O  O239  1  0.08580779  0.92774359  0.51618039  1
  O  O240  1  0.42659494  0.25850696  0.02900875  1
  O  O241  1  0.43255187  0.26051216  0.53012546  1
  O  O242  1  0.43990282  0.60690535  0.01157056  1
  O  O243  1  0.43435054  0.59057047  0.51079964  1
  O  O244  1  0.43315274  0.92674517  0.02561972  1
  O  O245  1  0.43289759  0.92913507  0.51305948  1
  O  O246  1  0.75353610  0.26139755  0.00968917  1
  O  O247  1  0.75022226  0.26367241  0.52215787  1
  O  O248  1  0.76099200  0.60303718  0.02644066  1
  O  O249  1  0.76118279  0.60187610  0.51985146  1
  O  O250  1  0.76595747  0.93115535  0.02567957  1
  O  O251  1  0.76266530  0.93514073  0.50907587  1
  O  O252  1  0.23612004  0.07857799  0.26908821  1
  O  O253  1  0.23936553  0.07397273  0.78745531  1
  O  O254  1  0.23029098  0.40751637  0.27841618  1
  O  O255  1  0.23466249  0.40318616  0.77473441  1
  O  O256  1  0.24140033  0.74636123  0.26649706  1
  O  O257  1  0.23800851  0.72688280  0.77439645  1
  O  O258  1  0.58215957  0.07774038  0.27625030  1
  O  O259  1  0.58100559  0.07868960  0.77103982  1
  O  O260  1  0.57482042  0.41624767  0.27347085  1
  O  O261  1  0.56838633  0.40363672  0.77483382  1
  O  O262  1  0.56755562  0.73190596  0.27479389  1
  O  O263  1  0.57062921  0.73405113  0.76788928  1
  O  O264  1  0.90812901  0.07110693  0.28903525  1
  O  O265  1  0.90050853  0.07464528  0.77393601  1
  O  O266  1  0.89368394  0.40752849  0.27638489  1
  O  O267  1  0.91001218  0.41262329  0.77808208  1
  O  O268  1  0.90462193  0.73649024  0.26534769  1
  O  O269  1  0.91409550  0.73740847  0.76164571  1
  O  O270  1  0.24948864  0.24222453  0.27842953  1
  O  O271  1  0.27124623  0.24462821  0.77481434  1
  O  O272  1  0.26271141  0.56442453  0.27510131  1
  O  O273  1  0.25221943  0.57380753  0.77634919  1
  O  O274  1  0.26213081  0.89740885  0.26662703  1
  O  O275  1  0.24851712  0.91455147  0.76907772  1
  O  O276  1  0.59614165  0.24012139  0.27323657  1
  O  O277  1  0.59721033  0.24442328  0.77851980  1
  O  O278  1  0.59800698  0.57368410  0.28258699  1
  O  O279  1  0.59394759  0.56653856  0.76935352  1
  O  O280  1  0.59794068  0.89172815  0.27566283  1
  O  O281  1  0.59750115  0.91387191  0.76457411  1
  O  O282  1  0.92957844  0.23656983  0.28978665  1
  O  O283  1  0.92682990  0.24220882  0.77040276  1
  O  O284  1  0.92891422  0.56989847  0.26083267  1
  O  O285  1  0.93208963  0.56567979  0.77585836  1
  O  O286  1  0.91911835  0.90527412  0.26687448  1
  O  O287  1  0.92122534  0.92022528  0.76708514  1
  O  O288  1  0.26535601  0.24322598  0.48560976  1
  O  O289  1  0.27674119  0.22290196  0.98508644  1
  O  O290  1  0.26697625  0.56626359  0.47418381  1
  O  O291  1  0.25518413  0.57814358  0.97625763  1
  O  O292  1  0.27052713  0.90679228  0.47732287  1
  O  O293  1  0.26279092  0.90178611  0.97882763  1
  O  O294  1  0.59967130  0.23437066  0.48370103  1
  O  O295  1  0.59666294  0.24642377  0.96405568  1
  O  O296  1  0.59602771  0.57168615  0.46935488  1
  O  O297  1  0.60262714  0.57095462  0.97957083  1
  O  O298  1  0.60220034  0.90175908  0.47345855  1
  O  O299  1  0.59092186  0.89893996  0.98487427  1
  O  O300  1  0.92629919  0.23423169  0.47263731  1
  O  O301  1  0.93244234  0.23478549  0.98822398  1
  O  O302  1  0.92830390  0.56947042  0.49277931  1
  O  O303  1  0.93121918  0.56975151  0.97524667  1
  O  O304  1  0.91882939  0.90909966  0.47528539  1
  O  O305  1  0.93890373  0.90356969  0.99098391  1
  O  O306  1  0.24669671  0.06942964  0.48368030  1
  O  O307  1  0.23793443  0.05973212  0.97804566  1
  O  O308  1  0.24264271  0.40157770  0.47863634  1
  O  O309  1  0.22836266  0.39513105  0.97537007  1
  O  O310  1  0.24958077  0.74685206  0.47404073  1
  O  O311  1  0.22991225  0.74104512  0.97500852  1
  O  O312  1  0.57447498  0.07251500  0.48083113  1
  O  O313  1  0.58331636  0.08359475  0.96749527  1
  O  O314  1  0.57455376  0.40847960  0.47947184  1
  O  O315  1  0.57387514  0.40485972  0.97110864  1
  O  O316  1  0.57089942  0.74029836  0.46562229  1
  O  O317  1  0.56238536  0.72776565  0.98423552  1
  O  O318  1  0.90287031  0.06717225  0.47618504  1
  O  O319  1  0.90595705  0.05687008  0.97629949  1
  O  O320  1  0.89553310  0.39568010  0.47266308  1
  O  O321  1  0.90848518  0.41156696  0.97746010  1
  O  O322  1  0.89655441  0.74355821  0.49274191  1
  O  O323  1  0.90376968  0.73744532  0.98942271  1
  O  O324  1  0.10035771  0.25800400  0.22200575  1
  O  O325  1  0.09027477  0.26581915  0.73951448  1
  O  O326  1  0.08904856  0.59178464  0.22283262  1
  O  O327  1  0.09445481  0.59259673  0.72179050  1
  O  O328  1  0.08804923  0.91577046  0.22633747  1
  O  O329  1  0.08283509  0.92464743  0.73788970  1
  O  O330  1  0.41697337  0.25327827  0.23101236  1
  O  O331  1  0.43208831  0.27294448  0.72357656  1
  O  O332  1  0.44164445  0.60147084  0.23793424  1
  O  O333  1  0.42982795  0.59277768  0.72810215  1
  O  O334  1  0.43613394  0.92297862  0.22403825  1
  O  O335  1  0.42288470  0.92092036  0.74264754  1
  O  O336  1  0.76694576  0.26550507  0.23558221  1
  O  O337  1  0.75268330  0.25971211  0.72802323  1
  O  O338  1  0.76496269  0.60081252  0.22519078  1
  O  O339  1  0.77064813  0.59206618  0.72178801  1
  O  O340  1  0.76873359  0.92196409  0.22721460  1
  O  O341  1  0.75553471  0.93331448  0.73705103  1
  O  O342  1  0.07171163  0.10122261  0.22751411  1
  O  O343  1  0.07369383  0.08702557  0.73533539  1
  O  O344  1  0.07163896  0.43389775  0.22137220  1
  O  O345  1  0.06574107  0.43389934  0.72864334  1
  O  O346  1  0.06680750  0.76159390  0.22243677  1
  O  O347  1  0.07394906  0.74636059  0.72301480  1
  O  O348  1  0.40523402  0.08854686  0.22198542  1
  O  O349  1  0.39708961  0.10488293  0.72788638  1
  O  O350  1  0.40802966  0.43533093  0.24410427  1
  O  O351  1  0.40912875  0.42595378  0.72518440  1
  O  O352  1  0.40652419  0.76827448  0.22701032  1
  O  O353  1  0.40353479  0.74812043  0.73022917  1
  O  O354  1  0.75130883  0.07904532  0.22006255  1
  O  O355  1  0.73164749  0.10493428  0.72986444  1
  O  O356  1  0.73865989  0.43720160  0.24253204  1
  O  O357  1  0.73792947  0.43155358  0.73163553  1
  O  O358  1  0.74410894  0.75313570  0.22483362  1
  O  O359  1  0.74747258  0.75158439  0.73456065  1
