# generated using pymatgen
data_BaLaInIrO6
_symmetry_space_group_name_H-M   'P 1'
_cell_length_a   17.51883800
_cell_length_b   17.54374696
_cell_length_c   16.48722566
_cell_angle_alpha   90.04608124
_cell_angle_beta   90.03537057
_cell_angle_gamma   89.99451143
_symmetry_Int_Tables_number   1
_chemical_formula_structural   BaLaInIrO6
_chemical_formula_sum   'Ba36 La36 In36 Ir36 O216'
_cell_volume   5067.28123564
_cell_formula_units_Z   36
loop_
 _symmetry_equiv_pos_site_id
 _symmetry_equiv_pos_as_xyz
  1  'x, y, z'
loop_
 _atom_site_type_symbol
 _atom_site_label
 _atom_site_symmetry_multiplicity
 _atom_site_fract_x
 _atom_site_fract_y
 _atom_site_fract_z
 _atom_site_occupancy
  Ba  Ba0  1  0.83053295  0.66208629  0.37248378  1
  Ba  Ba1  1  -0.00104210  0.49596872  0.87503218  1
  Ba  Ba2  1  0.66689121  0.49200737  0.87274594  1
  Ba  Ba3  1  0.66281170  0.81917819  0.37271640  1
  Ba  Ba4  1  0.49952269  0.00600659  0.12767493  1
  Ba  Ba5  1  0.49845530  0.32774013  0.87301612  1
  Ba  Ba6  1  0.16211671  0.00836334  0.12488654  1
  Ba  Ba7  1  0.00009034  0.82622282  0.87452092  1
  Ba  Ba8  1  0.66761290  0.84571428  0.12708644  1
  Ba  Ba9  1  0.00072166  0.15758857  0.87253355  1
  Ba  Ba10  1  0.49610182  0.34574189  0.12458843  1
  Ba  Ba11  1  0.33444524  0.17520315  0.12628901  1
  Ba  Ba12  1  0.50133780  0.66065583  0.87456586  1
  Ba  Ba13  1  0.16504250  0.67714356  0.12399106  1
  Ba  Ba14  1  0.16611208  0.65937281  0.87359515  1
  Ba  Ba15  1  0.49772699  0.99296974  0.87806859  1
  Ba  Ba16  1  0.83921996  0.65865831  0.87478411  1
  Ba  Ba17  1  0.33227542  0.15486666  0.37486360  1
  Ba  Ba18  1  0.33288012  0.50715672  0.12401945  1
  Ba  Ba19  1  0.33227656  0.15845370  0.87886811  1
  Ba  Ba20  1  0.00341627  0.15891295  0.37935444  1
  Ba  Ba21  1  0.99992446  0.17602854  0.62407873  1
  Ba  Ba22  1  0.67032803  0.17405547  0.62366012  1
  Ba  Ba23  1  0.83599464  0.67321204  0.62005187  1
  Ba  Ba24  1  -0.00361582  0.49501633  0.37689858  1
  Ba  Ba25  1  1.00313484  0.51103008  0.62456455  1
  Ba  Ba26  1  1.00503749  0.51390687  0.12818871  1
  Ba  Ba27  1  0.16492241  0.34251571  0.12406540  1
  Ba  Ba28  1  0.16276193  0.67402593  0.62525400  1
  Ba  Ba29  1  0.16421113  0.32827081  0.87539291  1
  Ba  Ba30  1  -0.00131050  0.82791979  0.37046022  1
  Ba  Ba31  1  0.16372366  0.34276837  0.62307295  1
  Ba  Ba32  1  0.83596339  0.00899585  0.12714709  1
  Ba  Ba33  1  0.49789823  0.99316745  0.37465800  1
  Ba  Ba34  1  0.49828334  0.32445741  0.37479505  1
  Ba  Ba35  1  0.33433191  0.50987859  0.62329559  1
  La  La36  1  0.33315195  0.84184898  0.62905026  1
  La  La37  1  0.32283148  0.48740890  0.87938400  1
  La  La38  1  0.32802297  0.82200114  0.37176801  1
  La  La39  1  0.49603908  0.01248594  0.62695153  1
  La  La40  1  0.67004539  0.51513534  0.62706941  1
  La  La41  1  0.32797438  0.82401115  0.88043192  1
  La  La42  1  0.83995290  0.98750092  0.87701199  1
  La  La43  1  1.00591629  0.84059971  0.62825648  1
  La  La44  1  0.49505980  0.68477758  0.62357107  1
  La  La45  1  0.66994496  0.17893633  0.12479168  1
  La  La46  1  0.49406763  0.67706242  0.12829352  1
  La  La47  1  0.66754915  0.51796355  0.12371770  1
  La  La48  1  0.83574889  0.98391944  0.37604747  1
  La  La49  1  0.34164893  0.17987956  0.63068162  1
  La  La50  1  0.32827280  0.48201530  0.37138419  1
  La  La51  1  0.83126597  0.01080289  0.62475348  1
  La  La52  1  0.16605453  0.64794515  0.37252579  1
  La  La53  1  0.83827338  0.32271636  0.37594721  1
  La  La54  1  0.66393363  0.48522756  0.37266349  1
  La  La55  1  0.83079119  0.34545848  0.12436684  1
  La  La56  1  0.84213364  0.31616825  0.87143633  1
  La  La57  1  0.49891554  0.35019188  0.62446797  1
  La  La58  1  0.17384623  0.98597548  0.36997747  1
  La  La59  1  1.00735123  0.18248961  0.12560789  1
  La  La60  1  0.66087209  0.15077981  0.37202725  1
  La  La61  1  0.66912384  0.84275561  0.62373898  1
  La  La62  1  0.33818478  0.84326435  0.12592080  1
  La  La63  1  0.50545114  0.64812644  0.37409360  1
  La  La64  1  0.16378584  0.00789839  0.62678590  1
  La  La65  1  0.83200161  0.34981602  0.62587702  1
  La  La66  1  0.17242400  0.31634386  0.37610229  1
  La  La67  1  0.66307125  0.15282942  0.87730062  1
  La  La68  1  0.66607664  0.82014625  0.87953872  1
  La  La69  1  0.16942736  0.99075969  0.87805698  1
  La  La70  1  0.82991635  0.68700331  0.12681109  1
  La  La71  1  1.00197484  0.84558139  0.12196811  1
  In  In72  1  0.50310828  0.83384456  -0.00128548  1
  In  In73  1  0.82941392  0.50203527  0.49728677  1
  In  In74  1  -0.00026302  0.67005710  0.49641208  1
  In  In75  1  0.00050598  0.00223730  0.25140780  1
  In  In76  1  0.83375649  0.83417623  0.74600950  1
  In  In77  1  0.33227159  -0.00000412  0.00119871  1
  In  In78  1  0.66672016  0.66921273  0.74895049  1
  In  In79  1  0.49865794  0.50344692  -0.00218877  1
  In  In80  1  0.83061900  0.16760654  0.49939348  1
  In  In81  1  0.17098797  0.16073533  0.50185127  1
  In  In82  1  0.33398136  0.66562921  0.49720518  1
  In  In83  1  0.33220611  0.33328653  0.00134038  1
  In  In84  1  0.33287446  0.66414805  0.25161716  1
  In  In85  1  -0.00185673  0.67043567  0.00191355  1
  In  In86  1  0.66655136  -0.00411178  0.75218382  1
  In  In87  1  0.33462910  0.33268457  0.50117323  1
  In  In88  1  0.66929843  0.33474196  -0.00152560  1
  In  In89  1  0.66471393  -0.00459474  0.50000132  1
  In  In90  1  0.49965559  0.50313909  0.74841631  1
  In  In91  1  0.50386283  0.16673670  0.00102664  1
  In  In92  1  -0.00458770  0.33457917  0.00112654  1
  In  In93  1  0.16472567  0.50318405  0.00297940  1
  In  In94  1  0.50039457  0.83116192  0.25363219  1
  In  In95  1  0.50143203  0.16868219  0.24918715  1
  In  In96  1  0.16758739  0.83051703  0.50075864  1
  In  In97  1  0.00113723  -0.00123643  0.50095118  1
  In  In98  1  0.33367247  0.66885965  0.74942119  1
  In  In99  1  0.00077403  0.33380051  0.74612969  1
  In  In100  1  0.83412119  0.16730311  0.25111904  1
  In  In101  1  0.83200031  0.49947055  0.00150870  1
  In  In102  1  0.83299357  0.50231745  0.24937878  1
  In  In103  1  0.33134024  -0.00065445  0.24942860  1
  In  In104  1  0.66882986  0.33041501  0.74953810  1
  In  In105  1  0.50256703  0.16818515  0.50085307  1
  In  In106  1  0.33410709  0.33344956  0.74810280  1
  In  In107  1  0.16999446  0.16231997  0.74976609  1
  Ir  Ir108  1  0.50331997  0.16228481  0.74951420  1
  Ir  Ir109  1  0.66831723  0.67053330  0.00416425  1
  Ir  Ir110  1  0.83217069  0.83349932  0.49909113  1
  Ir  Ir111  1  0.67551139  0.00136640  0.00111584  1
  Ir  Ir112  1  0.50292561  0.49986296  0.25323252  1
  Ir  Ir113  1  0.33359634  0.67134134  0.00158219  1
  Ir  Ir114  1  0.00000634  0.67223790  0.24911906  1
  Ir  Ir115  1  0.16859941  0.83629593  0.75276180  1
  Ir  Ir116  1  0.16480234  0.83089794  0.24907557  1
  Ir  Ir117  1  0.83506024  0.16421849  0.00178616  1
  Ir  Ir118  1  0.67127399  0.00106377  0.24799038  1
  Ir  Ir119  1  -0.00128894  -0.00031119  -0.00295126  1
  Ir  Ir120  1  0.00022713  0.33285135  0.25612562  1
  Ir  Ir121  1  0.66909459  0.33578007  0.25154976  1
  Ir  Ir122  1  -0.00002048  0.33499959  0.49539329  1
  Ir  Ir123  1  0.83223757  0.16390376  0.75161350  1
  Ir  Ir124  1  0.83291860  0.50031807  0.74640027  1
  Ir  Ir125  1  0.83185520  0.83356505  0.25015836  1
  Ir  Ir126  1  0.65870979  0.66728722  0.49682368  1
  Ir  Ir127  1  0.66404043  0.66403652  0.24956832  1
  Ir  Ir128  1  0.16333668  0.16945099  0.24762038  1
  Ir  Ir129  1  0.00007962  0.66778560  0.74912142  1
  Ir  Ir130  1  0.50069349  0.83581941  0.74818274  1
  Ir  Ir131  1  0.33258250  -0.00596055  0.74749635  1
  Ir  Ir132  1  0.66807414  0.33650249  0.49859667  1
  Ir  Ir133  1  0.16101315  0.16273527  0.00237599  1
  Ir  Ir134  1  0.33314941  -0.00893323  0.50491666  1
  Ir  Ir135  1  0.16612240  0.49789197  0.49587813  1
  Ir  Ir136  1  0.16377837  0.49787598  0.25727231  1
  Ir  Ir137  1  0.16662583  0.50296498  0.74736017  1
  Ir  Ir138  1  -0.00179561  -0.00220313  0.75130477  1
  Ir  Ir139  1  0.50557847  0.50082165  0.49578032  1
  Ir  Ir140  1  0.16677495  0.83584684  0.00041452  1
  Ir  Ir141  1  0.49764744  0.83362851  0.50345044  1
  Ir  Ir142  1  0.83084863  0.83782031  0.00175507  1
  Ir  Ir143  1  0.33046940  0.33643748  0.25218977  1
  O  O144  1  0.31515672  0.33653822  0.13365678  1
  O  O145  1  0.31256148  0.31975263  0.62374204  1
  O  O146  1  0.31364195  0.66372016  0.12135342  1
  O  O147  1  0.31282945  0.67486530  0.62180147  1
  O  O148  1  0.30859177  0.98011156  0.12535746  1
  O  O149  1  0.30349924  0.98206281  0.62608930  1
  O  O150  1  0.64603035  0.31796305  0.13361212  1
  O  O151  1  0.63509971  0.32881626  0.61629058  1
  O  O152  1  0.63245772  0.66157942  0.12754330  1
  O  O153  1  0.63106057  0.66275030  0.61597792  1
  O  O154  1  0.64873931  1.00152867  0.12438883  1
  O  O155  1  0.63104962  0.98184126  0.62705284  1
  O  O156  1  0.96902108  0.32212278  0.13492007  1
  O  O157  1  0.96977884  0.33470920  0.61615846  1
  O  O158  1  0.97014154  0.67526723  0.13092364  1
  O  O159  1  0.98878184  0.67053075  0.62912912  1
  O  O160  1  0.98305783  0.98723138  0.11954078  1
  O  O161  1  0.96608667  0.98628748  0.63196534  1
  O  O162  1  0.18112577  0.16808741  0.12610904  1
  O  O163  1  0.20721267  0.14537096  0.62511065  1
  O  O164  1  0.18097522  0.50280560  0.13839247  1
  O  O165  1  0.18433363  0.50478922  0.61738483  1
  O  O166  1  0.19818447  0.82932698  0.12374145  1
  O  O167  1  0.19691696  0.82894580  0.63282687  1
  O  O168  1  0.53605651  0.16650124  0.12718861  1
  O  O169  1  0.52067847  0.14979248  0.63003101  1
  O  O170  1  0.53061777  0.50274106  0.13331670  1
  O  O171  1  0.53667498  0.49013666  0.61305823  1
  O  O172  1  0.52117383  0.81447544  0.12542573  1
  O  O173  1  0.53308637  0.82739333  0.62517188  1
  O  O174  1  0.86930562  0.16166070  0.12149825  1
  O  O175  1  0.85320652  0.15048368  0.63134054  1
  O  O176  1  0.85879678  0.47978233  0.12943155  1
  O  O177  1  0.85150319  0.49127759  0.62611219  1
  O  O178  1  0.86259641  0.82934542  0.12611219  1
  O  O179  1  0.86649781  0.83132660  0.61725328  1
  O  O180  1  0.15165468  0.17243803  0.36853834  1
  O  O181  1  0.14985408  0.15640444  0.88176035  1
  O  O182  1  0.14372419  0.50226851  0.37713202  1
  O  O183  1  0.15390276  0.50022382  0.86663357  1
  O  O184  1  0.14799958  0.84895485  0.37022920  1
  O  O185  1  0.14476837  0.85174018  0.87602472  1
  O  O186  1  0.48488038  0.16732204  0.37520977  1
  O  O187  1  0.48540222  0.16538208  0.86744808  1
  O  O188  1  0.46938649  0.50922513  0.37530447  1
  O  O189  1  0.46084086  0.50907367  0.87190416  1
  O  O190  1  0.46540404  0.83620460  0.38469248  1
  O  O191  1  0.46879558  0.83497685  0.86719599  1
  O  O192  1  0.79545474  0.18549118  0.37545704  1
  O  O193  1  0.80148182  0.17548695  0.87751467  1
  O  O194  1  0.79996788  0.50132494  0.37208558  1
  O  O195  1  0.81649873  0.50279830  0.86683783  1
  O  O196  1  0.80692247  0.84461372  0.37524565  1
  O  O197  1  0.80141530  0.84452715  0.87904365  1
  O  O198  1  0.03911281  -0.00242903  0.37479760  1
  O  O199  1  0.03122203  0.00271153  0.87395275  1
  O  O200  1  0.03443600  0.33625892  0.37522590  1
  O  O201  1  0.00876642  0.33346267  0.87324335  1
  O  O202  1  0.03072000  0.67561497  0.36795190  1
  O  O203  1  0.01237652  0.67002233  0.86941254  1
  O  O204  1  0.34529433  -0.00882765  0.38399314  1
  O  O205  1  0.34802183  -0.00265319  0.86708472  1
  O  O206  1  0.34768182  0.34210997  0.37271677  1
  O  O207  1  0.34589066  0.34822195  0.87229531  1
  O  O208  1  0.37054395  0.68186550  0.37559727  1
  O  O209  1  0.35365372  0.68432819  0.88028912  1
  O  O210  1  0.69901641  0.00828993  0.36929759  1
  O  O211  1  0.70314024  0.00930070  0.88036550  1
  O  O212  1  0.70223256  0.34927181  0.37569173  1
  O  O213  1  0.70790476  0.33518010  0.87321875  1
  O  O214  1  0.68398666  0.66366349  0.37360108  1
  O  O215  1  0.68994155  0.68046329  0.88157763  1
  O  O216  1  0.06442234  0.09436213  0.02430731  1
  O  O217  1  0.07894746  0.08837722  0.52721163  1
  O  O218  1  0.07184707  0.42516914  0.01620096  1
  O  O219  1  0.07235060  0.42698884  0.51591396  1
  O  O220  1  0.07205386  0.77058923  0.02318546  1
  O  O221  1  0.06672394  0.76749031  0.52256683  1
  O  O222  1  0.41329722  0.08715023  0.01504621  1
  O  O223  1  0.39715270  0.08743382  0.52751536  1
  O  O224  1  0.40469445  0.43163442  0.01364583  1
  O  O225  1  0.41608692  0.42874518  0.51465808  1
  O  O226  1  0.40086480  0.76136855  0.02417035  1
  O  O227  1  0.40702393  0.76851805  0.52985034  1
  O  O228  1  0.73948142  0.09956567  0.02440847  1
  O  O229  1  0.74539428  0.08361673  0.52228822  1
  O  O230  1  0.73417506  0.43181065  0.03476648  1
  O  O231  1  0.73096732  0.42933498  0.52588386  1
  O  O232  1  0.74411493  0.76047158  0.02751242  1
  O  O233  1  0.73104564  0.76340663  0.52367394  1
  O  O234  1  0.08517532  0.24893611  0.02138651  1
  O  O235  1  0.08869094  0.26195114  0.50928968  1
  O  O236  1  0.09403029  0.59860894  0.01091187  1
  O  O237  1  0.10043437  0.59402586  0.50196429  1
  O  O238  1  0.09020864  0.92472010  0.02028097  1
  O  O239  1  0.09400154  0.92393923  0.53489426  1
  O  O240  1  0.42433472  0.25687079  0.01259555  1
  O  O241  1  0.43288635  0.26172846  0.52867730  1
  O  O242  1  0.42846731  0.60739618  0.02394429  1
  O  O243  1  0.44135315  0.59652215  0.51853316  1
  O  O244  1  0.42085927  0.91712665  0.01851364  1
  O  O245  1  0.43310601  0.92951970  0.53233127  1
  O  O246  1  0.76844290  0.25539362  0.03150314  1
  O  O247  1  0.76345238  0.27377534  0.52450990  1
  O  O248  1  0.75603985  0.59942504  0.03371557  1
  O  O249  1  0.74436075  0.59285285  0.52207499  1
  O  O250  1  0.76487966  0.93123872  0.01685579  1
  O  O251  1  0.76225207  0.92135075  0.52675300  1
  O  O252  1  0.22901234  0.07255791  0.26922443  1
  O  O253  1  0.23272105  0.05054193  0.76599858  1
  O  O254  1  0.23312808  0.40531792  0.28097461  1
  O  O255  1  0.23992868  0.41763146  0.76006233  1
  O  O256  1  0.23306431  0.73906619  0.27676692  1
  O  O257  1  0.24388009  0.75237420  0.77690304  1
  O  O258  1  0.58545801  0.07276013  0.26998955  1
  O  O259  1  0.57318053  0.07163054  0.76976881  1
  O  O260  1  0.57528867  0.40694199  0.27528936  1
  O  O261  1  0.57491368  0.40383871  0.75886277  1
  O  O262  1  0.56697931  0.72700495  0.27300641  1
  O  O263  1  0.56689413  0.74432282  0.76279067  1
  O  O264  1  0.90075310  0.06879459  0.28098052  1
  O  O265  1  0.90055251  0.06586569  0.77454944  1
  O  O266  1  0.90587285  0.39794479  0.27688023  1
  O  O267  1  0.89440555  0.40151606  0.76126977  1
  O  O268  1  0.90054969  0.73887715  0.26082715  1
  O  O269  1  0.91041808  0.73997703  0.76080396  1
  O  O270  1  0.25684702  0.24535463  0.27317504  1
  O  O271  1  0.26981016  0.22968034  0.75834140  1
  O  O272  1  0.25856079  0.56756799  0.28205087  1
  O  O273  1  0.26152679  0.57104601  0.76934867  1
  O  O274  1  0.25688567  0.89834241  0.27349690  1
  O  O275  1  0.26976674  0.89748920  0.77126987  1
  O  O276  1  0.61043927  0.23875125  0.27477679  1
  O  O277  1  0.59906719  0.22641947  0.77112080  1
  O  O278  1  0.59958579  0.56593421  0.27504824  1
  O  O279  1  0.59935541  0.57203266  0.75737414  1
  O  O280  1  0.59742933  0.91185318  0.26514004  1
  O  O281  1  0.59780238  0.89513070  0.77804063  1
  O  O282  1  0.92925843  0.24492253  0.27618635  1
  O  O283  1  0.91744415  0.23734268  0.76620599  1
  O  O284  1  0.92869776  0.58250939  0.26725867  1
  O  O285  1  0.92829563  0.57327855  0.76354174  1
  O  O286  1  0.91943165  0.90751862  0.26552177  1
  O  O287  1  0.92313657  0.91432957  0.77551067  1
  O  O288  1  0.25664827  0.24094882  0.47898035  1
  O  O289  1  0.24772470  0.23672374  0.98851427  1
  O  O290  1  0.26128934  0.56434842  0.47080161  1
  O  O291  1  0.26887342  0.57793791  0.97750658  1
  O  O292  1  0.27568451  0.89142298  0.48661834  1
  O  O293  1  0.25559211  0.90482830  0.97295155  1
  O  O294  1  0.60840606  0.24096420  0.47386589  1
  O  O295  1  0.60791783  0.23079893  0.97984542  1
  O  O296  1  0.59485322  0.57113230  0.46651121  1
  O  O297  1  0.59872260  0.58080662  0.98715447  1
  O  O298  1  0.58959207  0.89799344  0.48228070  1
  O  O299  1  0.60678948  0.90799011  0.97613182  1
  O  O300  1  0.92482195  0.24877741  0.47697153  1
  O  O301  1  0.92162431  0.23254063  0.98162056  1
  O  O302  1  0.91999239  0.58075073  0.48740781  1
  O  O303  1  0.92165320  0.57736954  0.98995986  1
  O  O304  1  0.91682460  0.90819298  0.47612197  1
  O  O305  1  0.92224332  0.91154999  0.97449324  1
  O  O306  1  0.23376529  0.04846698  0.48269287  1
  O  O307  1  0.22997266  0.06952347  0.98358903  1
  O  O308  1  0.23575736  0.40673002  0.47465733  1
  O  O309  1  0.24325005  0.41539915  0.98439150  1
  O  O310  1  0.23631549  0.73490943  0.46361053  1
  O  O311  1  0.24245444  0.74752491  0.97664518  1
  O  O312  1  0.57768768  0.07589135  0.48272923  1
  O  O313  1  0.58879042  0.07150383  0.97861264  1
  O  O314  1  0.57775605  0.40944639  0.47072219  1
  O  O315  1  0.57505844  0.40947221  0.98202072  1
  O  O316  1  0.55920981  0.73435242  0.47739679  1
  O  O317  1  0.58390833  0.74568394  0.97607622  1
  O  O318  1  0.90359190  0.06988334  0.47682503  1
  O  O319  1  0.90247960  0.06825265  0.97288590  1
  O  O320  1  0.90344554  0.40141451  0.47823477  1
  O  O321  1  0.88783474  0.39048984  0.98525238  1
  O  O322  1  0.90203756  0.74748620  0.47862473  1
  O  O323  1  0.90136374  0.74924901  0.99000708  1
  O  O324  1  0.09203059  0.26271773  0.23148344  1
  O  O325  1  0.09175550  0.25342166  0.73247134  1
  O  O326  1  0.09825084  0.60242836  0.24282997  1
  O  O327  1  0.09385332  0.59502040  0.73615122  1
  O  O328  1  0.09207275  0.91797163  0.22855838  1
  O  O329  1  0.09137353  0.92570589  0.72316718  1
  O  O330  1  0.42115764  0.26601373  0.23610202  1
  O  O331  1  0.43813713  0.25480497  0.72258919  1
  O  O332  1  0.43920566  0.59633097  0.23498487  1
  O  O333  1  0.43382433  0.60410816  0.71964754  1
  O  O334  1  0.41985508  0.91742679  0.23330621  1
  O  O335  1  0.43323025  0.93107397  0.72298602  1
  O  O336  1  0.76516268  0.27271925  0.22934470  1
  O  O337  1  0.77007856  0.26025362  0.72375800  1
  O  O338  1  0.75628270  0.59832893  0.21802374  1
  O  O339  1  0.76161223  0.59045557  0.72703344  1
  O  O340  1  0.76493968  0.92949124  0.23789086  1
  O  O341  1  0.76300755  0.92930587  0.71701601  1
  O  O342  1  0.06839962  0.10404684  0.22632576  1
  O  O343  1  0.07445889  0.08007204  0.72577821  1
  O  O344  1  0.07045585  0.42523153  0.23511425  1
  O  O345  1  0.07737672  0.43086966  0.73336416  1
  O  O346  1  0.06762198  0.76673264  0.22288004  1
  O  O347  1  0.06980351  0.76748842  0.73059276  1
  O  O348  1  0.40876805  0.09019690  0.23620710  1
  O  O349  1  0.40308469  0.09182444  0.72371832  1
  O  O350  1  0.39989590  0.43549540  0.24414238  1
  O  O351  1  0.41602516  0.41987570  0.71624181  1
  O  O352  1  0.40117467  0.76021210  0.22462039  1
  O  O353  1  0.40891014  0.77047618  0.72293678  1
  O  O354  1  0.73340308  0.09948046  0.22925168  1
  O  O355  1  0.74496170  0.09205943  0.73562305  1
  O  O356  1  0.72697473  0.43195407  0.22759361  1
  O  O357  1  0.74194660  0.43185607  0.71904044  1
  O  O358  1  0.74023056  0.75455776  0.22644212  1
  O  O359  1  0.73160045  0.76871778  0.72884806  1
