# generated using pymatgen
data_BaLaInIrO6
_symmetry_space_group_name_H-M   'P 1'
_cell_length_a   17.51884446
_cell_length_b   17.55374426
_cell_length_c   16.46861380
_cell_angle_alpha   90.05856337
_cell_angle_beta   90.01130311
_cell_angle_gamma   90.00043725
_symmetry_Int_Tables_number   1
_chemical_formula_structural   BaLaInIrO6
_chemical_formula_sum   'Ba36 La36 In36 Ir36 O216'
_cell_volume   5064.44703131
_cell_formula_units_Z   36
loop_
 _symmetry_equiv_pos_site_id
 _symmetry_equiv_pos_as_xyz
  1  'x, y, z'
loop_
 _atom_site_type_symbol
 _atom_site_label
 _atom_site_symmetry_multiplicity
 _atom_site_fract_x
 _atom_site_fract_y
 _atom_site_fract_z
 _atom_site_occupancy
  Ba  Ba0  1  0.16663732  0.00844381  0.62771760  1
  Ba  Ba1  1  0.49819328  0.00614468  0.12392210  1
  Ba  Ba2  1  1.00249129  0.50849770  0.62213719  1
  Ba  Ba3  1  0.66333518  0.16725967  0.12404581  1
  Ba  Ba4  1  0.66650275  0.15450627  0.87574542  1
  Ba  Ba5  1  0.66732435  0.50801445  0.12177496  1
  Ba  Ba6  1  0.33275138  0.17357686  0.62628664  1
  Ba  Ba7  1  1.00467471  0.84573877  0.62758111  1
  Ba  Ba8  1  1.00153424  0.50459833  0.12397411  1
  Ba  Ba9  1  0.16417073  0.32398617  0.37720361  1
  Ba  Ba10  1  0.49779046  0.67743840  0.12692746  1
  Ba  Ba11  1  0.66294061  0.82925610  0.87597802  1
  Ba  Ba12  1  0.33260863  0.51389025  0.12295158  1
  Ba  Ba13  1  0.33492288  0.84218036  0.12542521  1
  Ba  Ba14  1  0.00137265  0.82807466  0.87670428  1
  Ba  Ba15  1  0.50232772  0.99382148  0.87411671  1
  Ba  Ba16  1  0.83597087  0.32420422  0.37483924  1
  Ba  Ba17  1  0.33283123  0.84561696  0.61765314  1
  Ba  Ba18  1  0.83346904  0.65991685  0.37213618  1
  Ba  Ba19  1  0.66762242  0.84060084  0.12755255  1
  Ba  Ba20  1  0.66620401  0.15939177  0.37208115  1
  Ba  Ba21  1  1.00089420  0.83967598  0.12855208  1
  Ba  Ba22  1  0.50090720  0.65852461  0.37668606  1
  Ba  Ba23  1  0.32939846  0.82688451  0.87339002  1
  Ba  Ba24  1  0.16642254  0.32553466  0.87472767  1
  Ba  Ba25  1  0.50245567  0.99373906  0.37467617  1
  Ba  Ba26  1  0.82933102  0.67866482  0.12604785  1
  Ba  Ba27  1  0.17070024  0.65947857  0.37345613  1
  Ba  Ba28  1  0.83209905  0.34153007  0.12269327  1
  Ba  Ba29  1  0.99951504  0.17128134  0.12286591  1
  Ba  Ba30  1  0.16481140  0.99428441  0.87250750  1
  Ba  Ba31  1  -0.00376027  0.15117889  0.87430851  1
  Ba  Ba32  1  0.16492522  0.00603493  0.12047529  1
  Ba  Ba33  1  0.83215343  0.98845969  0.87416182  1
  Ba  Ba34  1  0.83612820  0.31719113  0.87547980  1
  Ba  Ba35  1  0.50382004  0.32264473  0.87426090  1
  La  La36  1  0.67122846  0.85274465  0.62467264  1
  La  La37  1  0.16718762  0.98957275  0.37512415  1
  La  La38  1  0.50183580  0.65448409  0.87916738  1
  La  La39  1  1.00611383  0.17467149  0.62911511  1
  La  La40  1  0.83172006  0.01618272  0.63004950  1
  La  La41  1  0.83172867  0.68965154  0.62651759  1
  La  La42  1  0.49708966  0.01841543  0.62444512  1
  La  La43  1  -0.00357480  0.48635634  0.37091535  1
  La  La44  1  0.82702610  0.00687557  0.12373078  1
  La  La45  1  0.32686880  0.48516539  0.37031839  1
  La  La46  1  0.32849468  0.15253275  0.37771237  1
  La  La47  1  0.83500308  0.98199012  0.37345556  1
  La  La48  1  0.83598107  0.65777792  0.87745918  1
  La  La49  1  0.50264800  0.31896006  0.37383400  1
  La  La50  1  0.16235584  0.68472069  0.62747505  1
  La  La51  1  0.32465874  0.15167373  0.87423853  1
  La  La52  1  0.66254391  0.81997765  0.37482142  1
  La  La53  1  0.33967562  0.18150884  0.12555960  1
  La  La54  1  0.65969621  0.48342971  0.36500900  1
  La  La55  1  0.16171536  0.68324432  0.12503861  1
  La  La56  1  0.83009018  0.34912545  0.62554063  1
  La  La57  1  -0.00640737  0.14776495  0.37271626  1
  La  La58  1  0.49526616  0.68617326  0.62925603  1
  La  La59  1  0.66923280  0.17907272  0.62627145  1
  La  La60  1  0.49721744  0.34948693  0.12423526  1
  La  La61  1  0.33137514  0.48570385  0.87765173  1
  La  La62  1  0.49850641  0.34614897  0.62277030  1
  La  La63  1  0.67809405  0.51398411  0.62650966  1
  La  La64  1  -0.00450850  0.81735857  0.37666521  1
  La  La65  1  0.66084089  0.48574505  0.88081182  1
  La  La66  1  0.16300138  0.34454201  0.62546462  1
  La  La67  1  -0.00686568  0.48581866  0.87831427  1
  La  La68  1  0.33959951  0.51220140  0.62868358  1
  La  La69  1  0.16157063  0.34637192  0.12619577  1
  La  La70  1  0.33291060  0.81644131  0.36868822  1
  La  La71  1  0.16765380  0.65958777  0.87519000  1
  In  In72  1  0.33333237  0.33180255  0.50078104  1
  In  In73  1  0.49651245  0.83352843  -0.00174670  1
  In  In74  1  0.17004168  0.50148579  0.49915103  1
  In  In75  1  0.66667231  0.66842254  -0.00281251  1
  In  In76  1  0.16632462  0.83619931  0.25086203  1
  In  In77  1  0.66629973  0.33312011  0.50056433  1
  In  In78  1  0.50347183  0.49997027  0.50109566  1
  In  In79  1  0.16965477  0.16619926  0.25105227  1
  In  In80  1  0.50443053  0.50266462  0.74960843  1
  In  In81  1  0.16928833  0.16735598  0.00278313  1
  In  In82  1  -0.00005855  0.66215855  0.25020431  1
  In  In83  1  0.33595595  -0.00191511  0.74767887  1
  In  In84  1  0.16757233  0.83541220  -0.00076527  1
  In  In85  1  0.66641527  0.66498332  0.50219055  1
  In  In86  1  0.66674319  0.32796082  0.24751163  1
  In  In87  1  -0.00133619  0.32964832  0.50128810  1
  In  In88  1  -0.00072104  0.66555550  0.74963569  1
  In  In89  1  0.00002531  0.33049547  0.00053482  1
  In  In90  1  0.00039111  0.66691868  0.00068303  1
  In  In91  1  0.33539325  0.66517081  0.50283499  1
  In  In92  1  0.16713412  0.50343025  -0.00047246  1
  In  In93  1  -0.00172281  -0.00018431  0.50095360  1
  In  In94  1  0.16859475  0.50298752  0.74910774  1
  In  In95  1  0.50207492  0.83789912  0.50035935  1
  In  In96  1  0.66611575  0.66923468  0.75170348  1
  In  In97  1  0.67029286  0.00330181  0.50026522  1
  In  In98  1  0.66512505  -0.00063692  0.25149480  1
  In  In99  1  0.66421105  0.66504206  0.25043985  1
  In  In100  1  -0.00213842  0.33169537  0.74748597  1
  In  In101  1  0.16655649  0.83653594  0.49751076  1
  In  In102  1  0.83392802  0.50516552  0.49897149  1
  In  In103  1  0.66745519  0.32866061  0.00084542  1
  In  In104  1  0.49673888  0.16629411  -0.00281155  1
  In  In105  1  -0.00005066  0.32864319  0.24975831  1
  In  In106  1  0.66782859  0.33272909  0.74998105  1
  In  In107  1  0.33369178  0.33239984  0.74989934  1
  Ir  Ir108  1  0.50096023  0.83314112  0.74746670  1
  Ir  Ir109  1  -0.00478576  -0.00226491  0.75099022  1
  Ir  Ir110  1  0.16974196  0.49944158  0.25046377  1
  Ir  Ir111  1  0.16374472  0.16472049  0.50119183  1
  Ir  Ir112  1  0.83033947  0.49906356  0.24925871  1
  Ir  Ir113  1  -0.00591223  -0.00178644  0.00219678  1
  Ir  Ir114  1  0.83320553  0.50253701  0.75178928  1
  Ir  Ir115  1  0.33239350  0.00338832  0.00301924  1
  Ir  Ir116  1  -0.00044677  0.66780723  0.50071880  1
  Ir  Ir117  1  0.49469977  0.50089485  0.00027121  1
  Ir  Ir118  1  0.83242804  0.83582008  -0.00110707  1
  Ir  Ir119  1  0.49249265  0.16848582  0.25187776  1
  Ir  Ir120  1  0.33396990  0.66458854  -0.00486816  1
  Ir  Ir121  1  0.83125977  0.50167956  -0.00399014  1
  Ir  Ir122  1  0.33393575  0.00128758  0.25399210  1
  Ir  Ir123  1  0.33528194  0.33343782  0.24905389  1
  Ir  Ir124  1  0.16694788  0.16545138  0.74762082  1
  Ir  Ir125  1  0.49555656  0.83501375  0.25299515  1
  Ir  Ir126  1  0.33392113  0.66470823  0.24834999  1
  Ir  Ir127  1  0.83395079  0.15879162  0.00049575  1
  Ir  Ir128  1  0.50141831  0.16570279  0.74514861  1
  Ir  Ir129  1  0.83132075  0.83551684  0.74790504  1
  Ir  Ir130  1  0.83656074  0.16386705  0.50032362  1
  Ir  Ir131  1  0.49971202  0.16697324  0.49977918  1
  Ir  Ir132  1  0.33550459  0.00431676  0.49430960  1
  Ir  Ir133  1  0.49170784  0.49812584  0.25094965  1
  Ir  Ir134  1  0.83504544  0.16190673  0.74462561  1
  Ir  Ir135  1  0.16646637  0.83216774  0.75006770  1
  Ir  Ir136  1  0.83464062  0.83846796  0.25292966  1
  Ir  Ir137  1  0.33493959  0.33405107  0.00322081  1
  Ir  Ir138  1  0.83456810  0.16026653  0.25261405  1
  Ir  Ir139  1  -0.00192361  0.00124970  0.25053234  1
  Ir  Ir140  1  0.33445881  0.66869847  0.75224548  1
  Ir  Ir141  1  0.83477413  0.83526053  0.50279268  1
  Ir  Ir142  1  0.66798455  -0.00159194  -0.00177404  1
  Ir  Ir143  1  0.66304874  -0.00072515  0.74661577  1
  O  O144  1  0.29962083  0.32123003  0.12626906  1
  O  O145  1  0.29642223  0.32636870  0.62561267  1
  O  O146  1  0.30114076  0.66478424  0.11913370  1
  O  O147  1  0.29951799  0.65621477  0.63370375  1
  O  O148  1  0.31290308  0.99789515  0.13110675  1
  O  O149  1  0.31844555  1.00374367  0.61490379  1
  O  O150  1  0.63484026  0.33242967  0.12529614  1
  O  O151  1  0.63559870  0.31968470  0.62534955  1
  O  O152  1  0.65057725  0.66822997  0.12469163  1
  O  O153  1  0.63035139  0.64834481  0.62885774  1
  O  O154  1  0.65441949  0.99895898  0.12061559  1
  O  O155  1  0.63654415  0.99255338  0.62709326  1
  O  O156  1  0.98095858  0.33399026  0.12607017  1
  O  O157  1  0.96266897  0.31611004  0.62444399  1
  O  O158  1  0.97637701  0.66180501  0.12603710  1
  O  O159  1  0.96763528  0.66436493  0.62045713  1
  O  O160  1  0.96608148  0.99791985  0.12719556  1
  O  O161  1  0.96969738  1.00023656  0.62926995  1
  O  O162  1  0.20477086  0.15863308  0.12760779  1
  O  O163  1  0.18619681  0.16188454  0.62265808  1
  O  O164  1  0.18792249  0.48356706  0.13087867  1
  O  O165  1  0.20662261  0.48659053  0.62491268  1
  O  O166  1  0.18553504  0.82745217  0.12599270  1
  O  O167  1  0.18156327  0.82664893  0.62781698  1
  O  O168  1  0.50905397  0.16516164  0.13259420  1
  O  O169  1  0.53223941  0.15681177  0.62188410  1
  O  O170  1  0.51838997  0.48936535  0.12607319  1
  O  O171  1  0.54493314  0.48308968  0.62617761  1
  O  O172  1  0.51334124  0.83539317  0.13190205  1
  O  O173  1  0.53250514  0.82417123  0.62973780  1
  O  O174  1  0.85462081  0.14412698  0.12740280  1
  O  O175  1  0.86777431  0.15314002  0.62151400  1
  O  O176  1  0.85443501  0.49799195  0.12089410  1
  O  O177  1  0.85489249  0.49080573  0.63317376  1
  O  O178  1  0.85421630  0.84045378  0.12602991  1
  O  O179  1  0.85945674  0.82689275  0.62602795  1
  O  O180  1  0.13398092  0.16535933  0.38204678  1
  O  O181  1  0.15032956  0.16610722  0.86848450  1
  O  O182  1  0.13504192  0.50669985  0.36975463  1
  O  O183  1  0.12985228  0.51926920  0.87290576  1
  O  O184  1  0.13240615  0.84619773  0.37365237  1
  O  O185  1  0.15466758  0.82924069  0.86989904  1
  O  O186  1  0.46604407  0.17837600  0.37734799  1
  O  O187  1  0.46525496  0.16719377  0.86570931  1
  O  O188  1  0.46315633  0.50176929  0.37113454  1
  O  O189  1  0.46605802  0.50902080  0.88015920  1
  O  O190  1  0.46786613  0.83703991  0.37232502  1
  O  O191  1  0.47952773  0.83995147  0.86586091  1
  O  O192  1  0.81243125  0.16927030  0.37671497  1
  O  O193  1  0.81334220  0.16338244  0.87313506  1
  O  O194  1  0.79952925  0.50046944  0.36950185  1
  O  O195  1  0.79942608  0.51194566  0.87356835  1
  O  O196  1  0.80211869  0.84380845  0.37830944  1
  O  O197  1  0.80956534  0.83379857  0.87462615  1
  O  O198  1  0.02736679  0.01026655  0.37079794  1
  O  O199  1  0.01567327  -0.00363753  0.87655318  1
  O  O200  1  0.01320833  0.34689879  0.37484829  1
  O  O201  1  0.01277613  0.34195322  0.87315180  1
  O  O202  1  0.01959837  0.67749510  0.38048425  1
  O  O203  1  0.03042961  0.66852674  0.87384742  1
  O  O204  1  0.35770441  0.01619356  0.37318625  1
  O  O205  1  0.35062557  0.01147994  0.88024693  1
  O  O206  1  0.36880371  0.34329172  0.36829098  1
  O  O207  1  0.35840131  0.34375717  0.88293794  1
  O  O208  1  0.35299041  0.67508334  0.36898324  1
  O  O209  1  0.36757727  0.67240180  0.87392258  1
  O  O210  1  0.69902123  0.00425994  0.37626833  1
  O  O211  1  0.68271716  -0.00199719  0.87130368  1
  O  O212  1  0.68470861  0.34217684  0.37336081  1
  O  O213  1  0.68819699  0.34131645  0.87538337  1
  O  O214  1  0.68533206  0.68331882  0.37465836  1
  O  O215  1  0.70319524  0.67600693  0.87348023  1
  O  O216  1  0.06960604  0.08582056  0.01311717  1
  O  O217  1  0.06472970  0.10407974  0.51914218  1
  O  O218  1  0.07718293  0.42525182  0.01046517  1
  O  O219  1  0.08354371  0.41793112  0.52371843  1
  O  O220  1  0.07906723  0.75756489  0.02017517  1
  O  O221  1  0.06936422  0.75764584  0.51683037  1
  O  O222  1  0.39776255  0.09860421  0.02038330  1
  O  O223  1  0.40384368  0.10089402  0.51227844  1
  O  O224  1  0.40744804  0.42439677  0.02545456  1
  O  O225  1  0.40794575  0.42690083  0.53751332  1
  O  O226  1  0.40158822  0.75414428  0.01386234  1
  O  O227  1  0.41344416  0.75684699  0.52110075  1
  O  O228  1  0.74340491  0.08468794  0.01951620  1
  O  O229  1  0.74255227  0.09980988  0.53223664  1
  O  O230  1  0.74117289  0.42971222  0.01019170  1
  O  O231  1  0.73785255  0.42908637  0.53002612  1
  O  O232  1  0.74449290  0.76711286  0.01484417  1
  O  O233  1  0.74142694  0.76836605  0.53020143  1
  O  O234  1  0.10307639  0.26409855  0.02412666  1
  O  O235  1  0.09922319  0.25754042  0.52969535  1
  O  O236  1  0.10553848  0.60267479  0.02703972  1
  O  O237  1  0.09609460  0.60401851  0.52463113  1
  O  O238  1  0.08236800  0.92733818  0.01137015  1
  O  O239  1  0.09854067  0.93545251  0.50968423  1
  O  O240  1  0.42457887  0.26644748  0.03062977  1
  O  O241  1  0.43814147  0.26516789  0.51870878  1
  O  O242  1  0.42908410  0.59665416  0.01389902  1
  O  O243  1  0.43316502  0.59469101  0.53825147  1
  O  O244  1  0.41952453  0.92972320  0.01228712  1
  O  O245  1  0.43289741  0.94099327  0.52007908  1
  O  O246  1  0.76219747  0.24697388  0.01636586  1
  O  O247  1  0.77057598  0.25925506  0.52828746  1
  O  O248  1  0.76387147  0.59178683  0.00940937  1
  O  O249  1  0.76813284  0.60191923  0.53316618  1
  O  O250  1  0.76393585  0.93002716  0.02150041  1
  O  O251  1  0.77137204  0.93067475  0.52858134  1
  O  O252  1  0.24084730  0.06819925  0.28113857  1
  O  O253  1  0.24506559  0.08068393  0.76593617  1
  O  O254  1  0.24304553  0.40615297  0.27330129  1
  O  O255  1  0.24962088  0.41591574  0.78143611  1
  O  O256  1  0.24940489  0.74123587  0.26602717  1
  O  O257  1  0.23215422  0.73199898  0.76820366  1
  O  O258  1  0.56864218  0.08078039  0.26482906  1
  O  O259  1  0.56742637  0.06701646  0.75819431  1
  O  O260  1  0.56163247  0.40731230  0.27257104  1
  O  O261  1  0.58131897  0.41335832  0.77855060  1
  O  O262  1  0.57021768  0.74957227  0.27101067  1
  O  O263  1  0.55971975  0.73446745  0.77009085  1
  O  O264  1  0.90325887  0.06592329  0.27936037  1
  O  O265  1  0.89810801  0.06353909  0.75938682  1
  O  O266  1  0.90554696  0.41437020  0.26735300  1
  O  O267  1  0.90281427  0.41306482  0.76985757  1
  O  O268  1  0.91039115  0.75243852  0.27274706  1
  O  O269  1  0.89357056  0.73567800  0.76611824  1
  O  O270  1  0.27421520  0.23781378  0.27500769  1
  O  O271  1  0.26092045  0.23330850  0.77339188  1
  O  O272  1  0.26681914  0.56785815  0.27122772  1
  O  O273  1  0.27153431  0.57676394  0.78027230  1
  O  O274  1  0.26557933  0.90943395  0.28230668  1
  O  O275  1  0.25604729  0.90588916  0.75888716  1
  O  O276  1  0.57919077  0.24227350  0.27349815  1
  O  O277  1  0.59479649  0.23018912  0.75966733  1
  O  O278  1  0.58750238  0.56430258  0.27273097  1
  O  O279  1  0.59514763  0.57524563  0.79081559  1
  O  O280  1  0.59243083  0.90082198  0.27538134  1
  O  O281  1  0.59973032  0.89858497  0.75670540  1
  O  O282  1  0.92913229  0.22642203  0.27241089  1
  O  O283  1  0.92707465  0.22824772  0.76020319  1
  O  O284  1  0.92693580  0.56519630  0.27569785  1
  O  O285  1  0.92501773  0.56890240  0.78128772  1
  O  O286  1  0.93046715  0.90785799  0.28029353  1
  O  O287  1  0.92613303  0.90328718  0.76765664  1
  O  O288  1  0.26031190  0.22882331  0.47643976  1
  O  O289  1  0.27427026  0.23903675  0.97901502  1
  O  O290  1  0.27152411  0.56673283  0.47549455  1
  O  O291  1  0.26766168  0.57280068  0.96802449  1
  O  O292  1  0.26932762  0.91170989  0.46765538  1
  O  O293  1  0.25976217  0.91546507  0.98659391  1
  O  O294  1  0.59279732  0.23203651  0.48542299  1
  O  O295  1  0.58773685  0.24023848  0.98329335  1
  O  O296  1  0.60822547  0.55884603  0.47203733  1
  O  O297  1  0.58692607  0.57000397  0.97379522  1
  O  O298  1  0.60729218  0.90006123  0.48180674  1
  O  O299  1  0.59353617  0.91256327  0.98935712  1
  O  O300  1  0.93337754  0.22376684  0.47721533  1
  O  O301  1  0.92158115  0.23287727  0.98743540  1
  O  O302  1  0.93878153  0.57155679  0.47425698  1
  O  O303  1  0.92357757  0.57107202  0.96880190  1
  O  O304  1  0.92699914  0.90146537  0.46953562  1
  O  O305  1  0.92356033  0.90447947  0.98663346  1
  O  O306  1  0.23437320  0.06970957  0.47081592  1
  O  O307  1  0.24747649  0.07696573  0.97954961  1
  O  O308  1  0.24899936  0.41024073  0.46677316  1
  O  O309  1  0.24796873  0.40760561  0.98362162  1
  O  O310  1  0.24655993  0.74787663  0.48263485  1
  O  O311  1  0.23959797  0.72865516  0.97711433  1
  O  O312  1  0.56739475  0.07359638  0.48968129  1
  O  O313  1  0.57887211  0.07219630  0.98713239  1
  O  O314  1  0.56457479  0.39684865  0.47091526  1
  O  O315  1  0.56939390  0.41546107  0.98439826  1
  O  O316  1  0.57741542  0.74365417  0.48410808  1
  O  O317  1  0.56650718  0.73636287  0.97499813  1
  O  O318  1  0.89697984  0.06672892  0.47415592  1
  O  O319  1  0.90217469  0.06629716  0.98872030  1
  O  O320  1  0.90668910  0.41017679  0.48931460  1
  O  O321  1  0.90555823  0.41657501  0.97791258  1
  O  O322  1  0.90517875  0.74051035  0.48038360  1
  O  O323  1  0.89839994  0.74103779  0.97631822  1
  O  O324  1  0.10435130  0.26543787  0.22759750  1
  O  O325  1  0.09626935  0.25457322  0.72136136  1
  O  O326  1  0.10638936  0.59184787  0.22641829  1
  O  O327  1  0.10121225  0.60113207  0.71865478  1
  O  O328  1  0.08989303  0.93534896  0.23563688  1
  O  O329  1  0.09427212  0.92815758  0.73685697  1
  O  O330  1  0.42774400  0.26630009  0.22285651  1
  O  O331  1  0.43834067  0.26260145  0.72289502  1
  O  O332  1  0.42482555  0.59261616  0.23159440  1
  O  O333  1  0.42914510  0.60290902  0.72622253  1
  O  O334  1  0.42521551  0.92916914  0.23560515  1
  O  O335  1  0.43746416  0.92877088  0.72235778  1
  O  O336  1  0.76356401  0.24989801  0.23338565  1
  O  O337  1  0.76756064  0.25654419  0.71885578  1
  O  O338  1  0.76025260  0.58718974  0.23518825  1
  O  O339  1  0.76826458  0.59624830  0.72460805  1
  O  O340  1  0.76976986  0.93189837  0.23629683  1
  O  O341  1  0.76097062  0.93192128  0.72045781  1
  O  O342  1  0.06632916  0.09301289  0.23760601  1
  O  O343  1  0.06679624  0.09551853  0.72757120  1
  O  O344  1  0.08102976  0.42866205  0.23705284  1
  O  O345  1  0.08189454  0.41761683  0.72362975  1
  O  O346  1  0.08068167  0.75157378  0.23664161  1
  O  O347  1  0.07873545  0.75986022  0.73165357  1
  O  O348  1  0.39519331  0.10249924  0.23334575  1
  O  O349  1  0.41456624  0.09223761  0.72819419  1
  O  O350  1  0.40411667  0.42412028  0.22326776  1
  O  O351  1  0.40915183  0.42921183  0.72253724  1
  O  O352  1  0.40130087  0.76431202  0.23769469  1
  O  O353  1  0.40675713  0.76359787  0.72426244  1
  O  O354  1  0.74702273  0.08971147  0.23250084  1
  O  O355  1  0.73435551  0.09435204  0.72070832  1
  O  O356  1  0.73947742  0.42857264  0.23390892  1
  O  O357  1  0.74241664  0.43218613  0.72437440  1
  O  O358  1  0.74451900  0.76809610  0.24247605  1
  O  O359  1  0.73817736  0.76859697  0.71844237  1
