# generated using pymatgen
data_BaLaInIrO6
_symmetry_space_group_name_H-M   'P 1'
_cell_length_a   17.54043637
_cell_length_b   17.57554830
_cell_length_c   16.51589056
_cell_angle_alpha   90.04299051
_cell_angle_beta   90.03500101
_cell_angle_gamma   89.99044820
_symmetry_Int_Tables_number   1
_chemical_formula_structural   BaLaInIrO6
_chemical_formula_sum   'Ba36 La36 In36 Ir36 O216'
_cell_volume   5091.56231355
_cell_formula_units_Z   36
loop_
 _symmetry_equiv_pos_site_id
 _symmetry_equiv_pos_as_xyz
  1  'x, y, z'
loop_
 _atom_site_type_symbol
 _atom_site_label
 _atom_site_symmetry_multiplicity
 _atom_site_fract_x
 _atom_site_fract_y
 _atom_site_fract_z
 _atom_site_occupancy
  Ba  Ba0  1  0.49859067  0.00623866  0.62419850  1
  Ba  Ba1  1  0.33497691  0.83795328  0.12567272  1
  Ba  Ba2  1  0.33278637  0.82166866  0.87309570  1
  Ba  Ba3  1  -0.00471935  0.15120911  0.37922222  1
  Ba  Ba4  1  0.17033370  0.32552965  0.37670120  1
  Ba  Ba5  1  0.16736191  0.00592307  0.62882326  1
  Ba  Ba6  1  1.00062283  0.84203974  0.62281171  1
  Ba  Ba7  1  0.66704989  0.48805670  0.87676094  1
  Ba  Ba8  1  0.66820642  0.84213691  0.62480443  1
  Ba  Ba9  1  0.50563470  0.32429871  0.87653143  1
  Ba  Ba10  1  0.16312237  0.67831658  0.62454732  1
  Ba  Ba11  1  0.66729517  0.84465284  0.12210273  1
  Ba  Ba12  1  0.82822838  0.68219999  0.11846262  1
  Ba  Ba13  1  0.49665025  0.66641949  0.37278486  1
  Ba  Ba14  1  0.83527243  0.98460399  0.86978136  1
  Ba  Ba15  1  0.50178330  0.65813723  0.87641399  1
  Ba  Ba16  1  0.67126288  0.18042565  0.62794691  1
  Ba  Ba17  1  1.00094939  0.50836557  0.62617041  1
  Ba  Ba18  1  0.33291920  0.82731275  0.37642918  1
  Ba  Ba19  1  0.50318163  0.34164795  0.12372555  1
  Ba  Ba20  1  0.16302785  0.98657570  0.87856497  1
  Ba  Ba21  1  0.16453891  0.66166731  0.37723985  1
  Ba  Ba22  1  0.16130729  0.67939051  0.12546824  1
  Ba  Ba23  1  0.83156298  0.34615273  0.62755661  1
  Ba  Ba24  1  0.33537817  0.50063821  0.37206997  1
  Ba  Ba25  1  0.33230599  0.84070261  0.62680430  1
  Ba  Ba26  1  0.49828643  0.99369262  0.37235919  1
  Ba  Ba27  1  0.82813868  0.01133371  0.62782818  1
  Ba  Ba28  1  0.49981123  0.00493085  0.12671154  1
  Ba  Ba29  1  0.66423925  0.82720701  0.37419713  1
  Ba  Ba30  1  0.49940343  0.67014819  0.12416530  1
  Ba  Ba31  1  0.16637926  0.99277851  0.37725677  1
  Ba  Ba32  1  0.33216468  0.17036417  0.12519339  1
  Ba  Ba33  1  0.66852597  0.15552569  0.87008931  1
  Ba  Ba34  1  0.16883409  0.32632329  0.87170980  1
  Ba  Ba35  1  0.83828877  0.32025047  0.37846026  1
  La  La36  1  0.33395788  0.15340649  0.87560567  1
  La  La37  1  0.49555860  0.68170189  0.62471984  1
  La  La38  1  0.66932384  0.51966612  0.12205138  1
  La  La39  1  -0.00885260  0.14665996  0.87648951  1
  La  La40  1  0.33492695  0.15751880  0.38142713  1
  La  La41  1  0.66434112  0.15354343  0.37784073  1
  La  La42  1  0.66329796  0.81998899  0.87800794  1
  La  La43  1  0.16386006  0.34622751  0.62102758  1
  La  La44  1  0.16874228  0.01083012  0.12987529  1
  La  La45  1  0.50475715  0.98269085  0.87781906  1
  La  La46  1  1.00400163  0.84940192  0.12173829  1
  La  La47  1  0.16633639  0.35164279  0.12457485  1
  La  La48  1  1.00526077  0.51470354  0.12200920  1
  La  La49  1  0.82613405  0.34623826  0.12274473  1
  La  La50  1  0.84035744  0.98312526  0.37877362  1
  La  La51  1  0.49964719  0.35159877  0.63463283  1
  La  La52  1  0.83748876  0.65188624  0.37543355  1
  La  La53  1  -0.00599216  0.48461473  0.37525493  1
  La  La54  1  0.33456298  0.49106496  0.87610865  1
  La  La55  1  0.65709950  0.48747782  0.37677003  1
  La  La56  1  0.67002697  0.51390445  0.62910437  1
  La  La57  1  -0.00059081  0.82353839  0.37618551  1
  La  La58  1  0.33324260  0.51792412  0.62695653  1
  La  La59  1  -0.00889145  0.48529500  0.86851729  1
  La  La60  1  0.82663803  0.01479410  0.11937114  1
  La  La61  1  0.16874346  0.65893194  0.87298974  1
  La  La62  1  0.83775179  0.31468085  0.87072686  1
  La  La63  1  -0.00592839  0.81840162  0.86694512  1
  La  La64  1  0.66994677  0.17460435  0.11845820  1
  La  La65  1  0.82845340  0.68144701  0.62442591  1
  La  La66  1  1.00228950  0.17687280  0.62846506  1
  La  La67  1  0.33337769  0.51280325  0.12319545  1
  La  La68  1  0.33709416  0.18146759  0.62740192  1
  La  La69  1  0.50431768  0.32118648  0.37334081  1
  La  La70  1  1.01073782  0.18138073  0.12500238  1
  La  La71  1  0.83528650  0.65141587  0.86919003  1
  In  In72  1  0.33085419  0.00091628  0.24915695  1
  In  In73  1  0.50250648  0.17247968  0.50567490  1
  In  In74  1  0.50056799  0.50255126  0.50347428  1
  In  In75  1  0.67340484  0.00264002  0.24886340  1
  In  In76  1  0.49980463  0.49978077  0.24884840  1
  In  In77  1  0.33159508  0.00280168  0.50418574  1
  In  In78  1  0.67120409  0.33345764  0.25081729  1
  In  In79  1  0.33876796  0.33828472  0.50300264  1
  In  In80  1  0.16629134  0.16800034  -0.00602801  1
  In  In81  1  0.50289371  0.16879961  0.25048081  1
  In  In82  1  0.16233955  0.50067389  0.25034099  1
  In  In83  1  0.50201214  0.49897606  -0.00087493  1
  In  In84  1  0.33300981  -0.00329873  -0.00281810  1
  In  In85  1  0.49988531  0.82844160  0.00059677  1
  In  In86  1  0.33496779  0.33416484  0.24951390  1
  In  In87  1  0.50249268  0.83363535  0.24892634  1
  In  In88  1  0.33455203  0.33096613  -0.00131212  1
  In  In89  1  0.33223993  0.00117046  0.75332026  1
  In  In90  1  -0.00241109  0.66758895  -0.00377030  1
  In  In91  1  0.50103381  0.83432870  0.49978589  1
  In  In92  1  -0.00087424  -0.00223093  0.74851838  1
  In  In93  1  -0.00529939  -0.00117555  0.24756690  1
  In  In94  1  0.16533731  0.50092637  0.50052001  1
  In  In95  1  0.16572910  0.16847567  0.25139590  1
  In  In96  1  0.83701826  0.16675918  0.24792928  1
  In  In97  1  -0.00444283  0.66773123  0.24838900  1
  In  In98  1  -0.00017039  0.33305126  -0.00020178  1
  In  In99  1  0.50170998  0.16672554  0.75257649  1
  In  In100  1  0.67021245  0.00134413  0.49923492  1
  In  In101  1  0.16588531  0.50144109  0.75316042  1
  In  In102  1  0.83503410  0.49628847  -0.00317040  1
  In  In103  1  -0.00162283  0.33137714  0.50204829  1
  In  In104  1  0.66698148  0.66460172  0.49748697  1
  In  In105  1  0.16692527  0.16712047  0.50320277  1
  In  In106  1  0.83277825  0.49854272  0.24940619  1
  In  In107  1  -0.00364556  0.66566022  0.50135100  1
  Ir  Ir108  1  0.00096617  0.33063275  0.75118414  1
  Ir  Ir109  1  -0.00307695  0.33348429  0.24476128  1
  Ir  Ir110  1  0.15978590  0.83285333  -0.00010822  1
  Ir  Ir111  1  0.16559744  0.17212011  0.75384972  1
  Ir  Ir112  1  0.50610320  0.16532127  -0.00144517  1
  Ir  Ir113  1  0.32717726  0.66782379  0.24783188  1
  Ir  Ir114  1  0.83425741  0.83315457  -0.00527058  1
  Ir  Ir115  1  0.83631257  0.83149337  0.24747066  1
  Ir  Ir116  1  0.66720054  0.66397112  0.75126805  1
  Ir  Ir117  1  0.82850712  0.50140217  0.50191955  1
  Ir  Ir118  1  0.16430277  0.50321221  -0.00343759  1
  Ir  Ir119  1  -0.00493605  -0.00252385  0.50192251  1
  Ir  Ir120  1  0.50156027  0.50228860  0.74899141  1
  Ir  Ir121  1  0.83478484  0.16810209  0.75196771  1
  Ir  Ir122  1  0.66979897  0.33674062  0.50160785  1
  Ir  Ir123  1  0.16194684  0.82829141  0.75346069  1
  Ir  Ir124  1  0.83942386  0.16369457  -0.00178657  1
  Ir  Ir125  1  0.66916268  0.33756473  0.75030041  1
  Ir  Ir126  1  0.50473158  0.82908609  0.75299018  1
  Ir  Ir127  1  0.67038344  0.00159222  -0.00585709  1
  Ir  Ir128  1  0.33072238  0.66942840  0.50431735  1
  Ir  Ir129  1  0.67232650  0.32869764  -0.00103235  1
  Ir  Ir130  1  0.83205017  0.16703686  0.50299177  1
  Ir  Ir131  1  0.32653718  0.66388130  -0.00274726  1
  Ir  Ir132  1  0.33325661  0.33702486  0.75146768  1
  Ir  Ir133  1  0.82884220  0.82694627  0.75111898  1
  Ir  Ir134  1  0.66720265  -0.00493533  0.75526281  1
  Ir  Ir135  1  -0.00250076  0.66735449  0.75154463  1
  Ir  Ir136  1  0.83347712  0.83075991  0.49783065  1
  Ir  Ir137  1  0.67567108  0.66730181  0.24828964  1
  Ir  Ir138  1  0.33538926  0.66534221  0.75320311  1
  Ir  Ir139  1  0.83304453  0.50132941  0.74604596  1
  Ir  Ir140  1  0.16226932  0.83473558  0.24587035  1
  Ir  Ir141  1  0.67315896  0.66826775  -0.00326095  1
  Ir  Ir142  1  -0.00603066  -0.00396637  0.00014561  1
  Ir  Ir143  1  0.16215091  0.83443465  0.50041987  1
  O  O144  1  0.29720206  0.32366853  0.12074014  1
  O  O145  1  0.29996715  0.32220735  0.63614883  1
  O  O146  1  0.30569876  0.65318391  0.12212416  1
  O  O147  1  0.31104537  0.65899948  0.62994078  1
  O  O148  1  0.30301640  0.99699006  0.11995019  1
  O  O149  1  0.31785516  0.99527596  0.63177416  1
  O  O150  1  0.65372877  0.31419090  0.11785825  1
  O  O151  1  0.63900679  0.33657560  0.62636743  1
  O  O152  1  0.65271376  0.65703339  0.12256542  1
  O  O153  1  0.63733374  0.65332009  0.63338033  1
  O  O154  1  0.65397605  1.00539423  0.11222292  1
  O  O155  1  0.65309579  0.99898291  0.63601981  1
  O  O156  1  0.96317732  0.32363572  0.12600889  1
  O  O157  1  0.97789603  0.31890991  0.63429166  1
  O  O158  1  0.97432339  0.65332392  0.12121590  1
  O  O159  1  0.96502965  0.66515171  0.63193135  1
  O  O160  1  0.96262419  0.98425369  0.11772144  1
  O  O161  1  0.97745594  0.99671474  0.62212879  1
  O  O162  1  0.17683019  0.15127973  0.12022998  1
  O  O163  1  0.19889058  0.17006098  0.63876482  1
  O  O164  1  0.19431452  0.49416210  0.11547083  1
  O  O165  1  0.19585310  0.49258395  0.63073457  1
  O  O166  1  0.18603044  0.83885162  0.12356125  1
  O  O167  1  0.18360800  0.83326635  0.62582057  1
  O  O168  1  0.53671809  0.16171752  0.11740156  1
  O  O169  1  0.52447646  0.16081994  0.63041672  1
  O  O170  1  0.53484147  0.50368792  0.12379801  1
  O  O171  1  0.53433752  0.49692222  0.63184910  1
  O  O172  1  0.51757309  0.82394098  0.12328315  1
  O  O173  1  0.51826630  0.82203461  0.63407475  1
  O  O174  1  0.87260875  0.15323315  0.11599260  1
  O  O175  1  0.86402530  0.16657109  0.62904301  1
  O  O176  1  0.86950091  0.48975184  0.12205351  1
  O  O177  1  0.85353112  0.50205173  0.62443319  1
  O  O178  1  0.86714190  0.82990760  0.12159681  1
  O  O179  1  0.85351261  0.81622020  0.62326516  1
  O  O180  1  0.14090958  0.17145859  0.37668695  1
  O  O181  1  0.12469012  0.17477023  0.86949632  1
  O  O182  1  0.12912024  0.50056765  0.37466804  1
  O  O183  1  0.12920569  0.51081255  0.87772506  1
  O  O184  1  0.13299170  0.83389389  0.37198413  1
  O  O185  1  0.13084537  0.82250526  0.87627132  1
  O  O186  1  0.46936619  0.18666211  0.38122009  1
  O  O187  1  0.47520897  0.16911774  0.87933546  1
  O  O188  1  0.48823810  0.50773499  0.37665896  1
  O  O189  1  0.47228104  0.50261621  0.86964606  1
  O  O190  1  0.48884462  0.82344060  0.37383431  1
  O  O191  1  0.48940299  0.83325211  0.87192166  1
  O  O192  1  0.80583679  0.16849097  0.38151334  1
  O  O193  1  0.81484376  0.17765163  0.87534075  1
  O  O194  1  0.79569528  0.50694381  0.38313477  1
  O  O195  1  0.81538807  0.50946902  0.86550330  1
  O  O196  1  0.81329720  0.84570798  0.37087185  1
  O  O197  1  0.79962697  0.83222672  0.87319517  1
  O  O198  1  0.00971231  -0.00795246  0.38079466  1
  O  O199  1  0.01354352  0.00657513  0.87855619  1
  O  O200  1  0.01834892  0.34456640  0.36756061  1
  O  O201  1  0.01913935  0.34545162  0.87006196  1
  O  O202  1  0.01299508  0.68534657  0.37406544  1
  O  O203  1  0.02932211  0.67843037  0.87042831  1
  O  O204  1  0.34332925  0.01899655  0.37655797  1
  O  O205  1  0.36743709  0.01012827  0.87338780  1
  O  O206  1  0.37096013  0.34958200  0.37757097  1
  O  O207  1  0.35844009  0.35346000  0.86947297  1
  O  O208  1  0.34809723  0.67118015  0.37873437  1
  O  O209  1  0.35427379  0.66535462  0.87556358  1
  O  O210  1  0.70919618  0.01329021  0.37376957  1
  O  O211  1  0.68932641  -0.00571970  0.87484963  1
  O  O212  1  0.69470192  0.35354243  0.38383386  1
  O  O213  1  0.70171826  0.33700241  0.87554347  1
  O  O214  1  0.70092263  0.66874488  0.36902047  1
  O  O215  1  0.70156028  0.67611761  0.87399506  1
  O  O216  1  0.05702738  0.09226144  0.01739294  1
  O  O217  1  0.05772766  0.09351839  0.52623584  1
  O  O218  1  0.07242700  0.43392115  0.02449401  1
  O  O219  1  0.07608021  0.41848984  0.52576624  1
  O  O220  1  0.06380099  0.77009904  0.01920648  1
  O  O221  1  0.07077491  0.76548163  0.50964162  1
  O  O222  1  0.41784713  0.09749441  0.01426860  1
  O  O223  1  0.39767834  0.10861057  0.52186490  1
  O  O224  1  0.40133025  0.43174438  0.01879313  1
  O  O225  1  0.40727512  0.43594421  0.54329573  1
  O  O226  1  0.40199297  0.74845188  0.01218141  1
  O  O227  1  0.40460771  0.75280077  0.52179656  1
  O  O228  1  0.74162361  0.09817754  0.02040402  1
  O  O229  1  0.74425694  0.09969965  0.51946662  1
  O  O230  1  0.73816563  0.42177234  0.02686326  1
  O  O231  1  0.73213413  0.43623367  0.52773830  1
  O  O232  1  0.73968543  0.76693756  0.00976680  1
  O  O233  1  0.74493107  0.75835666  0.51818311  1
  O  O234  1  0.09607963  0.26598887  0.02847596  1
  O  O235  1  0.09355108  0.25798424  0.53485173  1
  O  O236  1  0.09354173  0.59009863  0.01617623  1
  O  O237  1  0.08725761  0.59164384  0.51889902  1
  O  O238  1  0.09058315  0.92998912  0.02704377  1
  O  O239  1  0.09090969  0.92824181  0.51885324  1
  O  O240  1  0.43599424  0.25418665  0.01608937  1
  O  O241  1  0.44076036  0.27663021  0.53408067  1
  O  O242  1  0.41207119  0.58852298  0.01622833  1
  O  O243  1  0.42365363  0.60096684  0.52852874  1
  O  O244  1  0.43091547  0.92606881  0.00322815  1
  O  O245  1  0.42298698  0.92414857  0.51231440  1
  O  O246  1  0.77360587  0.26253050  0.01899003  1
  O  O247  1  0.76559512  0.26396207  0.52002717  1
  O  O248  1  0.75762970  0.59026792  0.01293053  1
  O  O249  1  0.76662837  0.59564046  0.52697811  1
  O  O250  1  0.76842500  0.93323281  0.01876262  1
  O  O251  1  0.77018276  0.92442164  0.51017036  1
  O  O252  1  0.22570543  0.06307263  0.25125952  1
  O  O253  1  0.23416055  0.08515842  0.78156847  1
  O  O254  1  0.23049520  0.40289498  0.25409960  1
  O  O255  1  0.24972159  0.41285292  0.77472662  1
  O  O256  1  0.23166257  0.74030906  0.26368934  1
  O  O257  1  0.23491068  0.73213320  0.77466058  1
  O  O258  1  0.58521095  0.08241563  0.27708824  1
  O  O259  1  0.57246866  0.06014789  0.77604376  1
  O  O260  1  0.57362748  0.40395664  0.27719477  1
  O  O261  1  0.57145015  0.40642425  0.76511294  1
  O  O262  1  0.58517287  0.73185880  0.25962594  1
  O  O263  1  0.58170600  0.74002366  0.77541837  1
  O  O264  1  0.89298102  0.06001108  0.26931066  1
  O  O265  1  0.90865201  0.08090045  0.76838955  1
  O  O266  1  0.90756526  0.40222906  0.26818091  1
  O  O267  1  0.90539593  0.40511273  0.77628796  1
  O  O268  1  0.89263348  0.73546093  0.27340419  1
  O  O269  1  0.89956668  0.73322652  0.77610501  1
  O  O270  1  0.26939532  0.23179784  0.27805569  1
  O  O271  1  0.26827848  0.23986371  0.77782698  1
  O  O272  1  0.25649845  0.57960684  0.26061583  1
  O  O273  1  0.26468232  0.57586293  0.77808076  1
  O  O274  1  0.25020458  0.90026729  0.26487573  1
  O  O275  1  0.25030850  0.90048967  0.76904539  1
  O  O276  1  0.60515908  0.23780704  0.27944221  1
  O  O277  1  0.59823846  0.24883971  0.76727780  1
  O  O278  1  0.61265862  0.56990386  0.26286239  1
  O  O279  1  0.59593282  0.57196943  0.77286084  1
  O  O280  1  0.59748037  0.91166115  0.25996083  1
  O  O281  1  0.59779288  0.90131521  0.78047884  1
  O  O282  1  0.93843288  0.23704599  0.26166400  1
  O  O283  1  0.93080592  0.23722783  0.77845477  1
  O  O284  1  0.92484696  0.56909895  0.28618414  1
  O  O285  1  0.92897321  0.57165904  0.77545748  1
  O  O286  1  0.93466560  0.88951229  0.26471965  1
  O  O287  1  0.92270628  0.89546510  0.77069882  1
  O  O288  1  0.27389903  0.23316311  0.48657363  1
  O  O289  1  0.26507685  0.23754405  0.96577614  1
  O  O290  1  0.26403170  0.57784874  0.49276744  1
  O  O291  1  0.25424651  0.57359825  0.96552273  1
  O  O292  1  0.24964639  0.90281305  0.48759032  1
  O  O293  1  0.25087086  0.89858405  0.98101078  1
  O  O294  1  0.60704545  0.24568473  0.47223818  1
  O  O295  1  0.60323771  0.23403596  0.98267016  1
  O  O296  1  0.60867163  0.55878402  0.48850937  1
  O  O297  1  0.59911311  0.57905073  0.98637976  1
  O  O298  1  0.59637275  0.90898581  0.49055900  1
  O  O299  1  0.60092258  0.90996690  0.97375034  1
  O  O300  1  0.92508810  0.23417198  0.49052381  1
  O  O301  1  0.93319204  0.22913573  0.97444917  1
  O  O302  1  0.91941871  0.56900702  0.47016245  1
  O  O303  1  0.93039218  0.56875225  0.96610730  1
  O  O304  1  0.92880686  0.89825602  0.47557869  1
  O  O305  1  0.93409851  0.89410091  0.97608391  1
  O  O306  1  0.23276653  0.07112235  0.49318049  1
  O  O307  1  0.24571210  0.07800342  0.97153919  1
  O  O308  1  0.23828526  0.40443376  0.49375472  1
  O  O309  1  0.23690152  0.41818829  0.97711685  1
  O  O310  1  0.23505592  0.74150888  0.48547644  1
  O  O311  1  0.22717401  0.73441438  0.97633463  1
  O  O312  1  0.58271548  0.08350034  0.47411436  1
  O  O313  1  0.57324843  0.06683355  0.97245547  1
  O  O314  1  0.57504132  0.39830854  0.48251127  1
  O  O315  1  0.58335261  0.40180282  0.98478292  1
  O  O316  1  0.56852165  0.73056840  0.50101712  1
  O  O317  1  0.58792353  0.74363085  0.97752966  1
  O  O318  1  0.89743275  0.06559551  0.48123071  1
  O  O319  1  0.90109434  0.06605857  0.97795652  1
  O  O320  1  0.90490407  0.41582493  0.48200514  1
  O  O321  1  0.90066421  0.39742897  0.97013538  1
  O  O322  1  0.89545597  0.73548571  0.47990985  1
  O  O323  1  0.89860227  0.73938894  0.96414335  1
  O  O324  1  0.09238956  0.27029840  0.21740255  1
  O  O325  1  0.09510843  0.26409906  0.72263884  1
  O  O326  1  0.08249240  0.58613273  0.22274906  1
  O  O327  1  0.08878100  0.59854220  0.73715975  1
  O  O328  1  0.09406315  0.92702954  0.22147429  1
  O  O329  1  0.09033132  0.91805870  0.74185886  1
  O  O330  1  0.43983378  0.27133335  0.23954621  1
  O  O331  1  0.42508619  0.27150703  0.72702651  1
  O  O332  1  0.41468536  0.59416798  0.23229538  1
  O  O333  1  0.42936760  0.59406906  0.72218162  1
  O  O334  1  0.41999823  0.92131330  0.23672042  1
  O  O335  1  0.43600275  0.91988697  0.74457457  1
  O  O336  1  0.77263496  0.26702585  0.22386013  1
  O  O337  1  0.76640647  0.26876369  0.74190198  1
  O  O338  1  0.76541818  0.59965666  0.23163456  1
  O  O339  1  0.76328463  0.59626643  0.72331907  1
  O  O340  1  0.77845805  0.92956931  0.22630871  1
  O  O341  1  0.76033456  0.91992673  0.73208294  1
  O  O342  1  0.06062850  0.09658793  0.22324064  1
  O  O343  1  0.07160611  0.10458891  0.73150434  1
  O  O344  1  0.05941523  0.42689639  0.21874353  1
  O  O345  1  0.07388342  0.41876017  0.73158452  1
  O  O346  1  0.06545195  0.77124956  0.22698545  1
  O  O347  1  0.06449060  0.76111365  0.73564354  1
  O  O348  1  0.40911678  0.09508316  0.23734863  1
  O  O349  1  0.39433113  0.10938952  0.73790315  1
  O  O350  1  0.39948092  0.43701899  0.21680656  1
  O  O351  1  0.40332561  0.43477137  0.72414361  1
  O  O352  1  0.40246105  0.74948703  0.23737037  1
  O  O353  1  0.41582026  0.75254270  0.72837019  1
  O  O354  1  0.74223631  0.09891428  0.21146546  1
  O  O355  1  0.74198243  0.09365626  0.73575446  1
  O  O356  1  0.73643350  0.43212412  0.21566598  1
  O  O357  1  0.73580602  0.43502485  0.72727786  1
  O  O358  1  0.73985115  0.76650675  0.23111336  1
  O  O359  1  0.74197710  0.75025934  0.72469369  1
