# generated using pymatgen
data_BaLaInIrO6
_symmetry_space_group_name_H-M   'P 1'
_cell_length_a   17.50917780
_cell_length_b   17.53645095
_cell_length_c   16.47392239
_cell_angle_alpha   90.02603135
_cell_angle_beta   89.99500828
_cell_angle_gamma   90.04087375
_symmetry_Int_Tables_number   1
_chemical_formula_structural   BaLaInIrO6
_chemical_formula_sum   'Ba36 La36 In36 Ir36 O216'
_cell_volume   5058.29689101
_cell_formula_units_Z   36
loop_
 _symmetry_equiv_pos_site_id
 _symmetry_equiv_pos_as_xyz
  1  'x, y, z'
loop_
 _atom_site_type_symbol
 _atom_site_label
 _atom_site_symmetry_multiplicity
 _atom_site_fract_x
 _atom_site_fract_y
 _atom_site_fract_z
 _atom_site_occupancy
  Ba  Ba0  1  0.83520941  0.32596942  0.87245804  1
  Ba  Ba1  1  0.16535043  0.34114489  0.62632955  1
  Ba  Ba2  1  0.83074278  0.34182548  0.12685208  1
  Ba  Ba3  1  0.16639369  0.33747421  0.12536045  1
  Ba  Ba4  1  0.83205288  0.34447356  0.62522505  1
  Ba  Ba5  1  0.16658046  0.01019726  0.12661467  1
  Ba  Ba6  1  0.82984398  0.67406004  0.62152335  1
  Ba  Ba7  1  0.49865483  0.66088234  0.87206144  1
  Ba  Ba8  1  0.67211116  0.17686748  0.12930119  1
  Ba  Ba9  1  0.50131916  0.99175707  0.36809203  1
  Ba  Ba10  1  -0.00051407  0.15740110  0.37497011  1
  Ba  Ba11  1  0.16580562  0.67676087  0.12418479  1
  Ba  Ba12  1  0.16816554  0.99340557  0.37057576  1
  Ba  Ba13  1  0.33484013  0.16179490  0.88079573  1
  Ba  Ba14  1  0.83103815  0.99410201  0.87469063  1
  Ba  Ba15  1  0.00161037  0.82592181  0.37556487  1
  Ba  Ba16  1  0.83410031  0.00872484  0.12566327  1
  Ba  Ba17  1  0.66387368  0.82084021  0.37101122  1
  Ba  Ba18  1  -0.00237461  0.82976016  0.87366722  1
  Ba  Ba19  1  0.32870955  0.82620437  0.87211891  1
  Ba  Ba20  1  0.33419060  0.17509252  0.12878878  1
  Ba  Ba21  1  -0.00175487  0.48858184  0.87550772  1
  Ba  Ba22  1  0.33703211  0.49332367  0.87252655  1
  Ba  Ba23  1  0.50265298  0.31955715  0.37619847  1
  Ba  Ba24  1  0.33196197  0.15514593  0.37124158  1
  Ba  Ba25  1  0.66389345  0.48869258  0.37788635  1
  Ba  Ba26  1  -0.00297828  0.49508922  0.37562843  1
  Ba  Ba27  1  0.66769979  0.82414494  0.88052030  1
  Ba  Ba28  1  0.99620195  0.50877387  0.63044832  1
  Ba  Ba29  1  0.66611108  0.15825303  0.87610938  1
  Ba  Ba30  1  0.50262234  0.65744849  0.37570642  1
  Ba  Ba31  1  0.16886001  0.65775499  0.37362501  1
  Ba  Ba32  1  0.16971395  0.00579046  0.62540033  1
  Ba  Ba33  1  0.49929107  0.34031301  0.12791248  1
  Ba  Ba34  1  0.16428327  0.32567664  0.87281850  1
  Ba  Ba35  1  0.50097849  0.67867522  0.62332732  1
  La  La36  1  0.33400909  0.84885728  0.62332952  1
  La  La37  1  1.00399795  0.85480155  0.12791220  1
  La  La38  1  0.83695842  0.65116635  0.37528683  1
  La  La39  1  0.83517958  0.31824467  0.37289915  1
  La  La40  1  0.49987995  0.01636771  0.12535295  1
  La  La41  1  0.33824405  0.17722736  0.62285397  1
  La  La42  1  0.83911513  0.64914890  0.87488651  1
  La  La43  1  0.49429483  0.34743988  0.62659752  1
  La  La44  1  0.67070065  0.51325132  0.13060132  1
  La  La45  1  0.66218613  0.48886412  0.87348675  1
  La  La46  1  0.17089094  0.31615567  0.37602391  1
  La  La47  1  0.17374444  0.64715740  0.87223863  1
  La  La48  1  0.49189140  0.00829495  0.62411458  1
  La  La49  1  1.00262091  0.18468427  0.62551300  1
  La  La50  1  0.66966679  0.84571810  0.12896703  1
  La  La51  1  0.33734030  0.85520464  0.12779670  1
  La  La52  1  0.50704827  0.32021706  0.88083917  1
  La  La53  1  0.16418708  0.99827793  0.88705731  1
  La  La54  1  1.00526121  0.17639203  0.12491720  1
  La  La55  1  0.66734423  0.84538328  0.62290249  1
  La  La56  1  0.66633014  0.18059784  0.62333914  1
  La  La57  1  0.82629376  0.01042907  0.62451726  1
  La  La58  1  0.99983631  0.84808904  0.62368905  1
  La  La59  1  1.00533935  0.51423707  0.12298912  1
  La  La60  1  0.83507996  0.67919712  0.12910223  1
  La  La61  1  -0.00732464  0.16162954  0.87127516  1
  La  La62  1  0.32611474  0.48639393  0.37794229  1
  La  La63  1  0.49852534  0.67969128  0.12652553  1
  La  La64  1  0.32557590  0.82315137  0.37459426  1
  La  La65  1  0.33635220  0.50776484  0.12313521  1
  La  La66  1  0.66502166  0.15567916  0.37261055  1
  La  La67  1  0.84129221  0.98452998  0.37126415  1
  La  La68  1  0.33421536  0.51495630  0.62511710  1
  La  La69  1  0.15848841  0.68050151  0.62743341  1
  La  La70  1  0.50991262  0.98220795  0.87531831  1
  La  La71  1  0.67350384  0.51750518  0.62429066  1
  In  In72  1  -0.00109258  0.66710175  0.50220684  1
  In  In73  1  0.66894625  0.33512822  0.00357479  1
  In  In74  1  -0.00258480  0.33552042  0.25156199  1
  In  In75  1  0.83231857  0.83328834  0.74734313  1
  In  In76  1  0.33195790  0.66884919  0.50176210  1
  In  In77  1  0.50122757  0.50024719  0.74752024  1
  In  In78  1  0.50012746  0.83575569  0.49549081  1
  In  In79  1  0.83222066  0.16591377  0.74644948  1
  In  In80  1  0.33159217  0.66979358  0.00139541  1
  In  In81  1  0.50094185  0.50037942  0.50008310  1
  In  In82  1  0.33375737  0.33140429  0.50073028  1
  In  In83  1  0.50185219  0.16354079  0.74767132  1
  In  In84  1  0.16624966  0.16123705  0.50079526  1
  In  In85  1  0.66624300  0.00099102  0.00044469  1
  In  In86  1  0.33630062  0.66492131  0.24965715  1
  In  In87  1  0.16536467  0.83571926  0.49964900  1
  In  In88  1  0.16607228  0.83573244  0.74961731  1
  In  In89  1  -0.00300366  0.33507112  0.00115820  1
  In  In90  1  0.66946344  -0.00191705  0.25399894  1
  In  In91  1  0.33384903  0.33624920  -0.00017489  1
  In  In92  1  0.83077290  0.49521998  0.49825710  1
  In  In93  1  0.33458058  0.00188835  0.75606309  1
  In  In94  1  0.83298479  0.16502443  0.49915969  1
  In  In95  1  0.83282605  0.83067392  0.00154520  1
  In  In96  1  0.16738604  0.16319238  0.75253966  1
  In  In97  1  -0.00041891  0.00320300  -0.00152422  1
  In  In98  1  0.66505924  0.33327630  0.74730225  1
  In  In99  1  0.33398535  0.33439442  0.25126276  1
  In  In100  1  0.33479330  0.33326251  0.75000844  1
  In  In101  1  0.50336618  0.50342251  0.00266635  1
  In  In102  1  0.16584041  0.49761662  0.25001802  1
  In  In103  1  0.49967471  0.83114485  0.00089334  1
  In  In104  1  0.66856535  0.67018950  0.75393652  1
  In  In105  1  -0.00054521  0.67039936  -0.00170362  1
  In  In106  1  0.16596188  0.83450856  0.00004874  1
  In  In107  1  0.00057498  0.67007694  0.24924155  1
  Ir  Ir108  1  0.83219843  0.50332806  0.75317932  1
  Ir  Ir109  1  0.66928111  0.66926246  0.49636430  1
  Ir  Ir110  1  0.66800623  0.33516752  0.25478159  1
  Ir  Ir111  1  0.67072337  0.66327047  0.00706995  1
  Ir  Ir112  1  0.00075029  0.66784009  0.75143020  1
  Ir  Ir113  1  0.83021106  0.83521330  0.49854031  1
  Ir  Ir114  1  0.50483114  0.50159599  0.24932465  1
  Ir  Ir115  1  -0.00807081  -0.00154986  0.50128863  1
  Ir  Ir116  1  0.00185748  0.33493773  0.49893007  1
  Ir  Ir117  1  0.33816541  0.00009645  0.49634379  1
  Ir  Ir118  1  0.16465660  0.16316451  0.24809649  1
  Ir  Ir119  1  0.16934715  0.83758186  0.24746199  1
  Ir  Ir120  1  0.33984690  0.00425781  0.00355981  1
  Ir  Ir121  1  0.00040699  0.33501640  0.74751440  1
  Ir  Ir122  1  0.16360488  0.16646843  0.00239644  1
  Ir  Ir123  1  0.16570107  0.49732780  0.50247336  1
  Ir  Ir124  1  0.16699254  0.49990944  -0.00163985  1
  Ir  Ir125  1  0.49995326  0.16566250  0.00191329  1
  Ir  Ir126  1  0.33807678  -0.00065248  0.24881491  1
  Ir  Ir127  1  -0.00295586  0.00325599  0.74271709  1
  Ir  Ir128  1  0.65936540  -0.00327562  0.74267992  1
  Ir  Ir129  1  0.66745804  0.00064878  0.50238754  1
  Ir  Ir130  1  0.32687943  0.66741603  0.74681891  1
  Ir  Ir131  1  0.50067681  0.83125961  0.24551982  1
  Ir  Ir132  1  0.50417302  0.16559274  0.25277633  1
  Ir  Ir133  1  0.83258068  0.82978905  0.25282971  1
  Ir  Ir134  1  0.83626708  0.16660944  0.00034685  1
  Ir  Ir135  1  0.50008922  0.83442619  0.74626654  1
  Ir  Ir136  1  0.66730359  0.66617261  0.24701936  1
  Ir  Ir137  1  0.82998116  0.50055495  0.24774394  1
  Ir  Ir138  1  0.50713664  0.16050069  0.49782733  1
  Ir  Ir139  1  0.83115406  0.50349371  0.00454653  1
  Ir  Ir140  1  0.16678852  0.50175307  0.74795066  1
  Ir  Ir141  1  -0.00274829  0.00081966  0.25462027  1
  Ir  Ir142  1  0.83304434  0.16753345  0.25154767  1
  Ir  Ir143  1  0.66417980  0.32949380  0.49939109  1
  O  O144  1  0.31799358  0.33824795  0.12677178  1
  O  O145  1  0.31234336  0.31135229  0.62326340  1
  O  O146  1  0.31219149  0.64573254  0.12668752  1
  O  O147  1  0.29517301  0.65847931  0.62932251  1
  O  O148  1  0.31541049  0.99628179  0.12730610  1
  O  O149  1  0.32354589  0.99353543  0.61644704  1
  O  O150  1  0.65019442  0.33424125  0.13384479  1
  O  O151  1  0.63224191  0.31983447  0.61708343  1
  O  O152  1  0.63454433  0.65290335  0.12674007  1
  O  O153  1  0.65424387  0.65753618  0.61818183  1
  O  O154  1  0.63756777  0.99237668  0.12844598  1
  O  O155  1  0.62901814  0.98773726  0.62127364  1
  O  O156  1  0.97970134  0.31311824  0.12635996  1
  O  O157  1  0.97928415  0.32582730  0.62253380  1
  O  O158  1  0.97092014  0.65313351  0.12471245  1
  O  O159  1  0.97896874  0.66461032  0.63334281  1
  O  O160  1  0.98296095  0.99661552  0.13352034  1
  O  O161  1  0.96148423  0.98928079  0.62176905  1
  O  O162  1  0.18502383  0.16922427  0.12584958  1
  O  O163  1  0.19993838  0.15962638  0.62527319  1
  O  O164  1  0.19773789  0.49555331  0.11784834  1
  O  O165  1  0.19737651  0.49588100  0.62520218  1
  O  O166  1  0.19872782  0.83819853  0.12870738  1
  O  O167  1  0.19692397  0.82355040  0.62468052  1
  O  O168  1  0.52467131  0.15424871  0.12686210  1
  O  O169  1  0.53438660  0.14371667  0.61551350  1
  O  O170  1  0.53676675  0.49785197  0.13161042  1
  O  O171  1  0.54079529  0.49003258  0.62397850  1
  O  O172  1  0.53487837  0.82342956  0.12774905  1
  O  O173  1  0.52850231  0.83860400  0.62644182  1
  O  O174  1  0.86623925  0.16522882  0.12667289  1
  O  O175  1  0.86737280  0.15242196  0.62172632  1
  O  O176  1  0.86456267  0.49874181  0.12551018  1
  O  O177  1  0.84269408  0.50434134  0.63041491  1
  O  O178  1  0.86719020  0.81874796  0.13498536  1
  O  O179  1  0.86268919  0.83019394  0.61761000  1
  O  O180  1  0.14830888  0.16319977  0.36907645  1
  O  O181  1  0.13172038  0.16012258  0.88298425  1
  O  O182  1  0.14498973  0.50354103  0.38464389  1
  O  O183  1  0.14326876  0.51210052  0.87280531  1
  O  O184  1  0.15292598  0.83823081  0.36853513  1
  O  O185  1  0.15126390  0.86062059  0.87245964  1
  O  O186  1  0.48162008  0.16581740  0.37611828  1
  O  O187  1  0.48631134  0.17827481  0.87972069  1
  O  O188  1  0.47033472  0.50310805  0.36955104  1
  O  O189  1  0.49059848  0.50731352  0.87394906  1
  O  O190  1  0.46581469  0.83416587  0.36538502  1
  O  O191  1  0.47949939  0.83863466  0.86895677  1
  O  O192  1  0.80303564  0.17450454  0.37287893  1
  O  O193  1  0.81850573  0.16619097  0.87818968  1
  O  O194  1  0.81028368  0.51084437  0.36774915  1
  O  O195  1  0.79931936  0.50950295  0.88195625  1
  O  O196  1  0.80739700  0.84865816  0.37629890  1
  O  O197  1  0.81687228  0.83994670  0.87343850  1
  O  O198  1  0.01690940  0.00020246  0.37898330  1
  O  O199  1  0.02730155  0.01561651  0.86404079  1
  O  O200  1  0.03220573  0.33672556  0.37949063  1
  O  O201  1  0.01253711  0.32954599  0.86978705  1
  O  O202  1  0.01690862  0.66806752  0.37518135  1
  O  O203  1  0.03357645  0.67286559  0.86990707  1
  O  O204  1  0.35474516  -0.00377177  0.37213824  1
  O  O205  1  0.37273857  0.00312980  0.88410959  1
  O  O206  1  0.35614525  0.35016550  0.37611497  1
  O  O207  1  0.37135860  0.33713430  0.87556105  1
  O  O208  1  0.35378612  0.68554665  0.37354341  1
  O  O209  1  0.34879142  0.66876482  0.86714832  1
  O  O210  1  0.70323859  0.01123373  0.38265138  1
  O  O211  1  0.67934975  0.00076664  0.86461211  1
  O  O212  1  0.69826201  0.33323615  0.37803920  1
  O  O213  1  0.68477845  0.34750968  0.87525493  1
  O  O214  1  0.70043244  0.67159600  0.37043454  1
  O  O215  1  0.70181057  0.67098036  0.88721909  1
  O  O216  1  0.07134222  0.10041938  0.02322304  1
  O  O217  1  0.05914535  0.09220831  0.52501732  1
  O  O218  1  0.07224863  0.43184360  0.02268799  1
  O  O219  1  0.07030057  0.42884358  0.52110968  1
  O  O220  1  0.06187091  0.77178287  0.02836591  1
  O  O221  1  0.06840793  0.76354252  0.52927325  1
  O  O222  1  0.41022800  0.09284850  0.02473134  1
  O  O223  1  0.40814787  0.09537008  0.52279064  1
  O  O224  1  0.40296546  0.43691783  0.02498339  1
  O  O225  1  0.40550533  0.42661471  0.53116891  1
  O  O226  1  0.39955257  0.76990097  0.02805304  1
  O  O227  1  0.40199442  0.76974019  0.52520624  1
  O  O228  1  0.74719628  0.09298870  0.01574607  1
  O  O229  1  0.73533608  0.09046035  0.53250915  1
  O  O230  1  0.73669556  0.44002519  0.02457248  1
  O  O231  1  0.72942382  0.42511400  0.52446796  1
  O  O232  1  0.73261200  0.75569704  0.03780297  1
  O  O233  1  0.73479333  0.76921527  0.52122573  1
  O  O234  1  0.09036073  0.25308758  0.01791262  1
  O  O235  1  0.08558403  0.25714915  0.51785524  1
  O  O236  1  0.09280369  0.58689849  0.01679044  1
  O  O237  1  0.10248912  0.59388469  0.52674567  1
  O  O238  1  0.09681901  0.93409775  0.01149775  1
  O  O239  1  0.08192816  0.92667907  0.52218496  1
  O  O240  1  0.43022443  0.25492454  0.01540617  1
  O  O241  1  0.43719901  0.25077757  0.52689315  1
  O  O242  1  0.43507695  0.60312739  0.02420059  1
  O  O243  1  0.41964512  0.58887724  0.52468916  1
  O  O244  1  0.43018210  0.93559067  0.02942414  1
  O  O245  1  0.43150667  0.93540301  0.51775885  1
  O  O246  1  0.76362916  0.25488475  0.01417368  1
  O  O247  1  0.75342839  0.25897878  0.51855929  1
  O  O248  1  0.76683805  0.59958818  0.03250301  1
  O  O249  1  0.75351304  0.59384971  0.50829317  1
  O  O250  1  0.74974091  0.91575052  0.02778972  1
  O  O251  1  0.75959917  0.92922630  0.53138454  1
  O  O252  1  0.24395827  0.07268844  0.26464989  1
  O  O253  1  0.23096587  0.06178427  0.78036683  1
  O  O254  1  0.23306539  0.40148138  0.28237793  1
  O  O255  1  0.23732257  0.41363622  0.76555543  1
  O  O256  1  0.24295326  0.75111870  0.26530990  1
  O  O257  1  0.22902858  0.72805091  0.76855812  1
  O  O258  1  0.58154114  0.08178634  0.26934422  1
  O  O259  1  0.56088110  0.05495904  0.76456474  1
  O  O260  1  0.57324173  0.40564574  0.27110822  1
  O  O261  1  0.55839462  0.38979905  0.76683209  1
  O  O262  1  0.56952546  0.73500451  0.26316096  1
  O  O263  1  0.56774923  0.74268267  0.76158773  1
  O  O264  1  0.90070290  0.07036400  0.27544536  1
  O  O265  1  0.91044894  0.07426615  0.76774516  1
  O  O266  1  0.89262015  0.40541300  0.27536436  1
  O  O267  1  0.90459122  0.41030847  0.76211430  1
  O  O268  1  0.89369007  0.73387099  0.27299650  1
  O  O269  1  0.90649035  0.73207301  0.77383734  1
  O  O270  1  0.24916825  0.24008693  0.26877506  1
  O  O271  1  0.25919301  0.23901407  0.77058102  1
  O  O272  1  0.26956949  0.56327898  0.27500282  1
  O  O273  1  0.25994057  0.57270334  0.76749352  1
  O  O274  1  0.27073463  0.90197649  0.26802476  1
  O  O275  1  0.26985845  0.90201856  0.74927231  1
  O  O276  1  0.60111691  0.23661674  0.27648985  1
  O  O277  1  0.60227197  0.22724582  0.75480986  1
  O  O278  1  0.60112608  0.57065581  0.26738027  1
  O  O279  1  0.60711294  0.56658089  0.76452950  1
  O  O280  1  0.58996386  0.90224279  0.26422759  1
  O  O281  1  0.59363293  0.90108853  0.76921053  1
  O  O282  1  0.91690387  0.24311775  0.27608505  1
  O  O283  1  0.93350330  0.23945354  0.76093406  1
  O  O284  1  0.91672392  0.57170794  0.26433298  1
  O  O285  1  0.92646882  0.57681971  0.77823643  1
  O  O286  1  0.92323343  0.90652388  0.27465049  1
  O  O287  1  0.92788983  0.91271709  0.75967471  1
  O  O288  1  0.25223612  0.24356742  0.47242825  1
  O  O289  1  0.25146279  0.23911076  0.98636645  1
  O  O290  1  0.26299055  0.55899448  0.48370041  1
  O  O291  1  0.25512523  0.57199756  0.97865242  1
  O  O292  1  0.27322978  0.90327769  0.48352809  1
  O  O293  1  0.26955637  0.91543192  0.98970062  1
  O  O294  1  0.60489909  0.22700597  0.47845848  1
  O  O295  1  0.58775194  0.23902553  0.98728842  1
  O  O296  1  0.59734729  0.57938568  0.48455266  1
  O  O297  1  0.61398848  0.56621108  0.98394563  1
  O  O298  1  0.59852092  0.91151601  0.47967889  1
  O  O299  1  0.58596626  0.91085252  0.97954282  1
  O  O300  1  0.92598230  0.24724143  0.48090883  1
  O  O301  1  0.92864502  0.23343390  0.97897875  1
  O  O302  1  0.91681538  0.57907526  0.48432146  1
  O  O303  1  0.92047053  0.57113201  0.98110485  1
  O  O304  1  0.92223315  0.90544933  0.47817505  1
  O  O305  1  0.92901697  0.90603362  0.99850625  1
  O  O306  1  0.24614977  0.06667461  0.48337532  1
  O  O307  1  0.23878387  0.07195452  0.98076356  1
  O  O308  1  0.23092495  0.40518327  0.47589209  1
  O  O309  1  0.23534176  0.41185958  0.97847066  1
  O  O310  1  0.23816805  0.74142710  0.48163632  1
  O  O311  1  0.23006629  0.73506397  0.97335633  1
  O  O312  1  0.58286933  0.07411141  0.46813219  1
  O  O313  1  0.56393624  0.07085760  0.98189482  1
  O  O314  1  0.57432568  0.39769365  0.48529182  1
  O  O315  1  0.57055795  0.40317960  0.97756730  1
  O  O316  1  0.58000192  0.74101749  0.48555061  1
  O  O317  1  0.57591898  0.72859261  0.99078001  1
  O  O318  1  0.89614201  0.06087942  0.47804463  1
  O  O319  1  0.90991119  0.08160271  0.97889764  1
  O  O320  1  0.90619410  0.40009339  0.47516610  1
  O  O321  1  0.89874368  0.41204047  0.98574766  1
  O  O322  1  0.89352588  0.74194571  0.47341228  1
  O  O323  1  0.89236446  0.72694158  0.98214512  1
  O  O324  1  0.08935250  0.24901849  0.23737562  1
  O  O325  1  0.08486860  0.25807310  0.73118705  1
  O  O326  1  0.08944771  0.58941995  0.22679190  1
  O  O327  1  0.10024657  0.60215396  0.72982759  1
  O  O328  1  0.08874111  0.92587142  0.22848576  1
  O  O329  1  0.08027892  0.92592589  0.72052605  1
  O  O330  1  0.42766856  0.25099284  0.23991449  1
  O  O331  1  0.43373421  0.26020670  0.71970857  1
  O  O332  1  0.44188061  0.59460560  0.22428618  1
  O  O333  1  0.41722409  0.59607840  0.72490474  1
  O  O334  1  0.43205564  0.92684358  0.21838917  1
  O  O335  1  0.43556612  0.92853106  0.72922297  1
  O  O336  1  0.76466449  0.26573648  0.24090131  1
  O  O337  1  0.75752278  0.25640010  0.72499845  1
  O  O338  1  0.76292495  0.59812490  0.22201240  1
  O  O339  1  0.76844788  0.59673420  0.74417687  1
  O  O340  1  0.76059353  0.91826304  0.23111325  1
  O  O341  1  0.75433045  0.93155931  0.71704560  1
  O  O342  1  0.06653654  0.09510955  0.22792500  1
  O  O343  1  0.06166755  0.09754104  0.72152172  1
  O  O344  1  0.06334169  0.43225572  0.22248586  1
  O  O345  1  0.07313766  0.42994439  0.73435890  1
  O  O346  1  0.07323735  0.77202358  0.22496686  1
  O  O347  1  0.06623819  0.76106024  0.72316444  1
  O  O348  1  0.41728874  0.08686873  0.22533798  1
  O  O349  1  0.40165185  0.09719214  0.72123405  1
  O  O350  1  0.40823485  0.44047771  0.22874092  1
  O  O351  1  0.40331962  0.43098028  0.71404455  1
  O  O352  1  0.41022707  0.76435375  0.21572214  1
  O  O353  1  0.39760430  0.76632490  0.72325719  1
  O  O354  1  0.74690336  0.09372007  0.23625289  1
  O  O355  1  0.73046272  0.08815560  0.71787414  1
  O  O356  1  0.73384029  0.43375434  0.23018631  1
  O  O357  1  0.73295096  0.43958501  0.73256365  1
  O  O358  1  0.73808334  0.76054752  0.22124218  1
  O  O359  1  0.73191631  0.76842516  0.72259660  1
