# generated using pymatgen
data_BaLaInIrO6
_symmetry_space_group_name_H-M   'P 1'
_cell_length_a   17.50126547
_cell_length_b   17.52396315
_cell_length_c   16.48243526
_cell_angle_alpha   89.99442572
_cell_angle_beta   90.00211347
_cell_angle_gamma   89.96950505
_symmetry_Int_Tables_number   1
_chemical_formula_structural   BaLaInIrO6
_chemical_formula_sum   'Ba36 La36 In36 Ir36 O216'
_cell_volume   5055.02256283
_cell_formula_units_Z   36
loop_
 _symmetry_equiv_pos_site_id
 _symmetry_equiv_pos_as_xyz
  1  'x, y, z'
loop_
 _atom_site_type_symbol
 _atom_site_label
 _atom_site_symmetry_multiplicity
 _atom_site_fract_x
 _atom_site_fract_y
 _atom_site_fract_z
 _atom_site_occupancy
  Ba  Ba0  1  0.17027679  0.99139308  0.88099148  1
  Ba  Ba1  1  0.83079595  0.67381818  0.62362831  1
  Ba  Ba2  1  0.49979089  0.68337142  0.62982274  1
  Ba  Ba3  1  0.16470442  0.99150333  0.37598375  1
  Ba  Ba4  1  0.83111096  0.65822068  0.87317332  1
  Ba  Ba5  1  0.32639606  0.49137137  0.36822604  1
  Ba  Ba6  1  0.99850915  0.17418307  0.12446118  1
  Ba  Ba7  1  0.50215127  0.65906502  0.37297911  1
  Ba  Ba8  1  0.17001386  0.65923820  0.37220306  1
  Ba  Ba9  1  0.82886907  0.01051155  0.12714466  1
  Ba  Ba10  1  0.49823488  0.32265408  0.87920817  1
  Ba  Ba11  1  0.66621611  0.82772453  0.36976984  1
  Ba  Ba12  1  0.00112741  0.82207569  0.37380748  1
  Ba  Ba13  1  0.99894308  0.50560267  0.62234406  1
  Ba  Ba14  1  0.82805187  0.32852525  0.37709106  1
  Ba  Ba15  1  0.66662720  0.50948378  0.62435805  1
  Ba  Ba16  1  0.32666892  0.82798781  0.37625042  1
  Ba  Ba17  1  0.33501629  0.15842913  0.88008368  1
  Ba  Ba18  1  0.66573718  0.82261945  0.87654638  1
  Ba  Ba19  1  0.66696488  0.83746908  0.62531203  1
  Ba  Ba20  1  0.66473590  0.15520492  0.87721274  1
  Ba  Ba21  1  0.16814200  0.00950353  0.62752210  1
  Ba  Ba22  1  0.83139097  0.34203355  0.62688246  1
  Ba  Ba23  1  1.00410453  0.83898992  0.62769717  1
  Ba  Ba24  1  0.33096137  0.48891038  0.87555875  1
  Ba  Ba25  1  0.83101131  0.33941594  0.12393008  1
  Ba  Ba26  1  0.00173445  0.48915858  0.37196156  1
  Ba  Ba27  1  0.16756156  0.33975344  0.62133866  1
  Ba  Ba28  1  0.66319612  0.17415087  0.62787742  1
  Ba  Ba29  1  0.33508862  0.51369869  0.11578503  1
  Ba  Ba30  1  0.49803465  0.34436951  0.11927519  1
  Ba  Ba31  1  0.50266138  0.01102737  0.12650463  1
  Ba  Ba32  1  0.16799748  0.32381233  0.37270996  1
  Ba  Ba33  1  0.17188870  0.67286751  0.12427823  1
  Ba  Ba34  1  0.33383627  0.82638535  0.87870471  1
  Ba  Ba35  1  0.66573788  0.50629156  0.12110193  1
  La  La36  1  0.66356957  0.48761385  0.37338251  1
  La  La37  1  1.00546795  0.50991908  0.12412960  1
  La  La38  1  0.82926379  0.00719399  0.62625736  1
  La  La39  1  1.00283146  0.17885058  0.62378299  1
  La  La40  1  0.33924529  0.18451659  0.12139843  1
  La  La41  1  0.33169230  0.84837312  0.63071856  1
  La  La42  1  0.50505268  0.32342558  0.37325887  1
  La  La43  1  1.00634077  0.84654764  0.12568266  1
  La  La44  1  0.84259020  0.98543129  0.38063384  1
  La  La45  1  0.33698775  0.17805327  0.62782484  1
  La  La46  1  0.15992412  0.67836719  0.62476807  1
  La  La47  1  0.16280131  0.34701842  0.12175987  1
  La  La48  1  -0.00172407  0.16258266  0.38134442  1
  La  La49  1  0.48681146  0.35229831  0.62534286  1
  La  La50  1  0.17580145  0.31516911  0.87228464  1
  La  La51  1  -0.00397453  0.81555207  0.87613707  1
  La  La52  1  0.83044835  0.32212473  0.87695678  1
  La  La53  1  0.33826458  0.52274585  0.62171293  1
  La  La54  1  0.66121820  0.48888071  0.87157685  1
  La  La55  1  0.33502001  0.84363628  0.12584796  1
  La  La56  1  -0.00374025  0.15611153  0.87177698  1
  La  La57  1  0.83754582  0.65126916  0.37568237  1
  La  La58  1  0.49881203  0.00090612  0.63227375  1
  La  La59  1  0.83903603  0.98348104  0.87775861  1
  La  La60  1  0.00080654  0.48008008  0.87449003  1
  La  La61  1  0.50743617  0.65363880  0.87824096  1
  La  La62  1  0.49150067  0.68280721  0.12209985  1
  La  La63  1  0.65916489  0.15594483  0.36927273  1
  La  La64  1  0.16539907  0.01187843  0.13024824  1
  La  La65  1  0.32785050  0.15615046  0.37409471  1
  La  La66  1  0.50498583  0.98776071  0.87852036  1
  La  La67  1  0.67406257  0.84753446  0.12002272  1
  La  La68  1  0.67199876  0.18180051  0.12148781  1
  La  La69  1  0.83356363  0.67744315  0.12390957  1
  La  La70  1  0.17422609  0.65424384  0.87151876  1
  La  La71  1  0.50379491  0.98646429  0.37540992  1
  In  In72  1  0.83423525  0.83179021  0.75122683  1
  In  In73  1  0.17005546  0.49998679  0.50087397  1
  In  In74  1  0.33431422  0.00433236  0.49938066  1
  In  In75  1  0.66664864  0.00277359  0.24904722  1
  In  In76  1  0.83490011  0.83041322  0.24792182  1
  In  In77  1  0.33424493  0.33369357  0.49605415  1
  In  In78  1  0.33630010  0.66692337  0.25096001  1
  In  In79  1  0.83357526  0.49795990  0.24472362  1
  In  In80  1  0.16974376  0.49671290  0.74909814  1
  In  In81  1  0.33517328  0.00008572  0.00265288  1
  In  In82  1  0.16820148  0.83461415  0.75578455  1
  In  In83  1  0.00097046  0.00018277  0.75149019  1
  In  In84  1  0.83618322  0.50124834  -0.00215267  1
  In  In85  1  0.16641578  0.16693973  0.00311016  1
  In  In86  1  0.66094555  0.33094201  0.50369658  1
  In  In87  1  0.00183505  -0.00042494  0.00138532  1
  In  In88  1  0.00025813  0.32870546  0.24840484  1
  In  In89  1  0.16722074  0.83275668  0.24934095  1
  In  In90  1  0.66594640  0.66610644  0.24456938  1
  In  In91  1  -0.00076841  0.00229097  0.25197459  1
  In  In92  1  0.50055010  0.16501287  0.75207313  1
  In  In93  1  0.66564744  0.66720336  0.00399412  1
  In  In94  1  0.82962508  0.16544699  0.50357175  1
  In  In95  1  0.83162766  0.16349500  0.75077310  1
  In  In96  1  0.49651747  0.50076038  0.75118406  1
  In  In97  1  0.82880339  0.16624747  0.25485250  1
  In  In98  1  0.49659740  0.50239882  0.49615689  1
  In  In99  1  0.49745699  0.16560880  0.49852715  1
  In  In100  1  0.66813638  -0.00005457  0.49934649  1
  In  In101  1  -0.00095078  0.33299513  0.50039165  1
  In  In102  1  0.00020789  0.66579384  0.49872642  1
  In  In103  1  0.00263500  0.66086242  0.75278145  1
  In  In104  1  0.66453425  0.33485270  -0.00142619  1
  In  In105  1  0.83193686  0.49734152  0.75162509  1
  In  In106  1  0.49775778  0.83513341  0.49885193  1
  In  In107  1  0.66713709  0.66752865  0.49508931  1
  Ir  Ir108  1  0.49787972  0.49715386  0.24545233  1
  Ir  Ir109  1  0.83638363  0.83447795  0.49966129  1
  Ir  Ir110  1  0.17433388  0.16740314  0.25121167  1
  Ir  Ir111  1  0.49808800  0.50310860  -0.00097258  1
  Ir  Ir112  1  0.49768320  0.83721281  0.75585912  1
  Ir  Ir113  1  0.82886144  0.50105519  0.49730206  1
  Ir  Ir114  1  0.33445130  0.00346259  0.75261085  1
  Ir  Ir115  1  0.00481975  0.66592902  0.00193179  1
  Ir  Ir116  1  0.33059986  0.67355304  0.50622050  1
  Ir  Ir117  1  0.83210789  0.16668706  -0.00189774  1
  Ir  Ir118  1  0.33478993  0.00410021  0.24749668  1
  Ir  Ir119  1  0.16704723  0.82957113  0.00426576  1
  Ir  Ir120  1  0.66509153  -0.00366707  0.75344989  1
  Ir  Ir121  1  -0.00166820  0.66269621  0.24586564  1
  Ir  Ir122  1  0.16586146  0.16302408  0.50002608  1
  Ir  Ir123  1  0.33563353  0.67141309  -0.00502468  1
  Ir  Ir124  1  0.33472794  0.33400367  0.24401058  1
  Ir  Ir125  1  0.16691793  0.49831614  0.24153616  1
  Ir  Ir126  1  0.50205531  0.16404204  0.00463887  1
  Ir  Ir127  1  0.33488953  0.67162282  0.75277333  1
  Ir  Ir128  1  0.83910471  0.83099381  0.00047474  1
  Ir  Ir129  1  0.00420217  0.32786330  0.75634087  1
  Ir  Ir130  1  0.49429858  0.17023428  0.24816437  1
  Ir  Ir131  1  0.50138365  0.83476000  0.00129505  1
  Ir  Ir132  1  -0.00092505  -0.00146628  0.50207878  1
  Ir  Ir133  1  0.16688695  0.16765380  0.74763107  1
  Ir  Ir134  1  0.33030689  0.32960453  0.75076149  1
  Ir  Ir135  1  0.16942056  0.83332440  0.50394134  1
  Ir  Ir136  1  0.16248724  0.50135005  -0.00179948  1
  Ir  Ir137  1  0.66329328  0.33358684  0.75117369  1
  Ir  Ir138  1  0.00231173  0.33144950  -0.00437107  1
  Ir  Ir139  1  0.66425701  0.66732973  0.75269470  1
  Ir  Ir140  1  0.32950099  0.33581943  -0.00264963  1
  Ir  Ir141  1  0.66892650  -0.00084990  -0.00265192  1
  Ir  Ir142  1  0.65975311  0.33392424  0.25005220  1
  Ir  Ir143  1  0.49803740  0.83791594  0.24397324  1
  O  O144  1  0.30013531  0.32675690  0.12063107  1
  O  O145  1  0.31537180  0.31589425  0.63113681  1
  O  O146  1  0.32259565  0.67394425  0.11546630  1
  O  O147  1  0.30044261  0.66690624  0.63076780  1
  O  O148  1  0.30273068  0.99278630  0.13020761  1
  O  O149  1  0.32356652  0.99350449  0.63123898  1
  O  O150  1  0.64848370  0.32188544  0.12881837  1
  O  O151  1  0.62660070  0.33328065  0.63300722  1
  O  O152  1  0.62389030  0.66062463  0.12393967  1
  O  O153  1  0.65092922  0.66855170  0.63163516  1
  O  O154  1  0.64983468  0.99086752  0.11746790  1
  O  O155  1  0.63377385  0.99273791  0.63397305  1
  O  O156  1  0.98095317  0.33101025  0.11467192  1
  O  O157  1  0.98227086  0.31981683  0.63508429  1
  O  O158  1  0.96974128  0.65361033  0.12256849  1
  O  O159  1  0.98195128  0.66404951  0.62514534  1
  O  O160  1  0.97750901  0.98773137  0.12487919  1
  O  O161  1  0.96848777  0.99619482  0.62150200  1
  O  O162  1  0.20459886  0.15750402  0.13344791  1
  O  O163  1  0.20008087  0.16461967  0.62330219  1
  O  O164  1  0.18703538  0.48560611  0.11837804  1
  O  O165  1  0.20705927  0.49344485  0.62767073  1
  O  O166  1  0.19904426  0.82653764  0.12085275  1
  O  O167  1  0.19637297  0.82194197  0.62517648  1
  O  O168  1  0.53296229  0.16525074  0.12815940  1
  O  O169  1  0.51507278  0.14047164  0.62568852  1
  O  O170  1  0.51674907  0.50127066  0.12285363  1
  O  O171  1  0.51488351  0.49274425  0.62657393  1
  O  O172  1  0.53339846  0.82624310  0.12198161  1
  O  O173  1  0.51245003  0.84542086  0.63508812  1
  O  O174  1  0.84539488  0.16771271  0.11904990  1
  O  O175  1  0.86818464  0.15053494  0.62929763  1
  O  O176  1  0.87090786  0.49310161  0.11994186  1
  O  O177  1  0.84662570  0.49935987  0.62051724  1
  O  O178  1  0.87213940  0.82036960  0.11817978  1
  O  O179  1  0.85365651  0.83484019  0.62045899  1
  O  O180  1  0.13607032  0.16684978  0.37659518  1
  O  O181  1  0.13597668  0.17448949  0.87074373  1
  O  O182  1  0.15344730  0.50397179  0.36217119  1
  O  O183  1  0.13637208  0.51390989  0.87903143  1
  O  O184  1  0.15347900  0.83581035  0.38175155  1
  O  O185  1  0.13561159  0.83462985  0.88707867  1
  O  O186  1  0.46188616  0.18333163  0.36531225  1
  O  O187  1  0.48371817  0.16042912  0.88325609  1
  O  O188  1  0.47699554  0.49421412  0.36356140  1
  O  O189  1  0.47875028  0.51233668  0.87915918  1
  O  O190  1  0.47432506  0.84605053  0.36446818  1
  O  O191  1  0.47935170  0.84817015  0.87917238  1
  O  O192  1  0.79423132  0.16966532  0.37912730  1
  O  O193  1  0.81623919  0.18074098  0.87859289  1
  O  O194  1  0.80306479  0.51001858  0.37495117  1
  O  O195  1  0.79802525  0.49954331  0.87466127  1
  O  O196  1  0.81675845  0.84344456  0.37944983  1
  O  O197  1  0.81377408  0.84154772  0.88270749  1
  O  O198  1  0.01882718  0.01270029  0.38247654  1
  O  O199  1  0.02484677  0.02263687  0.87896043  1
  O  O200  1  0.01901551  0.31913300  0.37463101  1
  O  O201  1  0.03710477  0.33417390  0.87694817  1
  O  O202  1  0.01978257  0.66498749  0.36584931  1
  O  O203  1  0.03841765  0.67760200  0.88522634  1
  O  O204  1  0.36711174  0.01204518  0.36653958  1
  O  O205  1  0.36270294  0.00239551  0.87330774  1
  O  O206  1  0.36721364  0.33416568  0.36377816  1
  O  O207  1  0.35106225  0.33245464  0.87353439  1
  O  O208  1  0.35165030  0.67305420  0.38416526  1
  O  O209  1  0.36922440  0.67253057  0.87312886  1
  O  O210  1  0.70427809  0.01319426  0.37292795  1
  O  O211  1  0.70015765  -0.00027446  0.87523409  1
  O  O212  1  0.67285391  0.34631364  0.36931582  1
  O  O213  1  0.69391706  0.34189953  0.87066699  1
  O  O214  1  0.70009281  0.67201540  0.36828036  1
  O  O215  1  0.67778359  0.66503382  0.87334721  1
  O  O216  1  0.08369456  0.08526706  0.03283269  1
  O  O217  1  0.06590189  0.09563478  0.52451305  1
  O  O218  1  0.06787099  0.43008854  0.02094451  1
  O  O219  1  0.07481260  0.42414515  0.51491984  1
  O  O220  1  0.06796896  0.76514553  0.02731393  1
  O  O221  1  0.08190388  0.76098571  0.51763767  1
  O  O222  1  0.40946468  0.09793101  0.02835801  1
  O  O223  1  0.38887629  0.11183245  0.51148226  1
  O  O224  1  0.40507556  0.42634228  0.01189658  1
  O  O225  1  0.39904751  0.43417661  0.52917483  1
  O  O226  1  0.40681273  0.76559757  0.02598591  1
  O  O227  1  0.39314853  0.77066702  0.52665212  1
  O  O228  1  0.73460465  0.09820551  0.02143218  1
  O  O229  1  0.74648351  0.08255033  0.53871698  1
  O  O230  1  0.74246844  0.42402294  0.01296208  1
  O  O231  1  0.73518637  0.43256116  0.50426440  1
  O  O232  1  0.74350505  0.76480096  0.02603669  1
  O  O233  1  0.74638050  0.76596093  0.51234377  1
  O  O234  1  0.09685927  0.26665779  0.02176117  1
  O  O235  1  0.09277848  0.24670443  0.52208167  1
  O  O236  1  0.09103009  0.59048798  0.02808558  1
  O  O237  1  0.10017393  0.59731084  0.52143357  1
  O  O238  1  0.10104596  0.92094428  0.03357064  1
  O  O239  1  0.09560570  0.92654929  0.52078202  1
  O  O240  1  0.42059953  0.25585773  0.02357004  1
  O  O241  1  0.43435742  0.26963298  0.52526037  1
  O  O242  1  0.43513583  0.60619372  0.01439775  1
  O  O243  1  0.42132489  0.60355787  0.52186192  1
  O  O244  1  0.42838040  0.92236777  0.02242514  1
  O  O245  1  0.43761821  0.94235210  0.51316911  1
  O  O246  1  0.76059395  0.25599482  0.01093055  1
  O  O247  1  0.75566202  0.26070700  0.52348987  1
  O  O248  1  0.76730204  0.60192017  0.02401999  1
  O  O249  1  0.76364001  0.59284189  0.50925043  1
  O  O250  1  0.76250955  0.92280340  0.02259179  1
  O  O251  1  0.77257048  0.92954336  0.51916130  1
  O  O252  1  0.24872036  0.07859557  0.27913706  1
  O  O253  1  0.23785031  0.07216197  0.76844319  1
  O  O254  1  0.23754438  0.40315773  0.25724677  1
  O  O255  1  0.23576158  0.39580333  0.77609485  1
  O  O256  1  0.24672077  0.74504513  0.26229899  1
  O  O257  1  0.24314676  0.73625120  0.77671399  1
  O  O258  1  0.56315179  0.08043735  0.27891238  1
  O  O259  1  0.56951973  0.06143590  0.77406136  1
  O  O260  1  0.56219699  0.39972995  0.26789258  1
  O  O261  1  0.57824863  0.40991070  0.77622247  1
  O  O262  1  0.56977799  0.75041464  0.26352494  1
  O  O263  1  0.56347068  0.73770263  0.77569679  1
  O  O264  1  0.89921288  0.06851495  0.27830397  1
  O  O265  1  0.90016678  0.06736965  0.78204897  1
  O  O266  1  0.90735965  0.40493820  0.26546557  1
  O  O267  1  0.90833829  0.39268448  0.77936078  1
  O  O268  1  0.90285669  0.72623609  0.26630918  1
  O  O269  1  0.91593436  0.74429261  0.77624230  1
  O  O270  1  0.26937600  0.23703310  0.27066290  1
  O  O271  1  0.26088912  0.23618661  0.77210972  1
  O  O272  1  0.25414615  0.57370292  0.25158686  1
  O  O273  1  0.26574348  0.58166494  0.77163665  1
  O  O274  1  0.26271940  0.91657774  0.26356445  1
  O  O275  1  0.26943973  0.90751349  0.76124211  1
  O  O276  1  0.58905486  0.23863984  0.27485079  1
  O  O277  1  0.59350805  0.24490422  0.77041182  1
  O  O278  1  0.59349092  0.56082381  0.27099024  1
  O  O279  1  0.59269201  0.57686819  0.77416133  1
  O  O280  1  0.57882335  0.91760900  0.26702844  1
  O  O281  1  0.58967750  0.90992401  0.78001752  1
  O  O282  1  0.93337326  0.22718594  0.26872347  1
  O  O283  1  0.93825246  0.23393639  0.77168514  1
  O  O284  1  0.92970093  0.57520848  0.26635121  1
  O  O285  1  0.93430241  0.56094266  0.77855795  1
  O  O286  1  0.92564085  0.90610664  0.26826107  1
  O  O287  1  0.92745085  0.90639723  0.78506569  1
  O  O288  1  0.26055513  0.22977894  0.47757978  1
  O  O289  1  0.25658308  0.24872891  0.98197468  1
  O  O290  1  0.26882036  0.57898103  0.49257856  1
  O  O291  1  0.25558264  0.58070158  0.97167817  1
  O  O292  1  0.26189355  0.90428126  0.49902866  1
  O  O293  1  0.25884533  0.89911999  0.99150424  1
  O  O294  1  0.59263749  0.23441975  0.46596286  1
  O  O295  1  0.59126631  0.23634667  0.98944053  1
  O  O296  1  0.59743716  0.56689050  0.47239591  1
  O  O297  1  0.59099697  0.56929971  0.97380778  1
  O  O298  1  0.59101153  0.91133293  0.47564196  1
  O  O299  1  0.59375363  0.90851269  0.97762644  1
  O  O300  1  0.93302283  0.22961199  0.48788427  1
  O  O301  1  0.93166459  0.23649125  0.97091196  1
  O  O302  1  0.91798819  0.57336181  0.47641362  1
  O  O303  1  0.94267041  0.57035364  0.97421455  1
  O  O304  1  0.92934118  0.90694470  0.47768507  1
  O  O305  1  0.93201824  0.89924572  0.97453129  1
  O  O306  1  0.23633843  0.07566568  0.47934903  1
  O  O307  1  0.24449364  0.07646221  0.98870346  1
  O  O308  1  0.24198469  0.40549463  0.47780430  1
  O  O309  1  0.23031557  0.40320380  0.97470148  1
  O  O310  1  0.23429143  0.73783004  0.49028426  1
  O  O311  1  0.23453813  0.73500288  0.97417135  1
  O  O312  1  0.57208376  0.07360987  0.46333341  1
  O  O313  1  0.57123250  0.06714334  0.97836786  1
  O  O314  1  0.55937491  0.39682747  0.48302868  1
  O  O315  1  0.57269116  0.41571428  0.97842266  1
  O  O316  1  0.57175739  0.74188265  0.48761262  1
  O  O317  1  0.56391779  0.73888403  0.97973776  1
  O  O318  1  0.90730817  0.06467422  0.47812268  1
  O  O319  1  0.89961791  0.07434136  0.97700100  1
  O  O320  1  0.90052816  0.41179833  0.48721375  1
  O  O321  1  0.91213424  0.40005610  0.96326376  1
  O  O322  1  0.90092893  0.73902806  0.47417077  1
  O  O323  1  0.91373619  0.73970190  0.97507543  1
  O  O324  1  0.10749790  0.25836722  0.22142451  1
  O  O325  1  0.10041297  0.26277608  0.73390013  1
  O  O326  1  0.08829235  0.58563180  0.21866143  1
  O  O327  1  0.10554389  0.59659641  0.73081280  1
  O  O328  1  0.09565343  0.92688758  0.22497407  1
  O  O329  1  0.09488801  0.92774924  0.73763742  1
  O  O330  1  0.42134332  0.25905598  0.21718858  1
  O  O331  1  0.42557011  0.26245269  0.72705677  1
  O  O332  1  0.43514477  0.59581603  0.22732189  1
  O  O333  1  0.42052817  0.59786615  0.73150930  1
  O  O334  1  0.41702561  0.92257176  0.21723270  1
  O  O335  1  0.43279357  0.93786570  0.73718384  1
  O  O336  1  0.74929082  0.26349656  0.23604597  1
  O  O337  1  0.75533713  0.26115233  0.73824309  1
  O  O338  1  0.76790782  0.59822798  0.22019635  1
  O  O339  1  0.75244728  0.59497017  0.73756938  1
  O  O340  1  0.74975388  0.91692408  0.22737060  1
  O  O341  1  0.76142319  0.93231682  0.73275830  1
  O  O342  1  0.08679685  0.09296488  0.23096693  1
  O  O343  1  0.06925416  0.10636368  0.72677308  1
  O  O344  1  0.07793035  0.42515328  0.22119967  1
  O  O345  1  0.06601227  0.42439865  0.74417048  1
  O  O346  1  0.06443608  0.75782835  0.22414948  1
  O  O347  1  0.08289824  0.75319736  0.73569088  1
  O  O348  1  0.40030866  0.10217689  0.22285731  1
  O  O349  1  0.39732062  0.09699918  0.73179639  1
  O  O350  1  0.40199918  0.42839821  0.22256436  1
  O  O351  1  0.39742525  0.42362097  0.72552473  1
  O  O352  1  0.41283257  0.76336176  0.21945633  1
  O  O353  1  0.40083955  0.77018274  0.72907415  1
  O  O354  1  0.72478333  0.10560189  0.22516070  1
  O  O355  1  0.73602654  0.08363152  0.73202482  1
  O  O356  1  0.72774608  0.42669759  0.23924277  1
  O  O357  1  0.73441507  0.42103291  0.73442907  1
  O  O358  1  0.74134613  0.75957621  0.20838694  1
  O  O359  1  0.73796879  0.75581715  0.74023377  1
