# generated using pymatgen
data_BaLaInIrO6
_symmetry_space_group_name_H-M   'P 1'
_cell_length_a   17.51537237
_cell_length_b   17.54283698
_cell_length_c   16.48104259
_cell_angle_alpha   90.00119888
_cell_angle_beta   89.98805733
_cell_angle_gamma   89.99099924
_symmetry_Int_Tables_number   1
_chemical_formula_structural   BaLaInIrO6
_chemical_formula_sum   'Ba36 La36 In36 Ir36 O216'
_cell_volume   5064.11860962
_cell_formula_units_Z   36
loop_
 _symmetry_equiv_pos_site_id
 _symmetry_equiv_pos_as_xyz
  1  'x, y, z'
loop_
 _atom_site_type_symbol
 _atom_site_label
 _atom_site_symmetry_multiplicity
 _atom_site_fract_x
 _atom_site_fract_y
 _atom_site_fract_z
 _atom_site_occupancy
  Ba  Ba0  1  1.00091465  0.18263756  0.12770626  1
  Ba  Ba1  1  0.66280062  0.82898190  0.87704014  1
  Ba  Ba2  1  0.66511415  0.15998615  0.88080228  1
  Ba  Ba3  1  -0.00443302  0.15921986  0.87427464  1
  Ba  Ba4  1  1.00134598  0.17313652  0.61932779  1
  Ba  Ba5  1  0.83245840  0.65774126  0.37375523  1
  Ba  Ba6  1  0.32981452  0.15821534  0.87372591  1
  Ba  Ba7  1  0.67135082  0.17991448  0.12897845  1
  Ba  Ba8  1  0.83139876  0.65825124  0.87429041  1
  Ba  Ba9  1  1.00039598  0.83883627  0.12724932  1
  Ba  Ba10  1  0.83310661  0.01020611  0.12710334  1
  Ba  Ba11  1  0.50150536  0.98904304  0.37266476  1
  Ba  Ba12  1  -0.00081880  0.48989175  0.87285083  1
  Ba  Ba13  1  1.00187318  0.50586729  0.12586644  1
  Ba  Ba14  1  0.00517049  0.15888088  0.37159751  1
  Ba  Ba15  1  0.16901262  0.66041911  0.37452013  1
  Ba  Ba16  1  0.99734858  0.50702437  0.62365648  1
  Ba  Ba17  1  0.33434464  0.82485016  0.37603187  1
  Ba  Ba18  1  0.16959833  0.99276435  0.37508917  1
  Ba  Ba19  1  0.49869940  0.32488460  0.37611958  1
  Ba  Ba20  1  0.50163885  0.34292592  0.12468504  1
  Ba  Ba21  1  0.50230095  0.32166028  0.87600733  1
  Ba  Ba22  1  0.32904346  0.15707794  0.37032918  1
  Ba  Ba23  1  0.83533743  0.34240359  0.12429189  1
  Ba  Ba24  1  0.17307517  0.32770136  0.37177461  1
  Ba  Ba25  1  0.83623757  0.32697881  0.87690676  1
  Ba  Ba26  1  0.16328574  0.67275978  0.62308746  1
  Ba  Ba27  1  0.33333402  0.82592523  0.87480781  1
  Ba  Ba28  1  0.33141813  0.84182079  0.62183530  1
  Ba  Ba29  1  0.00265912  0.49192519  0.37556123  1
  Ba  Ba30  1  0.33122199  0.49170701  0.37846754  1
  Ba  Ba31  1  0.16793821  0.67165273  0.12735564  1
  Ba  Ba32  1  0.83281693  0.00739527  0.62151306  1
  Ba  Ba33  1  0.83300457  0.67516262  0.62165653  1
  Ba  Ba34  1  1.00262099  0.83828065  0.62186206  1
  Ba  Ba35  1  0.83710913  0.98844714  0.37521230  1
  La  La36  1  0.66280630  0.15004777  0.37241104  1
  La  La37  1  0.16750955  0.32096240  0.87524094  1
  La  La38  1  0.49604211  0.01521742  0.12440989  1
  La  La39  1  -0.00084525  0.81856437  0.37671928  1
  La  La40  1  0.16070986  0.34538097  0.62222788  1
  La  La41  1  0.49930764  0.99256188  0.88311049  1
  La  La42  1  0.66967837  0.51471696  0.62477605  1
  La  La43  1  0.49755704  0.01181493  0.62271754  1
  La  La44  1  0.83617392  0.34466443  0.62583716  1
  La  La45  1  0.67042877  0.84657499  0.62738885  1
  La  La46  1  0.67282009  0.17944750  0.62096561  1
  La  La47  1  0.49203717  0.68290506  0.13010315  1
  La  La48  1  0.32609183  0.48313024  0.87821939  1
  La  La49  1  0.15847804  0.01463723  0.12633488  1
  La  La50  1  0.49320727  0.68362060  0.62382269  1
  La  La51  1  0.66446718  0.48794725  0.37848410  1
  La  La52  1  0.33735543  0.51647199  0.13238577  1
  La  La53  1  0.15888743  0.01095482  0.62266652  1
  La  La54  1  0.83846056  0.98504579  0.87412650  1
  La  La55  1  0.49522422  0.35184356  0.62699671  1
  La  La56  1  0.67167048  0.51040797  0.12711220  1
  La  La57  1  0.51241351  0.65301985  0.87164113  1
  La  La58  1  0.16938353  0.98369229  0.87391340  1
  La  La59  1  0.84246684  0.32238293  0.37152463  1
  La  La60  1  0.16046958  0.65244784  0.87951413  1
  La  La61  1  0.66602240  0.48634714  0.87457994  1
  La  La62  1  0.33571204  0.18347946  0.12571571  1
  La  La63  1  0.66310035  0.81566223  0.37768512  1
  La  La64  1  0.33677395  0.51993936  0.62113761  1
  La  La65  1  -0.00567562  0.81760417  0.87547179  1
  La  La66  1  0.16228779  0.35093242  0.12865158  1
  La  La67  1  0.50331642  0.64951852  0.37659318  1
  La  La68  1  0.83296609  0.67428901  0.12550870  1
  La  La69  1  0.67320585  0.84724571  0.12868942  1
  La  La70  1  0.33385173  0.18145822  0.62066259  1
  La  La71  1  0.33720584  0.85171636  0.13590224  1
  In  In72  1  0.66643386  0.33642852  0.00243781  1
  In  In73  1  0.16956117  0.16805430  0.49818738  1
  In  In74  1  0.50249235  0.16719980  0.49905276  1
  In  In75  1  0.66371692  0.00079789  0.74998829  1
  In  In76  1  0.00261895  -0.00105487  -0.00062767  1
  In  In77  1  0.16806544  0.50023630  0.49939776  1
  In  In78  1  0.83102204  0.49992198  0.75103989  1
  In  In79  1  0.16762433  0.83203523  0.24936701  1
  In  In80  1  0.66717192  0.00089036  0.00221241  1
  In  In81  1  0.66170629  0.66562922  0.00294877  1
  In  In82  1  0.33504817  0.66827791  0.75532717  1
  In  In83  1  0.33606098  0.66865286  -0.00037571  1
  In  In84  1  0.32954792  0.00305423  0.00079285  1
  In  In85  1  0.83281053  0.16626619  0.00057891  1
  In  In86  1  0.83271582  0.82968077  0.00215988  1
  In  In87  1  0.49709904  0.83422384  0.00436042  1
  In  In88  1  0.49545822  0.50230353  0.74972675  1
  In  In89  1  0.33255124  0.00221168  0.74618050  1
  In  In90  1  0.83066532  0.16616732  0.74777920  1
  In  In91  1  0.66696015  0.33230240  0.49787300  1
  In  In92  1  0.49957510  0.83713355  0.74673791  1
  In  In93  1  0.83326554  0.83127841  0.25469886  1
  In  In94  1  0.49716471  0.50132175  0.00231526  1
  In  In95  1  0.49960772  0.16443162  0.74839404  1
  In  In96  1  -0.00008630  -0.00238155  0.74941248  1
  In  In97  1  0.16634848  0.16481282  0.75024962  1
  In  In98  1  0.17024318  0.49885610  0.75011600  1
  In  In99  1  0.66280407  0.33274000  0.74594830  1
  In  In100  1  0.83414075  0.16601062  0.25356560  1
  In  In101  1  -0.00033299  0.66578250  0.74865290  1
  In  In102  1  0.16794712  0.83061149  0.00126026  1
  In  In103  1  0.33498593  0.33822006  0.24877335  1
  In  In104  1  0.50035084  0.16929084  0.25063134  1
  In  In105  1  0.66610526  -0.00300322  0.49749283  1
  In  In106  1  0.83058979  0.49905546  0.49678999  1
  In  In107  1  0.16704933  0.83401561  0.49953585  1
  Ir  Ir108  1  0.83460569  0.50418563  0.00580837  1
  Ir  Ir109  1  0.66411746  -0.00398843  0.25195606  1
  Ir  Ir110  1  0.50612702  0.50249106  0.25282527  1
  Ir  Ir111  1  0.00274631  0.33261151  0.74568387  1
  Ir  Ir112  1  0.66306418  0.66628475  0.74710872  1
  Ir  Ir113  1  -0.00186369  0.66185206  0.25009207  1
  Ir  Ir114  1  0.00725877  0.33878597  0.00075223  1
  Ir  Ir115  1  -0.00068369  0.33125640  0.49887769  1
  Ir  Ir116  1  0.17007424  0.16608710  0.24441201  1
  Ir  Ir117  1  0.50117228  0.50168656  0.49858766  1
  Ir  Ir118  1  0.66085700  0.66693656  0.50014440  1
  Ir  Ir119  1  0.83061969  0.50358377  0.24893668  1
  Ir  Ir120  1  0.49339692  0.16794114  0.00368775  1
  Ir  Ir121  1  0.00389516  0.33730916  0.25223600  1
  Ir  Ir122  1  0.67118674  0.34164647  0.25477518  1
  Ir  Ir123  1  0.50232666  0.82956822  0.49487936  1
  Ir  Ir124  1  0.83134502  0.83015254  0.50183952  1
  Ir  Ir125  1  0.83493178  0.17028470  0.49910035  1
  Ir  Ir126  1  0.83170555  0.83112483  0.74818696  1
  Ir  Ir127  1  0.66138113  0.66404359  0.25237007  1
  Ir  Ir128  1  0.33858507  0.66712963  0.49917114  1
  Ir  Ir129  1  0.50427860  0.83032045  0.25310084  1
  Ir  Ir130  1  0.33884534  0.66539598  0.25256056  1
  Ir  Ir131  1  -0.00033479  0.66260308  0.00365613  1
  Ir  Ir132  1  -0.00121873  -0.00115369  0.49639928  1
  Ir  Ir133  1  0.32722723  0.33367663  -0.00133581  1
  Ir  Ir134  1  0.33174149  0.00044777  0.24783568  1
  Ir  Ir135  1  0.33476423  0.33549581  0.50677093  1
  Ir  Ir136  1  0.16978178  0.50242000  0.24747810  1
  Ir  Ir137  1  0.16987693  0.49882234  -0.00006069  1
  Ir  Ir138  1  0.33026995  0.33459829  0.74753120  1
  Ir  Ir139  1  0.16707872  0.17147416  0.00144632  1
  Ir  Ir140  1  0.33322602  -0.00041171  0.49994143  1
  Ir  Ir141  1  0.00351987  -0.00085171  0.25306294  1
  Ir  Ir142  1  0.16263681  0.83243053  0.75209038  1
  Ir  Ir143  1  -0.00231986  0.66693489  0.49567526  1
  O  O144  1  0.29978988  0.32607071  0.11783385  1
  O  O145  1  0.29919748  0.32583027  0.62813192  1
  O  O146  1  0.31739507  0.65472372  0.13331434  1
  O  O147  1  0.31585246  0.66088704  0.61929551  1
  O  O148  1  0.29843418  0.99179569  0.12995444  1
  O  O149  1  0.29829562  0.99701813  0.61699845  1
  O  O150  1  0.65056846  0.34394343  0.13627936  1
  O  O151  1  0.62640716  0.31705372  0.61916332  1
  O  O152  1  0.62882212  0.64868058  0.13468889  1
  O  O153  1  0.63055968  0.65359579  0.62263239  1
  O  O154  1  0.63200787  0.98644913  0.13526107  1
  O  O155  1  0.63504343  0.98619256  0.62029097  1
  O  O156  1  0.98502157  0.34224754  0.12688902  1
  O  O157  1  0.97081653  0.33163740  0.62200840  1
  O  O158  1  0.96959971  0.65999092  0.12720610  1
  O  O159  1  0.98630874  0.66828046  0.61681554  1
  O  O160  1  0.98517441  1.00077151  0.13408339  1
  O  O161  1  0.98215242  0.99711571  0.61511441  1
  O  O162  1  0.19809942  0.15622551  0.12147874  1
  O  O163  1  0.19789722  0.15353359  0.62376397  1
  O  O164  1  0.19909113  0.49514411  0.12215644  1
  O  O165  1  0.19876429  0.49127223  0.62493745  1
  O  O166  1  0.20218599  0.82424377  0.12638339  1
  O  O167  1  0.18053314  0.82453829  0.63059375  1
  O  O168  1  0.51794464  0.15923095  0.12317178  1
  O  O169  1  0.53679398  0.14946975  0.62248199  1
  O  O170  1  0.53475982  0.49815546  0.13444818  1
  O  O171  1  0.53128874  0.49248152  0.61721632  1
  O  O172  1  0.53614038  0.81936227  0.13556485  1
  O  O173  1  0.53238403  0.82038303  0.61262895  1
  O  O174  1  0.85154098  0.16837245  0.12939377  1
  O  O175  1  0.85424009  0.16402088  0.61669785  1
  O  O176  1  0.85496789  0.50715642  0.12833215  1
  O  O177  1  0.84860140  0.48696537  0.62247576  1
  O  O178  1  0.85072933  0.81449016  0.13054393  1
  O  O179  1  0.85416833  0.83019450  0.62433175  1
  O  O180  1  0.15588034  0.17150780  0.36681833  1
  O  O181  1  0.14539189  0.18581866  0.88085426  1
  O  O182  1  0.15518827  0.49934955  0.36968386  1
  O  O183  1  0.15130520  0.50611015  0.88020961  1
  O  O184  1  0.13685639  0.83472934  0.37361186  1
  O  O185  1  0.13194755  0.84474822  0.87192668  1
  O  O186  1  0.47689803  0.16884457  0.37414673  1
  O  O187  1  0.47764473  0.16455510  0.88352340  1
  O  O188  1  0.47771633  0.51085729  0.37470761  1
  O  O189  1  0.46081048  0.51554669  0.87527341  1
  O  O190  1  0.48028046  0.83346594  0.37343702  1
  O  O191  1  0.48178762  0.85372234  0.87534361  1
  O  O192  1  0.80269286  0.17975280  0.37964639  1
  O  O193  1  0.81680759  0.17468964  0.87306834  1
  O  O194  1  0.80178324  0.50207709  0.36868656  1
  O  O195  1  0.80405750  0.50115493  0.88452171  1
  O  O196  1  0.80198302  0.82846646  0.38091391  1
  O  O197  1  0.81247675  0.83550464  0.86919580  1
  O  O198  1  0.01939920  -0.00494850  0.37611233  1
  O  O199  1  0.03592844  0.00052341  0.87395216  1
  O  O200  1  0.02539175  0.33374563  0.37586725  1
  O  O201  1  0.03392813  0.33597831  0.87199123  1
  O  O202  1  0.01953175  0.67464896  0.37223221  1
  O  O203  1  0.02368146  0.67370943  0.88278006  1
  O  O204  1  0.35610705  0.00398383  0.37426069  1
  O  O205  1  0.36624058  0.00254146  0.87489275  1
  O  O206  1  0.34938446  0.33664636  0.38274733  1
  O  O207  1  0.35458010  0.34486018  0.87265120  1
  O  O208  1  0.36788077  0.66715771  0.37585011  1
  O  O209  1  0.37869053  0.67138506  0.87805869  1
  O  O210  1  0.68754013  0.00413993  0.37015397  1
  O  O211  1  0.70129400  0.00035069  0.87415519  1
  O  O212  1  0.70300873  0.35200503  0.37275356  1
  O  O213  1  0.68384239  0.35067413  0.87373370  1
  O  O214  1  0.68558420  0.67848383  0.37628038  1
  O  O215  1  0.68133614  0.67400250  0.86703367  1
  O  O216  1  0.07895980  0.10243516  0.02084895  1
  O  O217  1  0.07617891  0.08527509  0.51237098  1
  O  O218  1  0.08152282  0.42686928  0.02144175  1
  O  O219  1  0.07514371  0.41725711  0.52153560  1
  O  O220  1  0.06655719  0.75463289  0.01429614  1
  O  O221  1  0.07048063  0.75526214  0.50386777  1
  O  O222  1  0.40088153  0.10059294  0.02842250  1
  O  O223  1  0.40397008  0.08861215  0.52917177  1
  O  O224  1  0.39020325  0.42945966  0.02064817  1
  O  O225  1  0.40619641  0.43273246  0.53104681  1
  O  O226  1  0.39854528  0.76866667  0.03811486  1
  O  O227  1  0.41264633  0.75628592  0.52113380  1
  O  O228  1  0.73731632  0.09270521  0.02445079  1
  O  O229  1  0.73943976  0.10375611  0.51496258  1
  O  O230  1  0.73893954  0.44224684  0.02320553  1
  O  O231  1  0.73013607  0.43239456  0.52446276  1
  O  O232  1  0.73422526  0.75603656  0.03127955  1
  O  O233  1  0.72877956  0.76284570  0.52288310  1
  O  O234  1  0.10602390  0.27275938  0.02202143  1
  O  O235  1  0.09478355  0.26502357  0.52189885  1
  O  O236  1  0.10145774  0.59586770  0.01147296  1
  O  O237  1  0.08487746  0.59109811  0.50983698  1
  O  O238  1  0.09943301  0.93093753  0.02789729  1
  O  O239  1  0.09195063  0.93178916  0.52016167  1
  O  O240  1  0.41782411  0.25955045  0.02616312  1
  O  O241  1  0.42803681  0.26718343  0.53125753  1
  O  O242  1  0.42906616  0.59416284  0.03969197  1
  O  O243  1  0.43312335  0.59641606  0.52291770  1
  O  O244  1  0.42571710  0.93264666  0.03730576  1
  O  O245  1  0.43466736  0.92806049  0.52050231  1
  O  O246  1  0.75759423  0.26286295  0.01507106  1
  O  O247  1  0.77144721  0.26464827  0.52291203  1
  O  O248  1  0.76498865  0.59498431  0.02864039  1
  O  O249  1  0.74727920  0.59361877  0.51916346  1
  O  O250  1  0.75440384  0.91788285  0.02754076  1
  O  O251  1  0.75756359  0.91643106  0.52059968  1
  O  O252  1  0.23547758  0.06807204  0.26045599  1
  O  O253  1  0.23214297  0.06450185  0.77734482  1
  O  O254  1  0.24047919  0.41295681  0.25484626  1
  O  O255  1  0.23718516  0.39792146  0.77602088  1
  O  O256  1  0.25000636  0.73598258  0.26833471  1
  O  O257  1  0.22718711  0.73570107  0.77780150  1
  O  O258  1  0.57844894  0.07328397  0.26660534  1
  O  O259  1  0.55453980  0.05480893  0.77238864  1
  O  O260  1  0.57891867  0.41361916  0.28081095  1
  O  O261  1  0.56366931  0.40654219  0.75951817  1
  O  O262  1  0.56654826  0.73178241  0.28004404  1
  O  O263  1  0.56638584  0.72647941  0.76217582  1
  O  O264  1  0.91460485  0.07187729  0.27005308  1
  O  O265  1  0.89778703  0.06288422  0.77024092  1
  O  O266  1  0.90217527  0.40779308  0.27495493  1
  O  O267  1  0.90993454  0.40144100  0.75899530  1
  O  O268  1  0.91217679  0.73596384  0.26799977  1
  O  O269  1  0.90572151  0.74586984  0.76851244  1
  O  O270  1  0.25947863  0.23673993  0.25232141  1
  O  O271  1  0.26358058  0.24321444  0.76337736  1
  O  O272  1  0.26974820  0.56868123  0.26250152  1
  O  O273  1  0.27263654  0.56508768  0.77297535  1
  O  O274  1  0.26675174  0.90748960  0.26507144  1
  O  O275  1  0.25235232  0.90109773  0.76735115  1
  O  O276  1  0.60468843  0.24593894  0.27487533  1
  O  O277  1  0.59467303  0.23378121  0.76666525  1
  O  O278  1  0.59908855  0.56949417  0.28236172  1
  O  O279  1  0.59918068  0.57127337  0.77443181  1
  O  O280  1  0.60242422  0.89420936  0.27360539  1
  O  O281  1  0.60404821  0.89365063  0.75161279  1
  O  O282  1  0.92658100  0.25313003  0.27257460  1
  O  O283  1  0.93337194  0.24447172  0.75866125  1
  O  O284  1  0.92516966  0.57070888  0.26895791  1
  O  O285  1  0.92179895  0.57628089  0.76426187  1
  O  O286  1  0.93555489  0.90441692  0.27322389  1
  O  O287  1  0.92424476  0.89916179  0.77591190  1
  O  O288  1  0.27021672  0.24146105  0.49250961  1
  O  O289  1  0.25943958  0.24100565  0.98020855  1
  O  O290  1  0.26749683  0.57669816  0.49058413  1
  O  O291  1  0.26540397  0.56333885  0.98047954  1
  O  O292  1  0.26274684  0.91157983  0.48192008  1
  O  O293  1  0.25458038  0.91229904  0.97302997  1
  O  O294  1  0.60478357  0.23388743  0.46797737  1
  O  O295  1  0.58228604  0.23999725  0.99263600  1
  O  O296  1  0.59428006  0.57160253  0.47087134  1
  O  O297  1  0.59732797  0.56892645  0.96828899  1
  O  O298  1  0.59706213  0.89192288  0.47431125  1
  O  O299  1  0.58730892  0.91240935  0.98841790  1
  O  O300  1  0.92539178  0.24238206  0.47261134  1
  O  O301  1  0.93643665  0.25092448  0.98787916  1
  O  O302  1  0.92308373  0.57974553  0.48462035  1
  O  O303  1  0.92906546  0.57187826  0.98490428  1
  O  O304  1  0.92904194  0.89893642  0.47574916  1
  O  O305  1  0.92853989  0.90039034  0.97207454  1
  O  O306  1  0.24627669  0.07119780  0.48327292  1
  O  O307  1  0.22777137  0.07534129  0.97854309  1
  O  O308  1  0.24339375  0.40188133  0.49170337  1
  O  O309  1  0.23381672  0.40121874  0.97346817  1
  O  O310  1  0.24900298  0.73927146  0.48508940  1
  O  O311  1  0.23311611  0.72931095  0.97203902  1
  O  O312  1  0.57789542  0.07373719  0.47469591  1
  O  O313  1  0.55792608  0.07181640  0.98897666  1
  O  O314  1  0.57044579  0.41286821  0.47760309  1
  O  O315  1  0.57374023  0.41216428  0.98125453  1
  O  O316  1  0.56690418  0.73343830  0.47184465  1
  O  O317  1  0.55674296  0.72753108  0.98497330  1
  O  O318  1  0.90611923  0.07553190  0.47776022  1
  O  O319  1  0.90255608  0.06431391  0.97553799  1
  O  O320  1  0.90407938  0.39782324  0.47945489  1
  O  O321  1  0.90938827  0.41116863  0.98407162  1
  O  O322  1  0.91047714  0.74561477  0.47416758  1
  O  O323  1  0.90861485  0.73119158  0.98814195  1
  O  O324  1  0.10207176  0.26607476  0.22591991  1
  O  O325  1  0.09879475  0.26760494  0.72673131  1
  O  O326  1  0.09272488  0.58953024  0.23550752  1
  O  O327  1  0.09910653  0.59611874  0.74666562  1
  O  O328  1  0.09602699  0.93242199  0.22803419  1
  O  O329  1  0.10242804  0.92802083  0.72597133  1
  O  O330  1  0.42058015  0.25800074  0.22564038  1
  O  O331  1  0.42424814  0.26981083  0.72006425  1
  O  O332  1  0.43824463  0.59732693  0.23092906  1
  O  O333  1  0.43027659  0.59557934  0.71239093  1
  O  O334  1  0.43174584  0.92841797  0.22391524  1
  O  O335  1  0.43055575  0.93512536  0.71710585  1
  O  O336  1  0.76109689  0.27253471  0.24348355  1
  O  O337  1  0.76282136  0.26627310  0.71458218  1
  O  O338  1  0.75842793  0.59793459  0.22207151  1
  O  O339  1  0.75078181  0.59641064  0.72821424  1
  O  O340  1  0.75183895  0.92252374  0.23097707  1
  O  O341  1  0.76351550  0.92016802  0.72998469  1
  O  O342  1  0.07826611  0.09172223  0.22828887  1
  O  O343  1  0.07610767  0.08902603  0.72338856  1
  O  O344  1  0.08308082  0.42444525  0.22769549  1
  O  O345  1  0.07630093  0.41926318  0.72598797  1
  O  O346  1  0.07021432  0.75099580  0.23628787  1
  O  O347  1  0.06921052  0.76788175  0.74627030  1
  O  O348  1  0.40174590  0.08950653  0.21947065  1
  O  O349  1  0.39684863  0.10465129  0.71742424  1
  O  O350  1  0.41067564  0.43694962  0.22651137  1
  O  O351  1  0.39258188  0.42953690  0.72253419  1
  O  O352  1  0.40740257  0.76258153  0.22629292  1
  O  O353  1  0.40992407  0.75911938  0.72576013  1
  O  O354  1  0.73377636  0.08862426  0.24158596  1
  O  O355  1  0.72741790  0.10095664  0.72000690  1
  O  O356  1  0.73221343  0.44139911  0.23185390  1
  O  O357  1  0.72961086  0.43542511  0.72655340  1
  O  O358  1  0.72712550  0.75676229  0.22934741  1
  O  O359  1  0.73296898  0.76199371  0.72237930  1
