# generated using pymatgen
data_BaLaInIrO6
_symmetry_space_group_name_H-M   'P 1'
_cell_length_a   17.52018267
_cell_length_b   17.55436008
_cell_length_c   16.48835284
_cell_angle_alpha   89.99329828
_cell_angle_beta   89.99837397
_cell_angle_gamma   89.99932118
_symmetry_Int_Tables_number   1
_chemical_formula_structural   BaLaInIrO6
_chemical_formula_sum   'Ba36 La36 In36 Ir36 O216'
_cell_volume   5071.08513408
_cell_formula_units_Z   36
loop_
 _symmetry_equiv_pos_site_id
 _symmetry_equiv_pos_as_xyz
  1  'x, y, z'
loop_
 _atom_site_type_symbol
 _atom_site_label
 _atom_site_symmetry_multiplicity
 _atom_site_fract_x
 _atom_site_fract_y
 _atom_site_fract_z
 _atom_site_occupancy
  Ba  Ba0  1  0.16733219  0.32422478  0.87409694  1
  Ba  Ba1  1  0.17087703  0.67441249  0.62442288  1
  Ba  Ba2  1  0.66872559  0.15886532  0.87665820  1
  Ba  Ba3  1  0.83312555  0.99638689  0.87847191  1
  Ba  Ba4  1  0.66800791  0.83846981  0.12381281  1
  Ba  Ba5  1  0.49493083  0.67767208  0.12217563  1
  Ba  Ba6  1  0.49678952  0.00821484  0.12469644  1
  Ba  Ba7  1  0.99717202  0.50840613  0.12306399  1
  Ba  Ba8  1  0.16386672  0.65922551  0.37600165  1
  Ba  Ba9  1  0.83538790  0.32440836  0.87761701  1
  Ba  Ba10  1  1.00281383  0.17446213  0.62430444  1
  Ba  Ba11  1  0.16670071  0.65894868  0.87398647  1
  Ba  Ba12  1  0.66763164  0.50731093  0.12593975  1
  Ba  Ba13  1  0.82843057  0.34115924  0.12311721  1
  Ba  Ba14  1  -0.00048835  0.48887382  0.36868660  1
  Ba  Ba15  1  0.83046980  0.67305367  0.12310399  1
  Ba  Ba16  1  1.00034177  0.84138589  0.12538172  1
  Ba  Ba17  1  0.83429181  0.34303765  0.62543983  1
  Ba  Ba18  1  0.82771574  0.00453088  0.12865515  1
  Ba  Ba19  1  0.16547097  0.67848995  0.12387544  1
  Ba  Ba20  1  -0.00134431  0.15837470  0.87867489  1
  Ba  Ba21  1  0.33161817  0.15800681  0.37619012  1
  Ba  Ba22  1  0.67052287  0.17579486  0.62554154  1
  Ba  Ba23  1  0.33158254  0.49407859  0.87552740  1
  Ba  Ba24  1  0.83277746  0.66064096  0.87725446  1
  Ba  Ba25  1  0.49722941  0.01264023  0.62759570  1
  Ba  Ba26  1  0.66682515  0.15995097  0.37334416  1
  Ba  Ba27  1  0.33356849  0.51030219  0.62931323  1
  Ba  Ba28  1  0.83494404  0.99316724  0.37998973  1
  Ba  Ba29  1  0.83504590  0.32338920  0.36999881  1
  Ba  Ba30  1  0.33377567  0.17816691  0.62337664  1
  Ba  Ba31  1  0.66611316  0.17241718  0.12632290  1
  Ba  Ba32  1  0.16502491  0.99260997  0.37972063  1
  Ba  Ba33  1  0.50175804  0.65432467  0.87541194  1
  Ba  Ba34  1  0.66838642  0.82555166  0.37372048  1
  Ba  Ba35  1  0.33075566  0.49056436  0.37259749  1
  La  La36  1  0.33715186  0.84583342  0.62762721  1
  La  La37  1  1.00756985  0.50882649  0.62631722  1
  La  La38  1  -0.00793752  0.81608537  0.37409943  1
  La  La39  1  0.67208035  0.84889595  0.62562008  1
  La  La40  1  0.33782330  0.18402343  0.12295364  1
  La  La41  1  0.83667954  0.64879275  0.36783621  1
  La  La42  1  0.16334580  0.34767704  0.62321725  1
  La  La43  1  0.49638932  0.34910701  0.62494968  1
  La  La44  1  1.00659175  0.84849614  0.62712648  1
  La  La45  1  0.83109159  0.01629632  0.62720321  1
  La  La46  1  0.50696827  0.98291680  0.87390354  1
  La  La47  1  0.00465261  0.82389290  0.88345740  1
  La  La48  1  0.33407526  0.51964080  0.12090796  1
  La  La49  1  0.66536171  0.48717345  0.37296040  1
  La  La50  1  0.50794064  0.32047284  0.37789301  1
  La  La51  1  0.16714113  0.01711304  0.62375508  1
  La  La52  1  0.17150881  0.98238885  0.87316681  1
  La  La53  1  0.16567587  0.01244987  0.12759316  1
  La  La54  1  0.83137042  0.68134525  0.62457669  1
  La  La55  1  0.67302404  0.51468880  0.62647682  1
  La  La56  1  0.49336908  0.68329380  0.62938741  1
  La  La57  1  0.33138182  0.81585620  0.87470548  1
  La  La58  1  0.33898129  0.84640605  0.12510976  1
  La  La59  1  0.50730461  0.64945368  0.37643608  1
  La  La60  1  0.16745547  0.32539921  0.37723184  1
  La  La61  1  -0.00563243  0.15235301  0.37429166  1
  La  La62  1  0.32543052  0.14617007  0.87226322  1
  La  La63  1  0.66514692  0.81934809  0.87839662  1
  La  La64  1  0.50312550  0.32192968  0.87031070  1
  La  La65  1  0.33056101  0.82562944  0.37500325  1
  La  La66  1  0.66322021  0.48765817  0.87854741  1
  La  La67  1  0.15969813  0.34456534  0.12647101  1
  La  La68  1  0.49573499  0.34549559  0.12007753  1
  La  La69  1  -0.00895068  0.48571621  0.87760477  1
  La  La70  1  0.99759304  0.17745806  0.12669751  1
  La  La71  1  0.51022405  0.98618552  0.37465719  1
  In  In72  1  0.49866186  0.49756615  0.24831125  1
  In  In73  1  0.50016977  0.83168199  0.25017665  1
  In  In74  1  0.16493237  0.83624065  0.25325349  1
  In  In75  1  -0.00075976  0.66562140  0.24690811  1
  In  In76  1  0.83380121  0.50316143  0.74964667  1
  In  In77  1  0.33392948  0.33525697  0.49844976  1
  In  In78  1  -0.00016598  0.33032733  0.74925045  1
  In  In79  1  0.83660784  0.83523164  0.75001915  1
  In  In80  1  0.33861125  0.66823945  0.49906628  1
  In  In81  1  0.16897691  0.49887206  0.24692913  1
  In  In82  1  0.66647927  0.33447229  0.74881357  1
  In  In83  1  0.16498797  0.83340697  0.50074725  1
  In  In84  1  0.66412744  0.33136891  0.00015073  1
  In  In85  1  0.16529701  0.50096527  0.75148815  1
  In  In86  1  0.49950476  0.16789271  0.50080898  1
  In  In87  1  0.33329095  0.00148792  0.25130997  1
  In  In88  1  0.83288777  0.83503707  -0.00119295  1
  In  In89  1  0.49493235  0.16433187  -0.00438076  1
  In  In90  1  0.33622008  -0.00039088  0.49973626  1
  In  In91  1  0.16686886  0.16728348  0.25013177  1
  In  In92  1  0.66807302  0.66911541  0.50134216  1
  In  In93  1  0.16548771  0.49953395  -0.00154685  1
  In  In94  1  0.66513971  -0.00046099  0.75239479  1
  In  In95  1  0.33286302  0.33203892  0.75279587  1
  In  In96  1  0.16647563  0.50094920  0.49699431  1
  In  In97  1  0.33607121  0.66975684  0.25312339  1
  In  In98  1  0.66650875  -0.00006068  0.50046287  1
  In  In99  1  0.83311608  0.83301647  0.25250701  1
  In  In100  1  0.83390702  0.16284965  0.00309635  1
  In  In101  1  0.49687793  0.16809254  0.24698264  1
  In  In102  1  0.66815019  0.33667015  0.50299466  1
  In  In103  1  0.66206911  0.66372043  0.00090312  1
  In  In104  1  0.16954714  0.16568384  -0.00083569  1
  In  In105  1  0.83647175  0.16959988  0.50042585  1
  In  In106  1  -0.00158127  0.66788022  0.74799384  1
  In  In107  1  0.00452019  -0.00163001  0.75435403  1
  Ir  Ir108  1  0.83556408  0.16387096  0.75097484  1
  Ir  Ir109  1  0.49438861  0.16749044  0.75315070  1
  Ir  Ir110  1  -0.00007487  0.33041656  0.24800397  1
  Ir  Ir111  1  0.17170070  0.83570940  -0.00259219  1
  Ir  Ir112  1  0.16995845  0.16319523  0.74939601  1
  Ir  Ir113  1  0.66215559  -0.00332880  0.00026269  1
  Ir  Ir114  1  0.49441359  0.49723909  -0.00475052  1
  Ir  Ir115  1  0.82913306  0.49683643  0.25081910  1
  Ir  Ir116  1  0.83689610  0.50235504  0.50050104  1
  Ir  Ir117  1  0.83178319  0.50103648  0.00126588  1
  Ir  Ir118  1  0.33519376  -0.00326352  0.75463846  1
  Ir  Ir119  1  0.00116553  -0.00284155  0.50084565  1
  Ir  Ir120  1  0.17250451  0.83589817  0.74978800  1
  Ir  Ir121  1  0.50593650  0.50237130  0.50293317  1
  Ir  Ir122  1  -0.00012606  0.33269763  0.00660920  1
  Ir  Ir123  1  0.66079004  0.66839369  0.74494385  1
  Ir  Ir124  1  0.83497953  0.16403795  0.25111076  1
  Ir  Ir125  1  0.00056909  0.00334643  0.24874648  1
  Ir  Ir126  1  0.16138064  0.16841331  0.50060436  1
  Ir  Ir127  1  0.33370768  0.33386764  0.00164867  1
  Ir  Ir128  1  0.50471465  0.50199293  0.74953141  1
  Ir  Ir129  1  0.00095169  0.33485695  0.49623070  1
  Ir  Ir130  1  -0.00905513  0.66504082  0.50144202  1
  Ir  Ir131  1  0.66811557  0.66278352  0.25464621  1
  Ir  Ir132  1  0.83948703  0.83205471  0.50352812  1
  Ir  Ir133  1  0.50042467  0.83212858  0.74983996  1
  Ir  Ir134  1  0.33102917  -0.00414807  -0.00557180  1
  Ir  Ir135  1  0.66561212  0.33403565  0.25111649  1
  Ir  Ir136  1  0.33194003  0.33396428  0.24430758  1
  Ir  Ir137  1  0.33302183  0.66975918  -0.00297664  1
  Ir  Ir138  1  0.66567873  0.00008237  0.25011243  1
  Ir  Ir139  1  0.00193684  0.66966325  -0.00336517  1
  Ir  Ir140  1  0.33638878  0.67080421  0.75081577  1
  Ir  Ir141  1  0.49513280  0.83589263  -0.00514420  1
  Ir  Ir142  1  0.00745253  -0.00040498  0.00576385  1
  Ir  Ir143  1  0.50024646  0.83171197  0.50549375  1
  O  O144  1  0.29716511  0.32286762  0.12283519  1
  O  O145  1  0.30121104  0.33340403  0.62570817  1
  O  O146  1  0.31873077  0.66297982  0.11702490  1
  O  O147  1  0.32300383  0.67167749  0.63161044  1
  O  O148  1  0.29949720  0.98313248  0.11339978  1
  O  O149  1  0.30286959  0.98568584  0.63455850  1
  O  O150  1  0.63506483  0.33356238  0.12958370  1
  O  O151  1  0.63236743  0.33523500  0.62713516  1
  O  O152  1  0.64501671  0.66314272  0.13334095  1
  O  O153  1  0.63113617  0.65427754  0.62616296  1
  O  O154  1  0.64570050  1.00109984  0.12537653  1
  O  O155  1  0.64527736  0.98669551  0.62698717  1
  O  O156  1  0.97481863  0.31710368  0.12829721  1
  O  O157  1  0.98085088  0.32986168  0.61477526  1
  O  O158  1  0.98114617  0.66922469  0.11591154  1
  O  O159  1  0.96312332  0.65050816  0.61842945  1
  O  O160  1  0.97754711  0.99664271  0.12701797  1
  O  O161  1  0.97078151  0.98549310  0.62121329  1
  O  O162  1  0.20219604  0.15444877  0.12226310  1
  O  O163  1  0.18712467  0.15416053  0.62554403  1
  O  O164  1  0.19916769  0.48351758  0.12128526  1
  O  O165  1  0.18246161  0.48643989  0.62282003  1
  O  O166  1  0.20037911  0.83424460  0.11749436  1
  O  O167  1  0.20060266  0.83137269  0.63077220  1
  O  O168  1  0.51539706  0.16981283  0.12097868  1
  O  O169  1  0.52059415  0.16551047  0.63621250  1
  O  O170  1  0.51586915  0.48876795  0.11621294  1
  O  O171  1  0.53728240  0.49125997  0.62690494  1
  O  O172  1  0.51679931  0.83377180  0.11446926  1
  O  O173  1  0.53572746  0.82103591  0.62767466  1
  O  O174  1  0.86099695  0.16267491  0.13127881  1
  O  O175  1  0.85095192  0.15941971  0.63088093  1
  O  O176  1  0.85107885  0.49864150  0.12591447  1
  O  O177  1  0.86947521  0.50140200  0.61808564  1
  O  O178  1  0.84747799  0.83392808  0.12556528  1
  O  O179  1  0.87051195  0.82205395  0.61987109  1
  O  O180  1  0.13279573  0.17996861  0.37990766  1
  O  O181  1  0.14953669  0.16547286  0.87050836  1
  O  O182  1  0.15027128  0.49152958  0.37215828  1
  O  O183  1  0.12961461  0.49886936  0.87651268  1
  O  O184  1  0.12378291  0.84171633  0.38006214  1
  O  O185  1  0.13986068  0.84358147  0.87273088  1
  O  O186  1  0.47766362  0.18677631  0.37113117  1
  O  O187  1  0.45946088  0.17814399  0.87010345  1
  O  O188  1  0.48115547  0.51093406  0.38307383  1
  O  O189  1  0.47677177  0.50317219  0.87045751  1
  O  O190  1  0.47058088  0.84485946  0.38523738  1
  O  O191  1  0.46704156  0.84448118  0.87122301  1
  O  O192  1  0.81990212  0.16342820  0.37076963  1
  O  O193  1  0.82426956  0.16040101  0.87145998  1
  O  O194  1  0.80135859  0.50600560  0.37604296  1
  O  O195  1  0.80311971  0.50280634  0.88122702  1
  O  O196  1  0.81842636  0.83686434  0.38499229  1
  O  O197  1  0.80158975  0.83818879  0.87280467  1
  O  O198  1  0.02069845  0.01683051  0.37402236  1
  O  O199  1  0.03622034  0.00325147  0.88468701  1
  O  O200  1  0.03123308  0.33545670  0.37115384  1
  O  O201  1  0.01796624  0.34108179  0.88499970  1
  O  O202  1  0.01353547  0.67577524  0.38352064  1
  O  O203  1  0.01947471  0.68464154  0.87622920  1
  O  O204  1  0.37477537  0.00280506  0.37578868  1
  O  O205  1  0.36899001  0.00803987  0.87524387  1
  O  O206  1  0.36690936  0.33724389  0.36361729  1
  O  O207  1  0.36727368  0.33832132  0.88317030  1
  O  O208  1  0.37733992  0.68680601  0.37799146  1
  O  O209  1  0.35506529  0.67692896  0.87344071  1
  O  O210  1  0.68116866  -0.00342626  0.36972158  1
  O  O211  1  0.68022303  -0.00727110  0.88047117  1
  O  O212  1  0.68482956  0.34700893  0.37137299  1
  O  O213  1  0.68362229  0.35176745  0.87349779  1
  O  O214  1  0.69788072  0.66436789  0.37536864  1
  O  O215  1  0.67956234  0.67856480  0.86483022  1
  O  O216  1  0.07485562  0.09055984  0.03518996  1
  O  O217  1  0.07269354  0.09007670  0.52045494  1
  O  O218  1  0.07641323  0.41546821  0.02647989  1
  O  O219  1  0.06542395  0.42623347  0.52237776  1
  O  O220  1  0.07444332  0.76679234  0.01321445  1
  O  O221  1  0.05874720  0.75830668  0.52772600  1
  O  O222  1  0.38945195  0.09552001  0.01676543  1
  O  O223  1  0.40548379  0.09407843  0.52040194  1
  O  O224  1  0.39969710  0.42884309  0.02833215  1
  O  O225  1  0.41628005  0.43346805  0.52271422  1
  O  O226  1  0.39698137  0.77097885  0.01452528  1
  O  O227  1  0.41191130  0.76427261  0.53524818  1
  O  O228  1  0.73610219  0.08427626  0.01305072  1
  O  O229  1  0.75112779  0.08374002  0.52104805  1
  O  O230  1  0.74126383  0.42999002  0.01375624  1
  O  O231  1  0.74046513  0.43967589  0.52284598  1
  O  O232  1  0.73709407  0.75667090  0.00402292  1
  O  O233  1  0.74369598  0.76601378  0.53218452  1
  O  O234  1  0.08908378  0.25820626  0.02911151  1
  O  O235  1  0.09942290  0.27180450  0.51764023  1
  O  O236  1  0.08831080  0.59623419  0.01525577  1
  O  O237  1  0.07916783  0.59215212  0.52155678  1
  O  O238  1  0.10721897  0.93398620  0.01999289  1
  O  O239  1  0.09272901  0.93031345  0.53464275  1
  O  O240  1  0.42340753  0.26825053  0.02788825  1
  O  O241  1  0.43274883  0.27192301  0.52260828  1
  O  O242  1  0.42170661  0.58999506  0.01944781  1
  O  O243  1  0.44552791  0.59956424  0.52250370  1
  O  O244  1  0.42236826  0.92640205  0.01673248  1
  O  O245  1  0.42789650  0.91610462  0.53222040  1
  O  O246  1  0.75367215  0.25196205  0.01214220  1
  O  O247  1  0.76113038  0.26144476  0.51485502  1
  O  O248  1  0.75846417  0.58678505  0.01436960  1
  O  O249  1  0.76751099  0.59441975  0.52734011  1
  O  O250  1  0.75036768  0.92712575  0.01520263  1
  O  O251  1  0.77104687  0.92266293  0.52986072  1
  O  O252  1  0.23074548  0.06721566  0.26243455  1
  O  O253  1  0.23836088  0.06383609  0.77639864  1
  O  O254  1  0.23557823  0.39181011  0.26727677  1
  O  O255  1  0.24280082  0.40872924  0.76881830  1
  O  O256  1  0.24362017  0.74460607  0.27812202  1
  O  O257  1  0.24512947  0.74452041  0.77459165  1
  O  O258  1  0.57184528  0.06865992  0.27014533  1
  O  O259  1  0.56100928  0.07141524  0.77689153  1
  O  O260  1  0.57257241  0.40347681  0.27334111  1
  O  O261  1  0.56805020  0.41077474  0.77608249  1
  O  O262  1  0.57287667  0.72978190  0.27611204  1
  O  O263  1  0.56650581  0.73741857  0.76666289  1
  O  O264  1  0.90790225  0.07438936  0.27314510  1
  O  O265  1  0.90485369  0.06925130  0.75724204  1
  O  O266  1  0.90479704  0.40375857  0.26357649  1
  O  O267  1  0.90912900  0.40874242  0.77035047  1
  O  O268  1  0.90343758  0.73672120  0.27748724  1
  O  O269  1  0.89534458  0.73054543  0.75291857  1
  O  O270  1  0.26484575  0.24259176  0.26535695  1
  O  O271  1  0.26457041  0.22780067  0.77374138  1
  O  O272  1  0.26896345  0.56926783  0.25151998  1
  O  O273  1  0.26251615  0.58267560  0.76517119  1
  O  O274  1  0.26515671  0.90169743  0.27594460  1
  O  O275  1  0.26904225  0.90191932  0.77911136  1
  O  O276  1  0.59197755  0.25005593  0.26997538  1
  O  O277  1  0.58292879  0.23904805  0.77518685  1
  O  O278  1  0.60086451  0.57013598  0.27752164  1
  O  O279  1  0.60272663  0.56629654  0.76997255  1
  O  O280  1  0.59076300  0.91253013  0.26850110  1
  O  O281  1  0.59455056  0.89680582  0.77468204  1
  O  O282  1  0.93429582  0.23031127  0.26921025  1
  O  O283  1  0.92610942  0.23485008  0.76427147  1
  O  O284  1  0.91506199  0.57274066  0.26716940  1
  O  O285  1  0.93274895  0.56661005  0.77783792  1
  O  O286  1  0.93714520  0.90774279  0.27409484  1
  O  O287  1  0.94473885  0.89401390  0.77111730  1
  O  O288  1  0.24893755  0.23920252  0.47823551  1
  O  O289  1  0.27323846  0.23547199  0.97866535  1
  O  O290  1  0.26158727  0.57731697  0.48642280  1
  O  O291  1  0.26292128  0.57750083  0.98874901  1
  O  O292  1  0.26616147  0.90376049  0.47802688  1
  O  O293  1  0.26495966  0.90164986  0.96569819  1
  O  O294  1  0.58951181  0.24750272  0.47826905  1
  O  O295  1  0.58017648  0.24701022  0.96903222  1
  O  O296  1  0.60063508  0.56640847  0.47715256  1
  O  O297  1  0.59160801  0.56396980  0.97623119  1
  O  O298  1  0.58959263  0.90136796  0.48527465  1
  O  O299  1  0.58978509  0.90342088  0.97018794  1
  O  O300  1  0.93880600  0.23865718  0.47448776  1
  O  O301  1  0.92918166  0.24350251  0.99230141  1
  O  O302  1  0.92031422  0.57660320  0.46826233  1
  O  O303  1  0.93218099  0.57344449  0.97569234  1
  O  O304  1  0.93916157  0.89617589  0.48099528  1
  O  O305  1  0.93866610  0.90862907  0.97618023  1
  O  O306  1  0.23090973  0.07560045  0.49353480  1
  O  O307  1  0.23842300  0.06151323  0.97005244  1
  O  O308  1  0.23434775  0.39772463  0.47691266  1
  O  O309  1  0.24400330  0.39991467  0.98324175  1
  O  O310  1  0.24667744  0.74690502  0.47751060  1
  O  O311  1  0.24312289  0.74459248  0.97234472  1
  O  O312  1  0.56898467  0.06843813  0.47560647  1
  O  O313  1  0.56707262  0.06369530  0.97520825  1
  O  O314  1  0.56967388  0.41054328  0.47531204  1
  O  O315  1  0.56196913  0.40614407  0.97556351  1
  O  O316  1  0.56577055  0.73772113  0.47900001  1
  O  O317  1  0.56974840  0.74948463  0.97714747  1
  O  O318  1  0.91635401  0.07361354  0.48693058  1
  O  O319  1  0.91726076  0.06988215  0.99077335  1
  O  O320  1  0.90586476  0.40593968  0.47729460  1
  O  O321  1  0.91357077  0.41458679  0.98100940  1
  O  O322  1  0.89706926  0.73248762  0.47687977  1
  O  O323  1  0.91734062  0.74613694  0.97750358  1
  O  O324  1  0.09199864  0.26214950  0.22375330  1
  O  O325  1  0.10582021  0.25886544  0.72665980  1
  O  O326  1  0.08946321  0.58901214  0.23432658  1
  O  O327  1  0.08842586  0.59231733  0.72331798  1
  O  O328  1  0.09615323  0.94114952  0.22539374  1
  O  O329  1  0.10907125  0.93108141  0.72775688  1
  O  O330  1  0.42482354  0.27228086  0.21711631  1
  O  O331  1  0.43552396  0.26627357  0.72991141  1
  O  O332  1  0.43445970  0.59619958  0.24128836  1
  O  O333  1  0.43450451  0.60100127  0.72714385  1
  O  O334  1  0.42443336  0.92470507  0.22841235  1
  O  O335  1  0.42788558  0.92466131  0.72992760  1
  O  O336  1  0.75772709  0.25803886  0.23127060  1
  O  O337  1  0.76198212  0.25381342  0.74001853  1
  O  O338  1  0.76251480  0.59419014  0.23808137  1
  O  O339  1  0.75622248  0.60343143  0.71904754  1
  O  O340  1  0.75252096  0.92591313  0.24082007  1
  O  O341  1  0.76509514  0.92784868  0.71831050  1
  O  O342  1  0.06281585  0.09982030  0.22774101  1
  O  O343  1  0.08238943  0.08996928  0.72872389  1
  O  O344  1  0.07329561  0.41539209  0.22362010  1
  O  O345  1  0.07194859  0.42257478  0.72230085  1
  O  O346  1  0.06952971  0.76411108  0.24055178  1
  O  O347  1  0.07429913  0.77265615  0.72888068  1
  O  O348  1  0.39494422  0.10308118  0.22112736  1
  O  O349  1  0.39798052  0.09631601  0.73785172  1
  O  O350  1  0.39652684  0.42765297  0.21753313  1
  O  O351  1  0.41914785  0.42777457  0.72774871  1
  O  O352  1  0.40112831  0.76876402  0.22402402  1
  O  O353  1  0.40456897  0.76722895  0.72680396  1
  O  O354  1  0.73989413  0.09313244  0.23388969  1
  O  O355  1  0.74583065  0.09073081  0.73477335  1
  O  O356  1  0.73506718  0.42690579  0.23784626  1
  O  O357  1  0.73370800  0.43799445  0.72635396  1
  O  O358  1  0.73702069  0.75191062  0.23932504  1
  O  O359  1  0.72535767  0.76370881  0.72263336  1
