# generated using pymatgen
data_BaLaInIrO6
_symmetry_space_group_name_H-M   'P 1'
_cell_length_a   17.53848352
_cell_length_b   17.56297555
_cell_length_c   16.50437441
_cell_angle_alpha   89.98494828
_cell_angle_beta   90.03203466
_cell_angle_gamma   89.95325760
_symmetry_Int_Tables_number   1
_chemical_formula_structural   BaLaInIrO6
_chemical_formula_sum   'Ba36 La36 In36 Ir36 O216'
_cell_volume   5083.80606928
_cell_formula_units_Z   36
loop_
 _symmetry_equiv_pos_site_id
 _symmetry_equiv_pos_as_xyz
  1  'x, y, z'
loop_
 _atom_site_type_symbol
 _atom_site_label
 _atom_site_symmetry_multiplicity
 _atom_site_fract_x
 _atom_site_fract_y
 _atom_site_fract_z
 _atom_site_occupancy
  Ba  Ba0  1  0.16474457  0.99325323  0.87270375  1
  Ba  Ba1  1  0.50119744  0.67779138  0.62447181  1
  Ba  Ba2  1  1.00081175  0.83646103  0.62642832  1
  Ba  Ba3  1  0.83293049  0.34224384  0.62612829  1
  Ba  Ba4  1  0.83496686  0.65637164  0.87305909  1
  Ba  Ba5  1  0.66672403  0.51020843  0.12466249  1
  Ba  Ba6  1  0.83263731  0.32524353  0.37691295  1
  Ba  Ba7  1  0.16337808  0.32450454  0.87572641  1
  Ba  Ba8  1  0.16677611  0.67725731  0.12068666  1
  Ba  Ba9  1  0.83451778  0.00701260  0.12496959  1
  Ba  Ba10  1  0.83818478  0.65633454  0.37601073  1
  Ba  Ba11  1  0.33537024  0.48862579  0.38327323  1
  Ba  Ba12  1  0.16751184  0.34219273  0.12600920  1
  Ba  Ba13  1  0.66910123  0.15477411  0.87597642  1
  Ba  Ba14  1  -0.00259460  0.49202148  0.87530979  1
  Ba  Ba15  1  0.16432926  0.00486188  0.62703469  1
  Ba  Ba16  1  0.16392388  0.34086565  0.62731908  1
  Ba  Ba17  1  0.49638851  0.33936790  0.12178015  1
  Ba  Ba18  1  1.00076895  0.17261997  0.62849626  1
  Ba  Ba19  1  0.83395762  0.67839536  0.12059802  1
  Ba  Ba20  1  0.49910798  0.01396153  0.62403494  1
  Ba  Ba21  1  0.16715750  0.99383125  0.37368545  1
  Ba  Ba22  1  0.33375807  0.84536444  0.62024420  1
  Ba  Ba23  1  0.32843396  0.49110013  0.87098212  1
  Ba  Ba24  1  0.83241303  0.67438677  0.62697242  1
  Ba  Ba25  1  0.83206788  0.99245548  0.87657003  1
  Ba  Ba26  1  0.66578628  0.17143777  0.12254551  1
  Ba  Ba27  1  0.50058530  0.65534508  0.38178135  1
  Ba  Ba28  1  0.17217010  0.65526178  0.37813190  1
  Ba  Ba29  1  0.66580636  0.48988070  0.37610272  1
  Ba  Ba30  1  0.50102614  0.99339426  0.37203739  1
  Ba  Ba31  1  0.49808507  0.01710988  0.12459136  1
  Ba  Ba32  1  0.33606947  0.17883567  0.12931882  1
  Ba  Ba33  1  0.33433341  0.82834598  0.87485606  1
  Ba  Ba34  1  0.66852576  0.17859015  0.63035132  1
  Ba  Ba35  1  0.99911951  0.50454509  0.62441409  1
  La  La36  1  -0.00272966  0.15396248  0.38031303  1
  La  La37  1  0.50313561  0.31293232  0.87354868  1
  La  La38  1  0.66232850  0.15275349  0.37358630  1
  La  La39  1  1.00478925  0.51686548  0.12702108  1
  La  La40  1  0.17155848  0.32129252  0.38400955  1
  La  La41  1  0.33524485  0.15814262  0.37503256  1
  La  La42  1  -0.00197925  0.81970536  0.37600091  1
  La  La43  1  0.67349344  0.51415459  0.62190641  1
  La  La44  1  0.33336843  0.51515244  0.62491328  1
  La  La45  1  0.66313030  0.81705303  0.37253064  1
  La  La46  1  -0.00720751  0.81998670  0.86946248  1
  La  La47  1  0.16201741  0.01336011  0.12121631  1
  La  La48  1  0.32947646  0.15518779  0.88002666  1
  La  La49  1  0.66919858  0.84964907  0.12675371  1
  La  La50  1  0.66101166  0.48007770  0.87025186  1
  La  La51  1  0.50696824  0.32158051  0.37143231  1
  La  La52  1  0.33467200  0.17711375  0.62638827  1
  La  La53  1  0.49387770  0.67575288  0.13118747  1
  La  La54  1  0.32920099  0.82001921  0.37397683  1
  La  La55  1  0.50816727  0.64951760  0.87828501  1
  La  La56  1  0.16708485  0.64993584  0.86964694  1
  La  La57  1  0.83710144  0.98791928  0.37265589  1
  La  La58  1  -0.00441691  0.48448115  0.37332773  1
  La  La59  1  0.33472239  0.85137099  0.12256736  1
  La  La60  1  0.33846312  0.50248418  0.13384727  1
  La  La61  1  0.16176564  0.67666733  0.62962417  1
  La  La62  1  0.82234580  0.34540273  0.11941595  1
  La  La63  1  0.66166878  0.82545455  0.88016451  1
  La  La64  1  0.49659630  0.34317256  0.62256647  1
  La  La65  1  0.82684998  0.01487406  0.62726221  1
  La  La66  1  -0.00638713  0.15344651  0.87350385  1
  La  La67  1  1.00447285  0.17759944  0.12274700  1
  La  La68  1  0.83867629  0.31865233  0.87039345  1
  La  La69  1  0.67391961  0.84891942  0.62080790  1
  La  La70  1  1.00265517  0.84593712  0.12274713  1
  La  La71  1  0.50411627  0.99054489  0.87691495  1
  In  In72  1  0.83294307  0.49865642  0.49938305  1
  In  In73  1  0.49811424  0.83158463  0.00262645  1
  In  In74  1  0.83535489  0.16450791  0.00139674  1
  In  In75  1  0.66732991  0.66708667  0.00014453  1
  In  In76  1  0.16701113  0.49983777  0.00275675  1
  In  In77  1  0.00156856  0.32856852  0.49972642  1
  In  In78  1  0.83336629  0.83238423  0.49918103  1
  In  In79  1  0.50080381  0.83890644  0.50021864  1
  In  In80  1  0.66798638  0.33069523  0.24718071  1
  In  In81  1  0.33488091  0.66731918  -0.00204214  1
  In  In82  1  0.33181003  0.33428433  -0.00249499  1
  In  In83  1  0.50161074  0.16853451  0.50180887  1
  In  In84  1  0.00012995  0.66977834  -0.00199708  1
  In  In85  1  0.33683819  0.00260774  0.75122309  1
  In  In86  1  0.83590367  0.49980069  0.24901335  1
  In  In87  1  0.33024748  0.66581491  0.24640485  1
  In  In88  1  0.16606602  0.16650799  0.75262398  1
  In  In89  1  0.33384150  0.66820497  0.50113015  1
  In  In90  1  0.50012809  0.49937674  -0.00114671  1
  In  In91  1  -0.00280302  -0.00109117  0.50177219  1
  In  In92  1  0.00490924  0.66778981  0.25266689  1
  In  In93  1  0.49926954  0.49733090  0.74731263  1
  In  In94  1  0.16555844  0.16786776  0.25080220  1
  In  In95  1  0.33657997  0.67044083  0.75028406  1
  In  In96  1  0.50227639  0.49818876  0.25291567  1
  In  In97  1  0.66718827  0.67039144  0.75066152  1
  In  In98  1  -0.00025870  0.32949873  0.25018904  1
  In  In99  1  0.16717805  0.83554591  0.49849703  1
  In  In100  1  0.49879836  0.83529378  0.24838380  1
  In  In101  1  -0.00517292  0.33281099  0.00292892  1
  In  In102  1  0.83607097  0.16568616  0.25082662  1
  In  In103  1  0.16646971  0.83221454  0.75549976  1
  In  In104  1  0.33114451  0.00086268  0.24994753  1
  In  In105  1  0.83246263  0.83300329  0.24877710  1
  In  In106  1  0.83252558  0.49842330  -0.00318598  1
  In  In107  1  0.66447099  0.00079665  0.75037701  1
  Ir  Ir108  1  0.66588240  -0.00277861  0.00210072  1
  Ir  Ir109  1  0.33502244  0.33353176  0.50261658  1
  Ir  Ir110  1  0.82841641  0.49735480  0.74900044  1
  Ir  Ir111  1  0.49715148  0.16577104  -0.00242641  1
  Ir  Ir112  1  0.83183249  0.83654717  0.74953540  1
  Ir  Ir113  1  0.33540731  0.33309656  0.74584564  1
  Ir  Ir114  1  0.66405682  0.66934910  0.25055569  1
  Ir  Ir115  1  0.00129562  -0.00149578  0.24840243  1
  Ir  Ir116  1  0.16641707  0.49579029  0.74514647  1
  Ir  Ir117  1  0.00614196  0.66358528  0.50198952  1
  Ir  Ir118  1  0.66562548  0.66666333  0.49945946  1
  Ir  Ir119  1  0.33301253  0.00839629  0.49881411  1
  Ir  Ir120  1  0.66490807  0.32940518  -0.00611080  1
  Ir  Ir121  1  0.49903713  0.17046428  0.25179012  1
  Ir  Ir122  1  0.00008080  0.66333153  0.74671862  1
  Ir  Ir123  1  0.33167156  0.00345251  -0.00017342  1
  Ir  Ir124  1  0.83271646  0.83836573  -0.00398126  1
  Ir  Ir125  1  0.16453827  0.83863414  0.00102194  1
  Ir  Ir126  1  0.16474089  0.16229394  -0.00024524  1
  Ir  Ir127  1  0.82688644  0.16422845  0.49946024  1
  Ir  Ir128  1  0.83446645  0.16854804  0.74740697  1
  Ir  Ir129  1  0.66375059  0.32995654  0.50336623  1
  Ir  Ir130  1  0.33336319  0.33397935  0.25937037  1
  Ir  Ir131  1  0.66836319  0.00193411  0.25193741  1
  Ir  Ir132  1  0.16992950  0.16661717  0.49975309  1
  Ir  Ir133  1  0.00216687  -0.00320691  -0.00059917  1
  Ir  Ir134  1  0.67161477  0.00132218  0.49718759  1
  Ir  Ir135  1  0.16521093  0.83779990  0.24629317  1
  Ir  Ir136  1  0.50297378  0.49353485  0.50593345  1
  Ir  Ir137  1  0.16701274  0.49750321  0.50034828  1
  Ir  Ir138  1  0.66526455  0.33096685  0.75073484  1
  Ir  Ir139  1  0.16864297  0.49639499  0.25386906  1
  Ir  Ir140  1  0.49801259  0.17159830  0.75209478  1
  Ir  Ir141  1  -0.00591910  -0.00122438  0.75258980  1
  Ir  Ir142  1  -0.00112871  0.33365601  0.75117015  1
  Ir  Ir143  1  0.50421014  0.83696649  0.75113945  1
  O  O144  1  0.31747812  0.33311202  0.13736487  1
  O  O145  1  0.31163343  0.31499653  0.62394253  1
  O  O146  1  0.31264245  0.63838335  0.12227699  1
  O  O147  1  0.29983062  0.66327927  0.62542316  1
  O  O148  1  0.29926230  0.99542463  0.11900808  1
  O  O149  1  0.31674239  1.00969558  0.61898277  1
  O  O150  1  0.64526293  0.32681973  0.11315721  1
  O  O151  1  0.63314488  0.32886994  0.62758283  1
  O  O152  1  0.63257465  0.66732669  0.13093093  1
  O  O153  1  0.64948941  0.65634241  0.62121790  1
  O  O154  1  0.64450552  0.98845781  0.12877828  1
  O  O155  1  0.64897193  0.98943312  0.61905298  1
  O  O156  1  0.95784816  0.31259642  0.12659936  1
  O  O157  1  0.98433790  0.33017814  0.63044383  1
  O  O158  1  0.98474816  0.66029828  0.12625923  1
  O  O159  1  0.98031376  0.65962329  0.62401320  1
  O  O160  1  0.98132586  0.98091129  0.12366952  1
  O  O161  1  0.96337033  0.99520939  0.63176810  1
  O  O162  1  0.18758799  0.15364273  0.11860522  1
  O  O163  1  0.19859306  0.16282938  0.62115840  1
  O  O164  1  0.20156113  0.49511081  0.13518463  1
  O  O165  1  0.19706117  0.49438287  0.62186822  1
  O  O166  1  0.19732908  0.83976257  0.12368562  1
  O  O167  1  0.18297042  0.81918041  0.62742853  1
  O  O168  1  0.51833309  0.17099280  0.12318244  1
  O  O169  1  0.51835273  0.17517696  0.63136741  1
  O  O170  1  0.51758583  0.49449729  0.12531694  1
  O  O171  1  0.53693048  0.48222370  0.62330270  1
  O  O172  1  0.53633749  0.81951125  0.12568076  1
  O  O173  1  0.53562717  0.83669208  0.62997346  1
  O  O174  1  0.86847914  0.15864932  0.12530105  1
  O  O175  1  0.85259105  0.15336457  0.62278858  1
  O  O176  1  0.86901502  0.48244559  0.12358054  1
  O  O177  1  0.84539128  0.49970577  0.62911282  1
  O  O178  1  0.86330051  0.83737659  0.11762149  1
  O  O179  1  0.85157584  0.83602079  0.62915386  1
  O  O180  1  0.13692704  0.17520461  0.37962582  1
  O  O181  1  0.13282322  0.16552744  0.88139297  1
  O  O182  1  0.13503429  0.49688874  0.37667058  1
  O  O183  1  0.14653402  0.50560421  0.86462460  1
  O  O184  1  0.13275524  0.83820015  0.36494281  1
  O  O185  1  0.12981823  0.83963130  0.88319645  1
  O  O186  1  0.47350681  0.17708699  0.37326119  1
  O  O187  1  0.46781772  0.16931035  0.87419665  1
  O  O188  1  0.48591195  0.49482592  0.38606353  1
  O  O189  1  0.47737430  0.50918383  0.87184408  1
  O  O190  1  0.46721527  0.83856860  0.37366266  1
  O  O191  1  0.48525041  0.85145206  0.87252447  1
  O  O192  1  0.79789876  0.16644110  0.38131517  1
  O  O193  1  0.81873518  0.17509959  0.86874564  1
  O  O194  1  0.81382063  0.50250972  0.37556686  1
  O  O195  1  0.79920722  0.49513274  0.86641205  1
  O  O196  1  0.79836653  0.84559962  0.37462398  1
  O  O197  1  0.79994616  0.83845072  0.87305454  1
  O  O198  1  0.01900538  0.01651886  0.36812703  1
  O  O199  1  0.01893275  0.01420545  0.87617123  1
  O  O200  1  0.03785699  0.33890621  0.37603959  1
  O  O201  1  0.01347221  0.33533737  0.87057304  1
  O  O202  1  0.02535370  0.67943300  0.38227618  1
  O  O203  1  0.02785926  0.67433194  0.86747287  1
  O  O204  1  0.35244315  0.01798303  0.37945425  1
  O  O205  1  0.36790847  0.01287899  0.88087659  1
  O  O206  1  0.36636445  0.33423151  0.38194803  1
  O  O207  1  0.36554131  0.33797485  0.86480258  1
  O  O208  1  0.35017308  0.67819514  0.37252899  1
  O  O209  1  0.37328552  0.67130628  0.87282631  1
  O  O210  1  0.70022682  0.01386530  0.37518202  1
  O  O211  1  0.67896318  -0.00635599  0.88052698  1
  O  O212  1  0.68292049  0.33200325  0.38405966  1
  O  O213  1  0.69824815  0.33629438  0.87205262  1
  O  O214  1  0.69005133  0.68068295  0.37463394  1
  O  O215  1  0.69029557  0.69282565  0.87337152  1
  O  O216  1  0.07172527  0.09048594  0.02833223  1
  O  O217  1  0.07799253  0.09567083  0.51510042  1
  O  O218  1  0.06377495  0.43013563  0.02784617  1
  O  O219  1  0.07962820  0.42828692  0.51351793  1
  O  O220  1  0.06943487  0.77572965  0.02130411  1
  O  O221  1  0.07895055  0.74824695  0.52056080  1
  O  O222  1  0.39962616  0.09898362  0.01621732  1
  O  O223  1  0.39655094  0.10700099  0.51584482  1
  O  O224  1  0.39726801  0.43456427  0.02240459  1
  O  O225  1  0.40490633  0.42668547  0.53344050  1
  O  O226  1  0.39677200  0.76957875  0.03009193  1
  O  O227  1  0.41340644  0.75893788  0.51747607  1
  O  O228  1  0.73938759  0.08628938  0.01247074  1
  O  O229  1  0.73780355  0.09290277  0.52391514  1
  O  O230  1  0.73084415  0.42018281  0.01259346  1
  O  O231  1  0.72909044  0.42375909  0.52578157  1
  O  O232  1  0.73714901  0.77504556  0.02153405  1
  O  O233  1  0.73152374  0.76272390  0.51784560  1
  O  O234  1  0.09120516  0.24842934  0.02295829  1
  O  O235  1  0.10026232  0.25450750  0.51537387  1
  O  O236  1  0.09060923  0.59117428  0.01648784  1
  O  O237  1  0.10239380  0.59426524  0.52601292  1
  O  O238  1  0.09730338  0.93126593  0.02742779  1
  O  O239  1  0.08880905  0.92418144  0.51427939  1
  O  O240  1  0.42937828  0.25930068  0.00423072  1
  O  O241  1  0.42974444  0.26917091  0.52161719  1
  O  O242  1  0.44623694  0.61122306  0.01615584  1
  O  O243  1  0.42750761  0.58064818  0.52438664  1
  O  O244  1  0.42013801  0.93152070  0.01962118  1
  O  O245  1  0.42417463  0.93909656  0.51436233  1
  O  O246  1  0.76062419  0.26389677  0.01517753  1
  O  O247  1  0.75838591  0.26061771  0.52169957  1
  O  O248  1  0.76007818  0.59322733  0.01807844  1
  O  O249  1  0.75295273  0.59326687  0.51648262  1
  O  O250  1  0.75626371  0.92500145  0.02419247  1
  O  O251  1  0.76402969  0.93500540  0.52350075  1
  O  O252  1  0.24077648  0.07774826  0.26378088  1
  O  O253  1  0.24966393  0.08401983  0.77837260  1
  O  O254  1  0.23412101  0.39719311  0.28000876  1
  O  O255  1  0.23807538  0.40105671  0.76408514  1
  O  O256  1  0.23428596  0.74826609  0.26555431  1
  O  O257  1  0.23365077  0.73151021  0.77909961  1
  O  O258  1  0.57617909  0.07879639  0.27232101  1
  O  O259  1  0.56353802  0.07357474  0.77298086  1
  O  O260  1  0.56953481  0.39826794  0.27204092  1
  O  O261  1  0.57234695  0.39618608  0.77532002  1
  O  O262  1  0.57572061  0.73940610  0.27440379  1
  O  O263  1  0.56480192  0.74140548  0.77409212  1
  O  O264  1  0.90581217  0.06191249  0.27498163  1
  O  O265  1  0.90803579  0.07844365  0.77143592  1
  O  O266  1  0.91700652  0.40966272  0.28093140  1
  O  O267  1  0.89909522  0.40137599  0.77157938  1
  O  O268  1  0.91346971  0.74812394  0.27488465  1
  O  O269  1  0.91021720  0.74396463  0.77214974  1
  O  O270  1  0.26423854  0.24272069  0.28312445  1
  O  O271  1  0.27126132  0.24036626  0.77096422  1
  O  O272  1  0.25856657  0.56282517  0.27257374  1
  O  O273  1  0.25235304  0.56813295  0.75840530  1
  O  O274  1  0.26054027  0.89937202  0.27300521  1
  O  O275  1  0.25809079  0.91185528  0.76277178  1
  O  O276  1  0.59332621  0.23489694  0.27654220  1
  O  O277  1  0.59194645  0.24068439  0.77741051  1
  O  O278  1  0.59724819  0.57933020  0.26957937  1
  O  O279  1  0.59689638  0.57064020  0.77203719  1
  O  O280  1  0.60329527  0.90670419  0.27145449  1
  O  O281  1  0.60020187  0.89818518  0.77010104  1
  O  O282  1  0.93492600  0.22711934  0.28518655  1
  O  O283  1  0.92825110  0.24061041  0.77427169  1
  O  O284  1  0.93867774  0.56773019  0.26930256  1
  O  O285  1  0.92149670  0.56842827  0.76634693  1
  O  O286  1  0.93583329  0.90654085  0.27434052  1
  O  O287  1  0.92559404  0.90381085  0.77739491  1
  O  O288  1  0.26605031  0.23847415  0.47401622  1
  O  O289  1  0.25796949  0.23171222  0.97645776  1
  O  O290  1  0.25826559  0.56697449  0.49156713  1
  O  O291  1  0.25054871  0.58468853  0.96707911  1
  O  O292  1  0.26860591  0.91350816  0.47529291  1
  O  O293  1  0.26125927  0.90719389  0.98358244  1
  O  O294  1  0.59714372  0.23901134  0.47434251  1
  O  O295  1  0.58925401  0.23771229  0.97162857  1
  O  O296  1  0.59831026  0.56460809  0.49126803  1
  O  O297  1  0.60140434  0.56671062  0.96463866  1
  O  O298  1  0.60792136  0.90598012  0.47531101  1
  O  O299  1  0.59706685  0.90623142  0.98639904  1
  O  O300  1  0.92417145  0.22833799  0.47900765  1
  O  O301  1  0.93264123  0.23106486  0.97170890  1
  O  O302  1  0.93771292  0.57365750  0.47803928  1
  O  O303  1  0.92579309  0.57504901  0.98530010  1
  O  O304  1  0.92443915  0.90730476  0.46250903  1
  O  O305  1  0.93483744  0.90232658  0.97272001  1
  O  O306  1  0.24374417  0.08195526  0.47438338  1
  O  O307  1  0.24146267  0.07528377  0.97504683  1
  O  O308  1  0.23549702  0.40006930  0.47943187  1
  O  O309  1  0.23613719  0.40400830  0.98423322  1
  O  O310  1  0.24940388  0.75357375  0.47206639  1
  O  O311  1  0.22763803  0.74615678  0.97562158  1
  O  O312  1  0.58143777  0.07476488  0.47822881  1
  O  O313  1  0.56758861  0.06633886  0.97963634  1
  O  O314  1  0.56505969  0.39199634  0.48466811  1
  O  O315  1  0.57319649  0.39638156  0.96582251  1
  O  O316  1  0.58230560  0.74296907  0.48109410  1
  O  O317  1  0.56874948  0.73719967  0.97101233  1
  O  O318  1  0.89545089  0.07106426  0.47668075  1
  O  O319  1  0.91544824  0.06949816  0.98129704  1
  O  O320  1  0.91456723  0.41007237  0.48341466  1
  O  O321  1  0.88958991  0.39174895  0.97796446  1
  O  O322  1  0.91859282  0.74062799  0.48464568  1
  O  O323  1  0.90739054  0.75298146  0.97325157  1
  O  O324  1  0.08860163  0.25241380  0.22003404  1
  O  O325  1  0.08809277  0.25988462  0.73735673  1
  O  O326  1  0.10187041  0.58763781  0.23206469  1
  O  O327  1  0.09957750  0.59498752  0.72740441  1
  O  O328  1  0.09920074  0.93380212  0.22135055  1
  O  O329  1  0.07905034  0.92369831  0.73774411  1
  O  O330  1  0.43256176  0.26839819  0.24340324  1
  O  O331  1  0.43409683  0.26983294  0.72889959  1
  O  O332  1  0.43024961  0.59360469  0.23040767  1
  O  O333  1  0.41864746  0.58508150  0.71765282  1
  O  O334  1  0.41971479  0.92540656  0.22111322  1
  O  O335  1  0.44048662  0.93388804  0.74072112  1
  O  O336  1  0.76608975  0.26165671  0.22384206  1
  O  O337  1  0.76248129  0.26185882  0.73399200  1
  O  O338  1  0.75604122  0.60219067  0.23269509  1
  O  O339  1  0.75823435  0.58666386  0.73088287  1
  O  O340  1  0.75810386  0.93117275  0.23456442  1
  O  O341  1  0.76441146  0.92828776  0.72474522  1
  O  O342  1  0.06588443  0.09025572  0.22226179  1
  O  O343  1  0.07056415  0.08527491  0.73557065  1
  O  O344  1  0.07465953  0.43468239  0.22658426  1
  O  O345  1  0.07164502  0.42519274  0.73320396  1
  O  O346  1  0.07114468  0.77460425  0.22502568  1
  O  O347  1  0.07321274  0.74902108  0.73227086  1
  O  O348  1  0.40815997  0.10024386  0.24126013  1
  O  O349  1  0.40375573  0.10886735  0.72954265  1
  O  O350  1  0.39714817  0.42740889  0.23948900  1
  O  O351  1  0.40138855  0.42243334  0.71432787  1
  O  O352  1  0.40214461  0.76246807  0.21584901  1
  O  O353  1  0.41244157  0.77169369  0.73053974  1
  O  O354  1  0.73557109  0.09291979  0.23851493  1
  O  O355  1  0.74784670  0.09020545  0.73243834  1
  O  O356  1  0.74596936  0.42037718  0.22410544  1
  O  O357  1  0.72885462  0.43076084  0.72810947  1
  O  O358  1  0.72890474  0.76586169  0.22902197  1
  O  O359  1  0.73677112  0.77306848  0.72493023  1
