# generated using pymatgen
data_BaLaInIrO6
_symmetry_space_group_name_H-M   'P 1'
_cell_length_a   17.53104848
_cell_length_b   17.55836942
_cell_length_c   16.48954721
_cell_angle_alpha   89.95340330
_cell_angle_beta   89.97416252
_cell_angle_gamma   89.94771853
_symmetry_Int_Tables_number   1
_chemical_formula_structural   BaLaInIrO6
_chemical_formula_sum   'Ba36 La36 In36 Ir36 O216'
_cell_volume   5075.75247292
_cell_formula_units_Z   36
loop_
 _symmetry_equiv_pos_site_id
 _symmetry_equiv_pos_as_xyz
  1  'x, y, z'
loop_
 _atom_site_type_symbol
 _atom_site_label
 _atom_site_symmetry_multiplicity
 _atom_site_fract_x
 _atom_site_fract_y
 _atom_site_fract_z
 _atom_site_occupancy
  Ba  Ba0  1  0.66455469  0.82433459  0.87952410  1
  Ba  Ba1  1  0.49874057  0.66451452  0.37369447  1
  Ba  Ba2  1  0.50623578  0.99404271  0.37029781  1
  Ba  Ba3  1  0.32962391  0.50675962  0.12603533  1
  Ba  Ba4  1  0.33260176  0.17073942  0.12624101  1
  Ba  Ba5  1  0.33015034  0.49255611  0.87804539  1
  Ba  Ba6  1  0.66550105  0.15590631  0.86765595  1
  Ba  Ba7  1  0.16782799  0.33858720  0.62345707  1
  Ba  Ba8  1  0.83037975  0.34005704  0.62841215  1
  Ba  Ba9  1  0.66695600  0.82282214  0.37316543  1
  Ba  Ba10  1  -0.00168289  0.49274007  0.87622748  1
  Ba  Ba11  1  0.16555385  0.00839426  0.12639016  1
  Ba  Ba12  1  0.33054975  0.84143786  0.12284028  1
  Ba  Ba13  1  0.33438941  0.84314322  0.62437596  1
  Ba  Ba14  1  0.83872075  0.65640457  0.87367517  1
  Ba  Ba15  1  0.83692195  0.65539870  0.37408919  1
  Ba  Ba16  1  0.49879919  0.66286909  0.87628266  1
  Ba  Ba17  1  0.16884517  0.99374358  0.37079581  1
  Ba  Ba18  1  -0.00175919  0.16302131  0.87150502  1
  Ba  Ba19  1  0.33486143  0.82598230  0.87195047  1
  Ba  Ba20  1  0.66804057  0.50955590  0.62342969  1
  Ba  Ba21  1  0.16359903  0.32380180  0.37871611  1
  Ba  Ba22  1  -0.00473839  0.48966093  0.37539874  1
  Ba  Ba23  1  1.00307504  0.17609279  0.12885642  1
  Ba  Ba24  1  0.49674816  0.34108706  0.12802515  1
  Ba  Ba25  1  0.33279304  0.15865247  0.37193222  1
  Ba  Ba26  1  -0.00041298  0.15382210  0.37914310  1
  Ba  Ba27  1  0.16493455  0.99040086  0.87660392  1
  Ba  Ba28  1  0.33448587  0.82865001  0.37473032  1
  Ba  Ba29  1  0.66559467  0.17794196  0.62134194  1
  Ba  Ba30  1  0.33216809  0.15696841  0.87401229  1
  Ba  Ba31  1  0.83555525  0.98358641  0.37439849  1
  Ba  Ba32  1  0.66934623  0.49248468  0.37395682  1
  Ba  Ba33  1  0.50232741  0.99202160  0.87551115  1
  Ba  Ba34  1  0.83071664  0.01514994  0.12713929  1
  Ba  Ba35  1  0.17057798  0.00456570  0.62467100  1
  La  La36  1  0.16313513  0.34224199  0.13108252  1
  La  La37  1  0.82555052  0.01617557  0.62031019  1
  La  La38  1  0.50296174  0.32007041  0.88063642  1
  La  La39  1  0.66524940  0.15335220  0.37715040  1
  La  La40  1  1.00056443  0.84297007  0.62543263  1
  La  La41  1  0.83327355  0.32058886  0.87394795  1
  La  La42  1  0.16021541  0.68239241  0.12511896  1
  La  La43  1  0.32721069  0.48633197  0.37461377  1
  La  La44  1  0.83251265  0.34441290  0.12476687  1
  La  La45  1  0.17173734  0.64795404  0.37637326  1
  La  La46  1  0.67241959  0.85280736  0.12697830  1
  La  La47  1  -0.01013526  0.81584116  0.37077308  1
  La  La48  1  0.17393478  0.31634101  0.87861914  1
  La  La49  1  0.66848952  0.51778397  0.12587738  1
  La  La50  1  0.33917740  0.51887612  0.62730646  1
  La  La51  1  0.83121487  0.68369380  0.12756966  1
  La  La52  1  0.49182850  0.34855872  0.62537308  1
  La  La53  1  0.49790763  0.68488365  0.62483000  1
  La  La54  1  0.67257499  0.18001615  0.12408161  1
  La  La55  1  1.00483258  0.51852679  0.12749065  1
  La  La56  1  0.83979224  0.31811347  0.38129993  1
  La  La57  1  0.16345238  0.67910209  0.62651988  1
  La  La58  1  1.00332956  0.51725885  0.62145744  1
  La  La59  1  0.66136316  0.48608899  0.87634219  1
  La  La60  1  -0.00751185  0.81898813  0.87476114  1
  La  La61  1  0.49959603  0.32166965  0.37672357  1
  La  La62  1  0.49783514  0.01526019  0.12115273  1
  La  La63  1  0.66999836  0.84683975  0.62109772  1
  La  La64  1  0.84204153  0.98331235  0.87716371  1
  La  La65  1  0.17078877  0.65509552  0.87461693  1
  La  La66  1  0.33819384  0.17756392  0.62408018  1
  La  La67  1  1.00610602  0.84961532  0.12515760  1
  La  La68  1  0.83063203  0.67958620  0.61935420  1
  La  La69  1  0.49367978  0.01598742  0.62595441  1
  La  La70  1  1.00272544  0.18297510  0.62328813  1
  La  La71  1  0.49784420  0.67853453  0.12686177  1
  In  In72  1  0.83299934  0.50010576  -0.00019294  1
  In  In73  1  0.33165554  0.66708589  0.00242852  1
  In  In74  1  0.67208305  0.00383064  -0.00420938  1
  In  In75  1  0.50092612  0.50073308  0.25140533  1
  In  In76  1  -0.00099826  0.33567564  0.00096673  1
  In  In77  1  0.50480273  0.83414483  0.00285107  1
  In  In78  1  0.16275814  0.82994714  0.25688281  1
  In  In79  1  0.16536070  0.16835938  0.25174625  1
  In  In80  1  0.50387618  0.83534761  0.24599635  1
  In  In81  1  0.33712856  -0.00165825  0.24726780  1
  In  In82  1  0.66411833  0.33543801  0.74942762  1
  In  In83  1  0.67024364  0.66507648  0.75055974  1
  In  In84  1  0.16371677  0.49913011  0.00134265  1
  In  In85  1  0.50025614  0.50239284  0.75286646  1
  In  In86  1  0.33257136  -0.00174998  0.75094147  1
  In  In87  1  0.83403103  0.50008711  0.50261820  1
  In  In88  1  0.49945770  0.50330180  0.49897623  1
  In  In89  1  0.50328277  0.83839297  0.49955051  1
  In  In90  1  0.16720379  0.16376458  0.50142826  1
  In  In91  1  0.33279078  0.33582425  0.75343714  1
  In  In92  1  0.50570040  0.17178115  0.24809998  1
  In  In93  1  0.33322915  -0.00085541  -0.00080603  1
  In  In94  1  0.33067375  0.66548343  0.24798252  1
  In  In95  1  0.83134328  0.83315484  0.74722455  1
  In  In96  1  0.33161376  0.66936932  0.50126263  1
  In  In97  1  0.16471274  0.49885315  0.74738797  1
  In  In98  1  0.83112122  0.16417582  0.74999745  1
  In  In99  1  0.16599036  0.16480481  0.74729242  1
  In  In100  1  0.33585317  0.00099003  0.49824049  1
  In  In101  1  0.50142800  0.50060405  0.00384150  1
  In  In102  1  -0.00130155  0.00491495  -0.00067743  1
  In  In103  1  -0.00343366  -0.00008553  0.25237820  1
  In  In104  1  0.83410894  0.49805502  0.24777775  1
  In  In105  1  0.66504959  0.33453670  0.49731071  1
  In  In106  1  0.00032578  0.33842455  0.75030769  1
  In  In107  1  -0.00391248  -0.00060842  0.74651105  1
  Ir  Ir108  1  -0.00143567  0.67034789  0.00154821  1
  Ir  Ir109  1  0.33521295  0.33614349  0.50025027  1
  Ir  Ir110  1  0.15794347  0.82940440  -0.00549816  1
  Ir  Ir111  1  0.33090831  0.33713842  0.25154042  1
  Ir  Ir112  1  0.00124913  0.66568311  0.24678720  1
  Ir  Ir113  1  0.66971951  0.66636458  0.24733145  1
  Ir  Ir114  1  0.16000043  0.82720463  0.74848634  1
  Ir  Ir115  1  0.83469167  0.50284903  0.75098530  1
  Ir  Ir116  1  0.50343331  0.17153342  0.50138966  1
  Ir  Ir117  1  -0.00693845  0.33326069  0.25195902  1
  Ir  Ir118  1  0.16863357  0.49736288  0.50070665  1
  Ir  Ir119  1  0.66555972  -0.00177596  0.74236886  1
  Ir  Ir120  1  0.33365137  0.33060704  0.00329618  1
  Ir  Ir121  1  0.67269417  0.00373718  0.25103518  1
  Ir  Ir122  1  0.50666610  0.83311286  0.74711847  1
  Ir  Ir123  1  0.66957511  0.00198053  0.50156988  1
  Ir  Ir124  1  -0.00049009  0.66655025  0.74775525  1
  Ir  Ir125  1  0.83066663  0.17104141  0.00340807  1
  Ir  Ir126  1  0.83534669  0.83053702  0.00289942  1
  Ir  Ir127  1  0.83482295  0.82852467  0.24815084  1
  Ir  Ir128  1  0.66767580  0.33406104  0.00434847  1
  Ir  Ir129  1  0.16213086  0.49707156  0.25350191  1
  Ir  Ir130  1  0.66736801  0.66898190  0.49938423  1
  Ir  Ir131  1  0.50200723  0.16795339  0.74804262  1
  Ir  Ir132  1  0.66994650  0.33233040  0.24869060  1
  Ir  Ir133  1  -0.00282530  0.33260348  0.49859403  1
  Ir  Ir134  1  -0.00656718  -0.00638773  0.50387295  1
  Ir  Ir135  1  0.33047577  0.66984583  0.74757786  1
  Ir  Ir136  1  0.16794487  0.17289791  0.00219790  1
  Ir  Ir137  1  0.15572673  0.82944239  0.50383763  1
  Ir  Ir138  1  0.50570053  0.17133914  -0.00298228  1
  Ir  Ir139  1  0.67210226  0.66601215  0.00527350  1
  Ir  Ir140  1  0.83038782  0.17184616  0.24976961  1
  Ir  Ir141  1  0.83700521  0.82982423  0.49844397  1
  Ir  Ir142  1  0.83527822  0.16380885  0.49726272  1
  Ir  Ir143  1  0.00366572  0.66672910  0.50220238  1
  O  O144  1  0.30099232  0.33119455  0.12828844  1
  O  O145  1  0.32193615  0.31931615  0.61975526  1
  O  O146  1  0.29199861  0.66712414  0.12564866  1
  O  O147  1  0.29979605  0.66404195  0.62804461  1
  O  O148  1  0.31380417  1.00086232  0.12094851  1
  O  O149  1  0.32482933  1.00260105  0.62570247  1
  O  O150  1  0.64349027  0.31650187  0.12674590  1
  O  O151  1  0.63009088  0.33376045  0.62401108  1
  O  O152  1  0.63881366  0.65687119  0.12649444  1
  O  O153  1  0.63826581  0.66551481  0.61782579  1
  O  O154  1  0.64767651  1.00011611  0.13042439  1
  O  O155  1  0.63275905  0.99155822  0.62209912  1
  O  O156  1  0.96788563  0.32987632  0.13245345  1
  O  O157  1  0.97716799  0.32460354  0.61701603  1
  O  O158  1  0.96794913  0.65952979  0.12441867  1
  O  O159  1  0.96866004  0.65921503  0.62478162  1
  O  O160  1  0.97753495  0.98772401  0.12309091  1
  O  O161  1  0.95928546  0.97982879  0.62040310  1
  O  O162  1  0.18128225  0.17849882  0.12089851  1
  O  O163  1  0.20312288  0.16781036  0.62253599  1
  O  O164  1  0.17969664  0.48524787  0.13366196  1
  O  O165  1  0.20152935  0.49563580  0.61894653  1
  O  O166  1  0.17563371  0.81921223  0.11532121  1
  O  O167  1  0.18559785  0.81659550  0.62638611  1
  O  O168  1  0.53562575  0.16568593  0.11749837  1
  O  O169  1  0.52132659  0.15536828  0.62576144  1
  O  O170  1  0.53662074  0.48948228  0.12712361  1
  O  O171  1  0.52058477  0.48261699  0.62612205  1
  O  O172  1  0.54211095  0.81553600  0.12545534  1
  O  O173  1  0.53311310  0.82428137  0.62747727  1
  O  O174  1  0.85311459  0.17313745  0.12702361  1
  O  O175  1  0.86501950  0.15647475  0.61792029  1
  O  O176  1  0.86919530  0.48254839  0.12443786  1
  O  O177  1  0.86681374  0.49547264  0.63169841  1
  O  O178  1  0.86716755  0.82264068  0.12584262  1
  O  O179  1  0.86477231  0.82077667  0.61747824  1
  O  O180  1  0.14817392  0.17079750  0.37794743  1
  O  O181  1  0.14915107  0.17918791  0.88231393  1
  O  O182  1  0.14156101  0.50951370  0.37803050  1
  O  O183  1  0.14451704  0.51957859  0.87411473  1
  O  O184  1  0.12445395  0.83365144  0.38645939  1
  O  O185  1  0.12778303  0.83248736  0.87012222  1
  O  O186  1  0.48500684  0.17956736  0.38017210  1
  O  O187  1  0.48013562  0.18125247  0.87266613  1
  O  O188  1  0.46409600  0.50939871  0.37536778  1
  O  O189  1  0.48017425  0.50782508  0.87886559  1
  O  O190  1  0.48882454  0.83598750  0.37309446  1
  O  O191  1  0.48999692  0.83497423  0.86832156  1
  O  O192  1  0.80225543  0.17608588  0.37188558  1
  O  O193  1  0.81299436  0.17984033  0.88382222  1
  O  O194  1  0.82081314  0.50233620  0.37393730  1
  O  O195  1  0.80049018  0.50821371  0.87217406  1
  O  O196  1  0.81454666  0.82805086  0.37361544  1
  O  O197  1  0.81315038  0.83932295  0.88069790  1
  O  O198  1  0.01500588  -0.00378945  0.38538972  1
  O  O199  1  0.01104829  0.00362588  0.87435238  1
  O  O200  1  0.01572398  0.33488993  0.37392264  1
  O  O201  1  0.03677068  0.33821042  0.87604371  1
  O  O202  1  0.03420901  0.67528902  0.37430536  1
  O  O203  1  0.03015119  0.67833024  0.87427664  1
  O  O204  1  0.35639270  -0.00778073  0.37436298  1
  O  O205  1  0.35192206  -0.00760819  0.87513639  1
  O  O206  1  0.36232384  0.34863232  0.37598106  1
  O  O207  1  0.36459012  0.33364494  0.88351701  1
  O  O208  1  0.34313423  0.66636221  0.37581096  1
  O  O209  1  0.34581853  0.66988323  0.86794861  1
  O  O210  1  0.69313221  0.01626998  0.37747511  1
  O  O211  1  0.70278849  -0.00137777  0.86410645  1
  O  O212  1  0.70287896  0.33653066  0.36555908  1
  O  O213  1  0.69892007  0.34590697  0.88555066  1
  O  O214  1  0.69258582  0.66910784  0.37179410  1
  O  O215  1  0.69238603  0.67091909  0.88459469  1
  O  O216  1  0.07823629  0.10144823  0.01442742  1
  O  O217  1  0.05761241  0.08785562  0.52933562  1
  O  O218  1  0.06429061  0.43512200  0.02994349  1
  O  O219  1  0.06706053  0.42827591  0.52233356  1
  O  O220  1  0.06014111  0.76695738  0.01811802  1
  O  O221  1  0.06791929  0.75837362  0.53297976  1
  O  O222  1  0.42168332  0.09651458  0.01711462  1
  O  O223  1  0.40966019  0.10680461  0.52399208  1
  O  O224  1  0.40286914  0.41933575  0.02034144  1
  O  O225  1  0.39657403  0.43003204  0.52496156  1
  O  O226  1  0.41230296  0.75659794  0.01664145  1
  O  O227  1  0.41403755  0.75663233  0.52223693  1
  O  O228  1  0.73651213  0.10525197  0.02238978  1
  O  O229  1  0.74374998  0.09199098  0.52100350  1
  O  O230  1  0.73194331  0.42714868  0.03115514  1
  O  O231  1  0.74185356  0.42448222  0.51735136  1
  O  O232  1  0.74038802  0.76157891  0.03405146  1
  O  O233  1  0.74087366  0.76226597  0.52734587  1
  O  O234  1  0.10370012  0.27055442  0.01983335  1
  O  O235  1  0.08235232  0.25609391  0.51991010  1
  O  O236  1  0.09031006  0.60374997  0.02810169  1
  O  O237  1  0.09800724  0.59443337  0.52898088  1
  O  O238  1  0.08857534  0.91795245  0.01694910  1
  O  O239  1  0.08233601  0.91943564  0.53230266  1
  O  O240  1  0.43192692  0.26217133  0.01582399  1
  O  O241  1  0.43705942  0.27125867  0.51915092  1
  O  O242  1  0.43209578  0.59746841  0.02845665  1
  O  O243  1  0.42487456  0.59436808  0.53812552  1
  O  O244  1  0.43615939  0.93229893  0.02511525  1
  O  O245  1  0.43771736  0.93625990  0.52434049  1
  O  O246  1  0.76356202  0.26703059  0.02798548  1
  O  O247  1  0.76533045  0.25454110  0.51073406  1
  O  O248  1  0.76484310  0.59966355  0.03349978  1
  O  O249  1  0.76229381  0.60325524  0.52262576  1
  O  O250  1  0.76613391  0.92091624  0.02093279  1
  O  O251  1  0.76384860  0.92561713  0.52815393  1
  O  O252  1  0.24771626  0.08083587  0.25888080  1
  O  O253  1  0.23691018  0.07012184  0.76750275  1
  O  O254  1  0.23390535  0.40543185  0.27142573  1
  O  O255  1  0.23086905  0.40166368  0.77783944  1
  O  O256  1  0.22054147  0.72487820  0.26955320  1
  O  O257  1  0.22693942  0.73122064  0.76869646  1
  O  O258  1  0.58928319  0.07927405  0.26953574  1
  O  O259  1  0.57029903  0.06883659  0.76180361  1
  O  O260  1  0.57437365  0.39476050  0.27631790  1
  O  O261  1  0.57083259  0.40330229  0.78596689  1
  O  O262  1  0.58123029  0.73353318  0.26277700  1
  O  O263  1  0.57092526  0.73866660  0.75921571  1
  O  O264  1  0.89781712  0.07939598  0.26623118  1
  O  O265  1  0.88791856  0.05905537  0.76717103  1
  O  O266  1  0.89549135  0.39151954  0.26982860  1
  O  O267  1  0.89514047  0.40792769  0.77845396  1
  O  O268  1  0.90665546  0.73582572  0.26724769  1
  O  O269  1  0.91154595  0.73832097  0.76490081  1
  O  O270  1  0.26069214  0.25080362  0.26489699  1
  O  O271  1  0.25858562  0.24387951  0.76842585  1
  O  O272  1  0.25561347  0.56184837  0.27771165  1
  O  O273  1  0.26209770  0.57891384  0.76074086  1
  O  O274  1  0.25815044  0.90081999  0.26211201  1
  O  O275  1  0.25000663  0.89636112  0.76093003  1
  O  O276  1  0.60687636  0.23879181  0.27362908  1
  O  O277  1  0.58540629  0.24105273  0.77007971  1
  O  O278  1  0.60452937  0.57285060  0.26079747  1
  O  O279  1  0.60502560  0.56665319  0.77340923  1
  O  O280  1  0.60770702  0.91153756  0.26019011  1
  O  O281  1  0.60292629  0.89948665  0.75834170  1
  O  O282  1  0.92338946  0.24053608  0.27661437  1
  O  O283  1  0.91910279  0.24672344  0.76496103  1
  O  O284  1  0.93501713  0.57246710  0.25760444  1
  O  O285  1  0.93354643  0.56991224  0.76308121  1
  O  O286  1  0.92747493  0.89501198  0.26905297  1
  O  O287  1  0.92693641  0.89959754  0.77539999  1
  O  O288  1  0.27016317  0.24573774  0.48526918  1
  O  O289  1  0.26161219  0.24291609  0.98016430  1
  O  O290  1  0.25969753  0.56525444  0.47852625  1
  O  O291  1  0.25342040  0.57642160  0.98329784  1
  O  O292  1  0.24475282  0.89801739  0.48852577  1
  O  O293  1  0.24865440  0.89751571  0.98243453  1
  O  O294  1  0.59609183  0.23655436  0.47084347  1
  O  O295  1  0.59793645  0.24455302  0.97563955  1
  O  O296  1  0.59765183  0.57988849  0.48075389  1
  O  O297  1  0.61362413  0.56689640  0.98728128  1
  O  O298  1  0.60683954  0.90887614  0.48946405  1
  O  O299  1  0.60205436  0.90816307  0.99500448  1
  O  O300  1  0.92408992  0.24046648  0.47636351  1
  O  O301  1  0.92166072  0.23844599  0.98499948  1
  O  O302  1  0.93459435  0.57564442  0.49100051  1
  O  O303  1  0.93253776  0.57630015  0.98940122  1
  O  O304  1  0.93331188  0.89339757  0.47688073  1
  O  O305  1  0.92520861  0.89934671  0.97563508  1
  O  O306  1  0.24035790  0.07089385  0.48320473  1
  O  O307  1  0.23745720  0.08241451  0.98712291  1
  O  O308  1  0.24391374  0.40771568  0.47444966  1
  O  O309  1  0.23736416  0.39583545  0.98416939  1
  O  O310  1  0.22023393  0.73377433  0.48392649  1
  O  O311  1  0.22272051  0.73601374  0.97652261  1
  O  O312  1  0.57730423  0.07745252  0.48016484  1
  O  O313  1  0.57526780  0.08172901  0.98131653  1
  O  O314  1  0.56360765  0.40081175  0.47204835  1
  O  O315  1  0.57677169  0.40050563  0.97510882  1
  O  O316  1  0.57993628  0.73870152  0.48737427  1
  O  O317  1  0.58133583  0.73041099  0.98850323  1
  O  O318  1  0.89961619  0.06296799  0.48698386  1
  O  O319  1  0.89147724  0.07317950  0.97957146  1
  O  O320  1  0.90589999  0.39950514  0.47970742  1
  O  O321  1  0.89442259  0.39697930  0.97568331  1
  O  O322  1  0.91176778  0.73917999  0.47534021  1
  O  O323  1  0.90607534  0.74099125  0.97986732  1
  O  O324  1  0.09018272  0.27269471  0.23059485  1
  O  O325  1  0.08616237  0.25505966  0.72709897  1
  O  O326  1  0.09681905  0.59600353  0.22518487  1
  O  O327  1  0.09288182  0.60136257  0.72273473  1
  O  O328  1  0.08390325  0.91660943  0.22988963  1
  O  O329  1  0.08807184  0.91480479  0.72502596  1
  O  O330  1  0.42465468  0.26803024  0.24573870  1
  O  O331  1  0.43482109  0.26066127  0.72719202  1
  O  O332  1  0.43085486  0.59632223  0.22109080  1
  O  O333  1  0.42491835  0.60358745  0.72161286  1
  O  O334  1  0.44012997  0.93331761  0.21716352  1
  O  O335  1  0.44061380  0.92709020  0.72784571  1
  O  O336  1  0.76476924  0.26676675  0.22292024  1
  O  O337  1  0.75430969  0.25733159  0.74064416  1
  O  O338  1  0.76225843  0.59805101  0.22036991  1
  O  O339  1  0.77522364  0.59890802  0.72192637  1
  O  O340  1  0.76173773  0.92017527  0.22626733  1
  O  O341  1  0.75673070  0.92928770  0.71445866  1
  O  O342  1  0.07274446  0.09086244  0.23818783  1
  O  O343  1  0.06200104  0.09688358  0.72049225  1
  O  O344  1  0.06122887  0.42918328  0.22712339  1
  O  O345  1  0.06253631  0.43848006  0.71978427  1
  O  O346  1  0.06271258  0.75873197  0.22321955  1
  O  O347  1  0.06475384  0.76076506  0.72455042  1
  O  O348  1  0.42453373  0.08966927  0.22592028  1
  O  O349  1  0.41133519  0.09928145  0.72777929  1
  O  O350  1  0.39910118  0.42711658  0.23892838  1
  O  O351  1  0.39972562  0.43232482  0.72350220  1
  O  O352  1  0.41198342  0.75569719  0.22627259  1
  O  O353  1  0.41272687  0.76166850  0.72646184  1
  O  O354  1  0.73498589  0.10681179  0.23021523  1
  O  O355  1  0.73465078  0.08639405  0.72097563  1
  O  O356  1  0.73268688  0.42576155  0.21813503  1
  O  O357  1  0.74127361  0.43698921  0.74039069  1
  O  O358  1  0.74008589  0.75985340  0.21906049  1
  O  O359  1  0.74117028  0.75956387  0.71691995  1
