# generated using pymatgen
data_BaLaInIrO6
_symmetry_space_group_name_H-M   'P 1'
_cell_length_a   17.51025771
_cell_length_b   17.53883952
_cell_length_c   16.47824420
_cell_angle_alpha   89.98665088
_cell_angle_beta   89.99495495
_cell_angle_gamma   89.96957530
_symmetry_Int_Tables_number   1
_chemical_formula_structural   BaLaInIrO6
_chemical_formula_sum   'Ba36 La36 In36 Ir36 O216'
_cell_volume   5060.62611484
_cell_formula_units_Z   36
loop_
 _symmetry_equiv_pos_site_id
 _symmetry_equiv_pos_as_xyz
  1  'x, y, z'
loop_
 _atom_site_type_symbol
 _atom_site_label
 _atom_site_symmetry_multiplicity
 _atom_site_fract_x
 _atom_site_fract_y
 _atom_site_fract_z
 _atom_site_occupancy
  Ba  Ba0  1  -0.00269819  0.16107770  0.87784495  1
  Ba  Ba1  1  0.16568991  0.32605366  0.37585989  1
  Ba  Ba2  1  0.83619079  0.66135813  0.37780186  1
  Ba  Ba3  1  0.33157587  0.82390304  0.37654732  1
  Ba  Ba4  1  0.16551176  0.00756001  0.62804888  1
  Ba  Ba5  1  0.66581992  0.48644447  0.87518413  1
  Ba  Ba6  1  0.15926968  0.00391143  0.12865642  1
  Ba  Ba7  1  0.83183143  0.65871575  0.87084857  1
  Ba  Ba8  1  0.16326644  0.99027856  0.38148497  1
  Ba  Ba9  1  0.00196603  0.49335907  0.87058816  1
  Ba  Ba10  1  0.33377882  0.15971520  0.87779750  1
  Ba  Ba11  1  0.99976537  0.84074057  0.12635333  1
  Ba  Ba12  1  0.17154120  0.65871208  0.37220709  1
  Ba  Ba13  1  0.33587468  0.82748198  0.87152109  1
  Ba  Ba14  1  0.17219250  0.65557997  0.87312429  1
  Ba  Ba15  1  0.66076249  0.82323077  0.37251553  1
  Ba  Ba16  1  -0.00001595  0.82854077  0.37682338  1
  Ba  Ba17  1  0.83782550  0.32210757  0.37538315  1
  Ba  Ba18  1  0.00228108  0.49306808  0.37380540  1
  Ba  Ba19  1  0.83190617  0.34548430  0.12414445  1
  Ba  Ba20  1  0.50450963  0.99518568  0.87085057  1
  Ba  Ba21  1  0.83337250  0.33891868  0.62419596  1
  Ba  Ba22  1  0.16637161  0.32301907  0.87033963  1
  Ba  Ba23  1  0.16870818  0.33837793  0.12127016  1
  Ba  Ba24  1  -0.00271589  0.16041368  0.38082278  1
  Ba  Ba25  1  0.66698456  0.17844224  0.62829613  1
  Ba  Ba26  1  0.49998004  0.99339676  0.37696452  1
  Ba  Ba27  1  0.83544853  0.99319879  0.87140205  1
  Ba  Ba28  1  0.33602491  0.17332741  0.62602438  1
  Ba  Ba29  1  0.49663715  0.00671972  0.62269779  1
  Ba  Ba30  1  0.50247835  0.65796302  0.37232361  1
  Ba  Ba31  1  0.32943957  0.84269302  0.12257296  1
  Ba  Ba32  1  0.66907884  0.84454453  0.62297982  1
  Ba  Ba33  1  0.49646323  0.34308285  0.12315502  1
  Ba  Ba34  1  0.16509971  0.34158318  0.62462617  1
  Ba  Ba35  1  1.00315001  0.50733294  0.62247784  1
  La  La36  1  0.65593658  0.81682789  0.87797846  1
  La  La37  1  -0.00199987  0.81735755  0.87628870  1
  La  La38  1  0.16348310  0.67768544  0.62518868  1
  La  La39  1  0.84188126  0.98843521  0.37886286  1
  La  La40  1  0.82997818  0.01647650  0.62260624  1
  La  La41  1  1.00437687  0.18106597  0.62731199  1
  La  La42  1  0.82947715  0.02150444  0.12378397  1
  La  La43  1  0.32175095  0.17110893  0.12444954  1
  La  La44  1  0.83834217  0.32131949  0.87703541  1
  La  La45  1  0.32596469  0.15326277  0.37412380  1
  La  La46  1  0.16448843  0.68130378  0.12601789  1
  La  La47  1  1.00137381  0.51589187  0.12485911  1
  La  La48  1  0.49625997  0.34710808  0.62889172  1
  La  La49  1  0.33594104  0.51392273  0.62526210  1
  La  La50  1  0.32595936  0.48713171  0.37398027  1
  La  La51  1  0.66565684  0.15411675  0.37795296  1
  La  La52  1  1.00190821  0.18059710  0.12628847  1
  La  La53  1  0.83099622  0.67342464  0.62600276  1
  La  La54  1  0.50700763  0.64735057  0.87545028  1
  La  La55  1  0.83383783  0.68110248  0.12692811  1
  La  La56  1  0.17061148  0.99112128  0.87809002  1
  La  La57  1  0.66239233  0.15634398  0.87626117  1
  La  La58  1  0.67033545  0.85376071  0.12246411  1
  La  La59  1  0.49400034  0.68150103  0.62248849  1
  La  La60  1  0.66923874  0.51052296  0.12596028  1
  La  La61  1  0.67167711  0.18949786  0.12502177  1
  La  La62  1  0.49675266  0.68443384  0.12273181  1
  La  La63  1  0.49564350  0.01451298  0.12450006  1
  La  La64  1  0.34116241  0.51812577  0.12291668  1
  La  La65  1  0.66522408  0.47905171  0.37489953  1
  La  La66  1  0.67005924  0.50744241  0.62315043  1
  La  La67  1  1.00131945  0.84519714  0.62746218  1
  La  La68  1  0.33741629  0.84665193  0.62229525  1
  La  La69  1  0.50306551  0.31855049  0.37858642  1
  La  La70  1  0.50132643  0.31878045  0.87536390  1
  La  La71  1  0.32501589  0.48317805  0.87194565  1
  In  In72  1  0.50001267  0.49998082  0.24968438  1
  In  In73  1  0.83263064  0.83297947  0.50332553  1
  In  In74  1  0.83401201  0.49752400  0.75063653  1
  In  In75  1  0.83256891  0.83451920  0.75046130  1
  In  In76  1  0.16648889  0.83148974  0.75076262  1
  In  In77  1  0.16415416  0.83299323  -0.00263968  1
  In  In78  1  0.33714243  0.33298269  0.25212638  1
  In  In79  1  0.33219006  -0.00015548  0.49800038  1
  In  In80  1  0.82975422  0.83595626  0.24839485  1
  In  In81  1  0.83207003  0.50058885  0.24928846  1
  In  In82  1  0.16687070  0.16776807  0.50178058  1
  In  In83  1  0.50144301  0.83297252  0.75098556  1
  In  In84  1  0.50153132  0.16873284  0.25176861  1
  In  In85  1  0.16972707  0.50049319  0.00045964  1
  In  In86  1  0.49874164  0.49973755  0.49961292  1
  In  In87  1  0.83302252  0.16857140  0.75110646  1
  In  In88  1  0.00036473  0.66594066  0.25257612  1
  In  In89  1  0.33798927  0.66706585  -0.00695204  1
  In  In90  1  0.17005008  0.49784021  0.24631680  1
  In  In91  1  0.66784152  0.00383770  0.24991490  1
  In  In92  1  0.66500276  0.66134457  0.49880635  1
  In  In93  1  0.33163862  0.00117713  0.75327044  1
  In  In94  1  0.33470866  0.33202851  -0.00049915  1
  In  In95  1  -0.00395040  0.00454598  0.24965274  1
  In  In96  1  0.00037559  0.33581655  0.49967382  1
  In  In97  1  0.50177566  0.16819831  0.74728026  1
  In  In98  1  0.50259624  0.16799444  0.00266697  1
  In  In99  1  0.50205331  0.83354052  0.49788588  1
  In  In100  1  0.49914727  0.83662712  0.24561863  1
  In  In101  1  0.66311377  0.66365449  0.74654509  1
  In  In102  1  0.16282218  0.16257452  -0.00025216  1
  In  In103  1  0.16736737  0.83512561  0.25273419  1
  In  In104  1  0.83297568  0.50012109  0.50035280  1
  In  In105  1  0.83023806  0.83729347  -0.00343214  1
  In  In106  1  0.66684225  0.66575107  0.00286905  1
  In  In107  1  -0.00200821  0.33807626  0.00187330  1
  Ir  Ir108  1  0.16544983  0.16550081  0.25112804  1
  Ir  Ir109  1  0.66693195  0.33254214  0.25337629  1
  Ir  Ir110  1  -0.00272066  0.66403513  -0.00320030  1
  Ir  Ir111  1  0.50121137  0.49901398  -0.00155637  1
  Ir  Ir112  1  0.00065537  0.33301999  0.75242316  1
  Ir  Ir113  1  0.67140048  0.00702811  0.50319914  1
  Ir  Ir114  1  0.17055575  0.49905779  0.74586250  1
  Ir  Ir115  1  0.50112173  0.17073819  0.49901566  1
  Ir  Ir116  1  0.33592546  0.66142796  0.74397414  1
  Ir  Ir117  1  -0.00441547  -0.00029391  0.50748694  1
  Ir  Ir118  1  0.66227798  0.32984433  0.50077549  1
  Ir  Ir119  1  0.66395275  0.66294255  0.24398969  1
  Ir  Ir120  1  0.00388767  0.66676150  0.50550092  1
  Ir  Ir121  1  0.33158541  0.00587273  0.24431593  1
  Ir  Ir122  1  0.67205928  0.00147857  0.74897660  1
  Ir  Ir123  1  0.66896384  0.33588400  -0.00174520  1
  Ir  Ir124  1  0.82761292  0.16752573  0.00292248  1
  Ir  Ir125  1  0.33439985  0.33606618  0.74446640  1
  Ir  Ir126  1  -0.00476347  0.00170326  -0.00378776  1
  Ir  Ir127  1  0.83051350  0.16533792  0.49934819  1
  Ir  Ir128  1  0.66399476  0.33523399  0.75286883  1
  Ir  Ir129  1  0.66614623  0.00276323  -0.00110782  1
  Ir  Ir130  1  0.16607382  0.82809044  0.50585122  1
  Ir  Ir131  1  0.82994784  0.16993232  0.24924445  1
  Ir  Ir132  1  0.49637686  0.49652195  0.75165602  1
  Ir  Ir133  1  0.33618295  0.66576697  0.24908082  1
  Ir  Ir134  1  0.33438641  0.00005309  0.00427419  1
  Ir  Ir135  1  0.83425807  0.50201214  0.00099979  1
  Ir  Ir136  1  0.32990534  0.66512367  0.50324700  1
  Ir  Ir137  1  0.50352254  0.83645701  -0.00013598  1
  Ir  Ir138  1  -0.00149839  0.32981069  0.24806406  1
  Ir  Ir139  1  0.00250268  0.66612006  0.74833675  1
  Ir  Ir140  1  0.16384939  0.16705071  0.75079934  1
  Ir  Ir141  1  0.00060296  0.00049398  0.75178461  1
  Ir  Ir142  1  0.33880189  0.33620860  0.50421926  1
  Ir  Ir143  1  0.17395388  0.50178310  0.50193549  1
  O  O144  1  0.32383542  0.30774678  0.12695951  1
  O  O145  1  0.31280872  0.32646054  0.62320211  1
  O  O146  1  0.30718140  0.65683073  0.12904344  1
  O  O147  1  0.29972113  0.65158914  0.62354759  1
  O  O148  1  0.30888655  1.00508563  0.12349324  1
  O  O149  1  0.31564215  0.98912983  0.62527375  1
  O  O150  1  0.64390195  0.32575411  0.12575225  1
  O  O151  1  0.63145746  0.33108663  0.62843329  1
  O  O152  1  0.63130358  0.64759029  0.12585439  1
  O  O153  1  0.62427675  0.64302036  0.62576033  1
  O  O154  1  0.63256259  0.99450265  0.11610733  1
  O  O155  1  0.64452369  1.00177694  0.62710766  1
  O  O156  1  0.97950340  0.31844752  0.12959912  1
  O  O157  1  0.98519283  0.32636830  0.63236046  1
  O  O158  1  0.96887262  0.65760604  0.11558936  1
  O  O159  1  0.97117998  0.66509307  0.62793676  1
  O  O160  1  0.96502005  0.99649817  0.11606870  1
  O  O161  1  0.96599458  0.98737833  0.63134623  1
  O  O162  1  0.18817434  0.16204008  0.13165643  1
  O  O163  1  0.18369240  0.16810633  0.63212873  1
  O  O164  1  0.20834675  0.49580515  0.12352636  1
  O  O165  1  0.20022517  0.49962069  0.62412068  1
  O  O166  1  0.17751818  0.82507209  0.12323682  1
  O  O167  1  0.19806128  0.82336223  0.62490429  1
  O  O168  1  0.53511680  0.15907487  0.12632851  1
  O  O169  1  0.51945567  0.17353504  0.61866798  1
  O  O170  1  0.53471034  0.49326152  0.11757440  1
  O  O171  1  0.53021795  0.48625526  0.63226714  1
  O  O172  1  0.53211647  0.82692085  0.11764626  1
  O  O173  1  0.51916322  0.82214102  0.62512958  1
  O  O174  1  0.86145658  0.16126859  0.12620948  1
  O  O175  1  0.86154579  0.15818496  0.62145854  1
  O  O176  1  0.86208487  0.49839523  0.11911585  1
  O  O177  1  0.85329431  0.49095874  0.62639214  1
  O  O178  1  0.85088783  0.81985293  0.12056332  1
  O  O179  1  0.86740125  0.82397869  0.62731009  1
  O  O180  1  0.14904991  0.16579687  0.37019661  1
  O  O181  1  0.14644514  0.16372122  0.87000999  1
  O  O182  1  0.15620208  0.50457004  0.38060261  1
  O  O183  1  0.15304442  0.50114756  0.86646571  1
  O  O184  1  0.15041411  0.82849690  0.38480594  1
  O  O185  1  0.13244785  0.84010216  0.87405703  1
  O  O186  1  0.46866297  0.17533699  0.38163739  1
  O  O187  1  0.49072666  0.17449070  0.87485195  1
  O  O188  1  0.46341604  0.50146596  0.37559478  1
  O  O189  1  0.46312649  0.50795861  0.87548431  1
  O  O190  1  0.48491111  0.83292086  0.37115385  1
  O  O191  1  0.48593949  0.84126492  0.88156676  1
  O  O192  1  0.80020696  0.16824373  0.37366434  1
  O  O193  1  0.80021629  0.17587786  0.88073400  1
  O  O194  1  0.79937736  0.50592543  0.37418354  1
  O  O195  1  0.81436478  0.50409185  0.88139854  1
  O  O196  1  0.80913773  0.84805851  0.37701871  1
  O  O197  1  0.79266122  0.83552147  0.87347963  1
  O  O198  1  0.01183725  0.00660456  0.38665595  1
  O  O199  1  0.03230681  0.00849892  0.87293630  1
  O  O200  1  0.01499528  0.33042125  0.36715381  1
  O  O201  1  0.01515220  0.33299369  0.87185815  1
  O  O202  1  0.02250680  0.66805288  0.38535078  1
  O  O203  1  0.02595004  0.67416903  0.87204359  1
  O  O204  1  0.35110578  0.01353251  0.36534271  1
  O  O205  1  0.35475205  0.00174079  0.88635561  1
  O  O206  1  0.36786810  0.34938306  0.38578851  1
  O  O207  1  0.36341286  0.34543636  0.86470159  1
  O  O208  1  0.35536062  0.67121753  0.37807828  1
  O  O209  1  0.37116999  0.66883449  0.86282094  1
  O  O210  1  0.70281288  0.01239200  0.38126289  1
  O  O211  1  0.69070643  0.01785556  0.87458299  1
  O  O212  1  0.69045983  0.34162374  0.37763847  1
  O  O213  1  0.70066705  0.33650305  0.87539816  1
  O  O214  1  0.68566085  0.67028613  0.36322726  1
  O  O215  1  0.68072545  0.67609350  0.87561018  1
  O  O216  1  0.05937946  0.09372471  0.02454658  1
  O  O217  1  0.06386238  0.09185211  0.52926247  1
  O  O218  1  0.06761691  0.43526760  0.02481764  1
  O  O219  1  0.08537092  0.42889474  0.51234316  1
  O  O220  1  0.06508633  0.75484015  0.01226340  1
  O  O221  1  0.07446376  0.75765771  0.53626952  1
  O  O222  1  0.40468856  0.09275701  0.03109128  1
  O  O223  1  0.41414233  0.09685400  0.51259236  1
  O  O224  1  0.40582801  0.43786098  0.01999339  1
  O  O225  1  0.40519619  0.42744013  0.53551068  1
  O  O226  1  0.41505742  0.76292886  0.02047819  1
  O  O227  1  0.39473931  0.75761333  0.52805781  1
  O  O228  1  0.73136040  0.09912296  0.02848994  1
  O  O229  1  0.74105070  0.09610209  0.52257680  1
  O  O230  1  0.73486180  0.43739431  0.02241987  1
  O  O231  1  0.72407010  0.42699716  0.51871312  1
  O  O232  1  0.72824024  0.76816693  0.02248661  1
  O  O233  1  0.74765275  0.74997394  0.52377180  1
  O  O234  1  0.08293339  0.25248690  0.01805615  1
  O  O235  1  0.08533117  0.25299173  0.51706907  1
  O  O236  1  0.09335168  0.59984925  0.02532860  1
  O  O237  1  0.10404659  0.59697175  0.52563285  1
  O  O238  1  0.08739536  0.93589191  0.00792883  1
  O  O239  1  0.08701823  0.91834662  0.53055674  1
  O  O240  1  0.43664876  0.26771609  -0.00099346  1
  O  O241  1  0.43731168  0.27071879  0.52145107  1
  O  O242  1  0.43787417  0.59527531  0.02473155  1
  O  O243  1  0.42457851  0.59933667  0.52896159  1
  O  O244  1  0.43657616  0.93510390  0.02584255  1
  O  O245  1  0.41898121  0.91891290  0.51512963  1
  O  O246  1  0.75842729  0.26166729  0.02237228  1
  O  O247  1  0.75735631  0.25908583  0.51683085  1
  O  O248  1  0.76790221  0.59554642  0.02743352  1
  O  O249  1  0.75975001  0.59183395  0.53449814  1
  O  O250  1  0.75942786  0.93904774  0.02663567  1
  O  O251  1  0.76399250  0.93934549  0.52507574  1
  O  O252  1  0.23751777  0.07438860  0.27161517  1
  O  O253  1  0.23151772  0.07573305  0.77303081  1
  O  O254  1  0.24468504  0.40651292  0.27468274  1
  O  O255  1  0.24271741  0.40781448  0.76796871  1
  O  O256  1  0.24653162  0.73598577  0.25826404  1
  O  O257  1  0.24595968  0.73259019  0.76169263  1
  O  O258  1  0.57698840  0.07808273  0.27606667  1
  O  O259  1  0.58815615  0.07852872  0.76595085  1
  O  O260  1  0.57404529  0.39942051  0.28110288  1
  O  O261  1  0.56175708  0.39924845  0.77440132  1
  O  O262  1  0.57056529  0.72808057  0.25185004  1
  O  O263  1  0.56581946  0.73445200  0.77639837  1
  O  O264  1  0.89074793  0.07333671  0.26802474  1
  O  O265  1  0.91324194  0.07354061  0.76411319  1
  O  O266  1  0.90896398  0.40073687  0.26193291  1
  O  O267  1  0.90570310  0.39874145  0.77552562  1
  O  O268  1  0.90171601  0.73746013  0.25691609  1
  O  O269  1  0.91944547  0.74245880  0.77225869  1
  O  O270  1  0.26593665  0.22686652  0.26920702  1
  O  O271  1  0.26044551  0.23913675  0.76876285  1
  O  O272  1  0.27428729  0.57060408  0.26986710  1
  O  O273  1  0.27079034  0.56342550  0.76590859  1
  O  O274  1  0.26427091  0.91394592  0.26321937  1
  O  O275  1  0.24644870  0.91657138  0.77857140  1
  O  O276  1  0.60584279  0.23724837  0.27768752  1
  O  O277  1  0.59906535  0.24397452  0.77996317  1
  O  O278  1  0.60601601  0.56238765  0.26812402  1
  O  O279  1  0.58058084  0.56878179  0.77798900  1
  O  O280  1  0.59900236  0.90469203  0.25429984  1
  O  O281  1  0.60604154  0.90606203  0.77233196  1
  O  O282  1  0.92910876  0.23246898  0.26315980  1
  O  O283  1  0.92532320  0.24593158  0.76787185  1
  O  O284  1  0.93083202  0.56821286  0.25738886  1
  O  O285  1  0.92940343  0.58018742  0.76375526  1
  O  O286  1  0.91728049  0.91718685  0.27369798  1
  O  O287  1  0.93645958  0.90532753  0.77590698  1
  O  O288  1  0.27190627  0.24365938  0.47598486  1
  O  O289  1  0.26253776  0.23148479  0.99455034  1
  O  O290  1  0.27253784  0.56455808  0.48370745  1
  O  O291  1  0.27353368  0.56609054  0.97476894  1
  O  O292  1  0.25364781  0.90059153  0.48957115  1
  O  O293  1  0.26006877  0.91296563  0.98039422  1
  O  O294  1  0.59463525  0.23736750  0.46960855  1
  O  O295  1  0.60692449  0.23993380  0.97928857  1
  O  O296  1  0.60210360  0.55644219  0.47500516  1
  O  O297  1  0.58902851  0.57021302  0.97842262  1
  O  O298  1  0.59919985  0.91916356  0.48609001  1
  O  O299  1  0.60552315  0.90149224  0.97887965  1
  O  O300  1  0.92009102  0.23549803  0.49318145  1
  O  O301  1  0.91325166  0.24270210  0.98244086  1
  O  O302  1  0.93123274  0.58133351  0.48609762  1
  O  O303  1  0.93276410  0.56547177  0.98595257  1
  O  O304  1  0.92567608  0.91191492  0.48722476  1
  O  O305  1  0.93361800  0.90530497  0.96978352  1
  O  O306  1  0.24655555  0.08184382  0.48106875  1
  O  O307  1  0.23736325  0.06354221  0.98285324  1
  O  O308  1  0.24804548  0.40990781  0.47781101  1
  O  O309  1  0.24371716  0.40561175  0.97469267  1
  O  O310  1  0.23215893  0.73145405  0.49149972  1
  O  O311  1  0.24141040  0.73829434  0.98852224  1
  O  O312  1  0.57856997  0.08296098  0.47412916  1
  O  O313  1  0.57810224  0.07289502  0.97984615  1
  O  O314  1  0.56710804  0.39367096  0.48246365  1
  O  O315  1  0.56872307  0.40030661  0.97248011  1
  O  O316  1  0.56907794  0.73360765  0.49145102  1
  O  O317  1  0.56544911  0.74001333  0.97686003  1
  O  O318  1  0.89625264  0.06606805  0.48460122  1
  O  O319  1  0.89520803  0.07111845  0.98822707  1
  O  O320  1  0.90993958  0.40978971  0.48285703  1
  O  O321  1  0.89533754  0.40505619  0.97775386  1
  O  O322  1  0.91687190  0.73841025  0.48954152  1
  O  O323  1  0.90885067  0.73701077  0.97720442  1
  O  O324  1  0.09347848  0.25668186  0.22752661  1
  O  O325  1  0.08801957  0.25558521  0.72736333  1
  O  O326  1  0.09544960  0.58958850  0.21573590  1
  O  O327  1  0.10027253  0.59589995  0.72440520  1
  O  O328  1  0.08681357  0.92578854  0.24440208  1
  O  O329  1  0.08307004  0.92495637  0.72884969  1
  O  O330  1  0.44115205  0.27117284  0.25202746  1
  O  O331  1  0.43235749  0.27305639  0.73325852  1
  O  O332  1  0.43022719  0.60115711  0.22027208  1
  O  O333  1  0.42943346  0.59132379  0.71850933  1
  O  O334  1  0.42755214  0.94083831  0.22247205  1
  O  O335  1  0.41531684  0.91311094  0.73343007  1
  O  O336  1  0.75894081  0.26167290  0.22764280  1
  O  O337  1  0.75680813  0.26715591  0.73919967  1
  O  O338  1  0.75852276  0.59988087  0.21725061  1
  O  O339  1  0.75691232  0.58882947  0.72298855  1
  O  O340  1  0.75970933  0.93347391  0.21296871  1
  O  O341  1  0.76443210  0.93539686  0.72256700  1
  O  O342  1  0.06687447  0.10335368  0.22848182  1
  O  O343  1  0.06738814  0.09923841  0.72622474  1
  O  O344  1  0.06594117  0.42331774  0.22574627  1
  O  O345  1  0.07624805  0.42618949  0.73136031  1
  O  O346  1  0.08258362  0.74923920  0.22949754  1
  O  O347  1  0.07232982  0.75617111  0.72339400  1
  O  O348  1  0.39945722  0.09987064  0.22464300  1
  O  O349  1  0.41180333  0.09033302  0.73826023  1
  O  O350  1  0.40036734  0.43728071  0.22192562  1
  O  O351  1  0.40182691  0.43005041  0.72084876  1
  O  O352  1  0.40712563  0.75527211  0.22338695  1
  O  O353  1  0.40118838  0.75188290  0.71655501  1
  O  O354  1  0.73680133  0.10511246  0.22191978  1
  O  O355  1  0.74475102  0.08936261  0.73029394  1
  O  O356  1  0.72785934  0.43144924  0.23036717  1
  O  O357  1  0.72706342  0.42758485  0.72805352  1
  O  O358  1  0.72684670  0.75896999  0.21786053  1
  O  O359  1  0.74798769  0.75008429  0.72119083  1
