# generated using pymatgen
data_BaLaInIrO6
_symmetry_space_group_name_H-M   'P 1'
_cell_length_a   17.52796096
_cell_length_b   17.55187294
_cell_length_c   16.49795473
_cell_angle_alpha   90.05038222
_cell_angle_beta   90.00897541
_cell_angle_gamma   89.99252013
_symmetry_Int_Tables_number   1
_chemical_formula_structural   BaLaInIrO6
_chemical_formula_sum   'Ba36 La36 In36 Ir36 O216'
_cell_volume   5075.56967948
_cell_formula_units_Z   36
loop_
 _symmetry_equiv_pos_site_id
 _symmetry_equiv_pos_as_xyz
  1  'x, y, z'
loop_
 _atom_site_type_symbol
 _atom_site_label
 _atom_site_symmetry_multiplicity
 _atom_site_fract_x
 _atom_site_fract_y
 _atom_site_fract_z
 _atom_site_occupancy
  Ba  Ba0  1  0.50355763  0.65652907  0.37665168  1
  Ba  Ba1  1  0.50604629  0.66449111  0.88104647  1
  Ba  Ba2  1  0.33177602  0.84215986  0.12626276  1
  Ba  Ba3  1  0.16723071  0.01516797  0.62859501  1
  Ba  Ba4  1  -0.00294517  0.48702962  0.37439469  1
  Ba  Ba5  1  0.50357360  0.32886040  0.37438028  1
  Ba  Ba6  1  0.33664294  0.82741117  0.87576945  1
  Ba  Ba7  1  0.66694704  0.17103882  0.11988933  1
  Ba  Ba8  1  0.83485463  0.98976712  0.87711473  1
  Ba  Ba9  1  0.83233700  0.00361661  0.12516953  1
  Ba  Ba10  1  0.16945758  0.34192743  0.62469163  1
  Ba  Ba11  1  0.83371851  0.65956998  0.87097509  1
  Ba  Ba12  1  1.00349208  0.50820098  0.62433168  1
  Ba  Ba13  1  0.33801256  0.50723428  0.12764717  1
  Ba  Ba14  1  0.50300107  0.99162136  0.87386176  1
  Ba  Ba15  1  0.16829565  0.99355917  0.87214436  1
  Ba  Ba16  1  0.49996933  0.33789958  0.12533379  1
  Ba  Ba17  1  0.66345926  0.84107116  0.62548763  1
  Ba  Ba18  1  0.16342717  0.01473331  0.12273055  1
  Ba  Ba19  1  0.16687592  0.32731528  0.38156854  1
  Ba  Ba20  1  0.83437770  0.67760684  0.12424648  1
  Ba  Ba21  1  0.33168281  0.48388594  0.37873609  1
  Ba  Ba22  1  0.33197113  0.50899508  0.62421132  1
  Ba  Ba23  1  0.66724655  0.48817085  0.37442391  1
  Ba  Ba24  1  0.66808768  0.82821523  0.87929910  1
  Ba  Ba25  1  0.33456000  0.17867279  0.62864974  1
  Ba  Ba26  1  0.66376880  0.17482683  0.63125955  1
  Ba  Ba27  1  -0.00349540  0.15558789  0.87422881  1
  Ba  Ba28  1  0.66933976  0.15369019  0.87627514  1
  Ba  Ba29  1  0.66480735  0.81937806  0.37705231  1
  Ba  Ba30  1  0.66784912  0.49449793  0.87481236  1
  Ba  Ba31  1  0.83372174  0.32206943  0.37664303  1
  Ba  Ba32  1  0.66716596  0.50493372  0.12682271  1
  Ba  Ba33  1  0.49920957  0.00631628  0.12193837  1
  Ba  Ba34  1  0.83177390  0.33644434  0.12322841  1
  Ba  Ba35  1  0.17092191  0.65516350  0.37506742  1
  La  La36  1  -0.00768823  0.82029730  0.87539281  1
  La  La37  1  0.66851662  0.51510406  0.62333847  1
  La  La38  1  0.17184578  0.65313145  0.87753216  1
  La  La39  1  0.00008583  0.16115786  0.37451980  1
  La  La40  1  1.00585568  0.85173295  0.11999529  1
  La  La41  1  0.49208173  0.35170401  0.62424091  1
  La  La42  1  0.50436531  0.32185271  0.87502735  1
  La  La43  1  0.82729131  0.01257426  0.62690408  1
  La  La44  1  0.82978061  0.35164843  0.63043843  1
  La  La45  1  0.16549477  0.67333602  0.62848746  1
  La  La46  1  1.00866674  0.18085622  0.62977445  1
  La  La47  1  0.83192936  0.98640717  0.37640250  1
  La  La48  1  1.00356770  0.18175725  0.12427459  1
  La  La49  1  0.83391740  0.31917525  0.87832889  1
  La  La50  1  0.32866288  0.15296665  0.87442362  1
  La  La51  1  0.33753117  0.17232627  0.12404911  1
  La  La52  1  0.50223402  0.67833387  0.12686020  1
  La  La53  1  0.16344699  0.34499606  0.12570428  1
  La  La54  1  0.50362978  0.98503670  0.37234204  1
  La  La55  1  0.33899810  0.84693753  0.62865075  1
  La  La56  1  -0.01006301  0.48482579  0.86883728  1
  La  La57  1  0.33392718  0.48298062  0.87421825  1
  La  La58  1  0.66168747  0.16016801  0.37013158  1
  La  La59  1  0.16045820  0.68604537  0.12573750  1
  La  La60  1  0.82661584  0.68044872  0.61849640  1
  La  La61  1  0.17162751  0.31291668  0.86874464  1
  La  La62  1  0.33091000  0.16361192  0.37649681  1
  La  La63  1  0.67213119  0.84164455  0.11926829  1
  La  La64  1  -0.00930767  0.81975022  0.37457820  1
  La  La65  1  0.16822416  0.99047259  0.37567765  1
  La  La66  1  0.32349972  0.82071192  0.37263391  1
  La  La67  1  0.49722108  0.68403465  0.62912523  1
  La  La68  1  0.83806201  0.64790257  0.36954652  1
  La  La69  1  1.00134591  0.84866692  0.62639334  1
  La  La70  1  0.49290070  0.01120781  0.62429406  1
  La  La71  1  1.00771151  0.51752988  0.12096461  1
  In  In72  1  0.83292066  0.16807074  0.74574124  1
  In  In73  1  0.66691660  0.32891238  0.50680754  1
  In  In74  1  -0.00007394  0.00364086  0.25259108  1
  In  In75  1  0.49798539  0.16431529  0.25120042  1
  In  In76  1  0.66586467  0.00154135  0.50061670  1
  In  In77  1  0.50023992  0.83370686  0.00326572  1
  In  In78  1  -0.00127568  0.00348291  0.50124738  1
  In  In79  1  0.50076238  0.16859068  0.74994596  1
  In  In80  1  0.83350142  0.83409200  0.74776217  1
  In  In81  1  0.83383824  0.16240239  0.25263404  1
  In  In82  1  0.00061330  0.66991325  0.24713286  1
  In  In83  1  0.33143125  0.66462817  0.00240664  1
  In  In84  1  0.49945184  0.50566532  0.75067218  1
  In  In85  1  0.32870074  0.33195033  -0.00058212  1
  In  In86  1  0.83615299  0.16380462  0.00094488  1
  In  In87  1  0.66938159  0.33011776  0.24950928  1
  In  In88  1  0.49837128  0.50135505  -0.00042955  1
  In  In89  1  0.83225266  0.49925689  0.50066911  1
  In  In90  1  0.16573890  0.49867990  0.75531393  1
  In  In91  1  0.00359301  0.33501697  -0.00318553  1
  In  In92  1  0.16548252  0.83171668  0.74931996  1
  In  In93  1  0.33480512  0.66547703  0.24844458  1
  In  In94  1  0.49834055  0.83426882  0.49771172  1
  In  In95  1  0.16400404  0.83528041  0.50156018  1
  In  In96  1  0.50182808  0.49958868  0.25059690  1
  In  In97  1  -0.00327196  0.33060999  0.50157618  1
  In  In98  1  0.16406557  0.83307530  -0.00611578  1
  In  In99  1  -0.00192192  0.66945974  0.50296842  1
  In  In100  1  0.33118053  0.00235790  0.25133943  1
  In  In101  1  0.16666706  0.50111247  0.50167448  1
  In  In102  1  0.83675970  0.49852248  0.00003676  1
  In  In103  1  0.33190928  0.00005350  0.00010107  1
  In  In104  1  0.16765185  0.49943050  0.24807020  1
  In  In105  1  0.33298231  0.00345320  0.49592162  1
  In  In106  1  0.33506389  0.66800412  0.50173683  1
  In  In107  1  0.67092745  0.66528791  0.00086343  1
  Ir  Ir108  1  0.33703513  0.33301894  0.74928004  1
  Ir  Ir109  1  0.16397742  0.17049983  0.25057272  1
  Ir  Ir110  1  0.66577852  0.33133070  -0.00679640  1
  Ir  Ir111  1  0.00559925  0.66739928  -0.00378650  1
  Ir  Ir112  1  0.32718431  0.32515073  0.25086904  1
  Ir  Ir113  1  0.00145265  0.33178721  0.24683356  1
  Ir  Ir114  1  0.83330233  0.50067861  0.74956893  1
  Ir  Ir115  1  0.84002555  0.83305618  0.00333084  1
  Ir  Ir116  1  0.83145330  0.83408627  0.25251236  1
  Ir  Ir117  1  0.83979639  0.49769972  0.24772243  1
  Ir  Ir118  1  0.50512526  0.50023383  0.50409206  1
  Ir  Ir119  1  0.50346361  0.83372987  0.25126994  1
  Ir  Ir120  1  0.83373276  0.16256729  0.50357955  1
  Ir  Ir121  1  -0.00138676  0.33260826  0.75206944  1
  Ir  Ir122  1  0.33895102  0.32844828  0.50125036  1
  Ir  Ir123  1  0.49983984  0.83378946  0.74816946  1
  Ir  Ir124  1  0.16725885  0.16891667  -0.00001531  1
  Ir  Ir125  1  -0.00045124  0.66758361  0.74868902  1
  Ir  Ir126  1  0.16071346  0.83798821  0.25116967  1
  Ir  Ir127  1  0.66671821  -0.00390700  0.25247656  1
  Ir  Ir128  1  0.16229904  0.49963731  -0.00441123  1
  Ir  Ir129  1  0.66799158  0.66621531  0.50147951  1
  Ir  Ir130  1  0.66724059  -0.00224936  0.00169426  1
  Ir  Ir131  1  0.16365114  0.16856514  0.50002775  1
  Ir  Ir132  1  0.83319648  0.83267077  0.49561582  1
  Ir  Ir133  1  0.49795633  0.16543812  0.49908614  1
  Ir  Ir134  1  0.16559648  0.16800828  0.74973909  1
  Ir  Ir135  1  0.00151518  0.00019052  -0.00145982  1
  Ir  Ir136  1  0.66457551  0.33665287  0.75186190  1
  Ir  Ir137  1  0.49838803  0.16897905  -0.00143094  1
  Ir  Ir138  1  0.33409474  0.00117855  0.74814587  1
  Ir  Ir139  1  0.66320982  -0.00277314  0.74874915  1
  Ir  Ir140  1  0.33235896  0.66785204  0.75279456  1
  Ir  Ir141  1  -0.00269132  -0.00172016  0.74976642  1
  Ir  Ir142  1  0.66751192  0.66687153  0.74328028  1
  Ir  Ir143  1  0.67188934  0.66959985  0.25362093  1
  O  O144  1  0.30039700  0.31691198  0.12868993  1
  O  O145  1  0.31856628  0.33604029  0.62559617  1
  O  O146  1  0.29186058  0.66678567  0.12668418  1
  O  O147  1  0.30175488  0.66760570  0.63535538  1
  O  O148  1  0.31251585  1.00745591  0.12680983  1
  O  O149  1  0.31676843  0.99066694  0.62713363  1
  O  O150  1  0.64917395  0.32882849  0.11319991  1
  O  O151  1  0.63060851  0.33085580  0.63427195  1
  O  O152  1  0.64476484  0.66999999  0.13580030  1
  O  O153  1  0.63660058  0.65868658  0.62183939  1
  O  O154  1  0.64581406  0.98238029  0.12813821  1
  O  O155  1  0.63286103  0.99779323  0.62885072  1
  O  O156  1  0.98461983  0.32220946  0.12711257  1
  O  O157  1  0.96640082  0.32064375  0.63299313  1
  O  O158  1  0.98259828  0.65763796  0.11622088  1
  O  O159  1  0.96196637  0.66186892  0.63266365  1
  O  O160  1  0.98345886  0.99268942  0.12108125  1
  O  O161  1  0.96473742  0.98918196  0.62963165  1
  O  O162  1  0.19779319  0.16936882  0.12554926  1
  O  O163  1  0.18727547  0.16885897  0.62507683  1
  O  O164  1  0.18730252  0.48319317  0.11325505  1
  O  O165  1  0.18196118  0.50223926  0.63160247  1
  O  O166  1  0.17990958  0.82824211  0.12973176  1
  O  O167  1  0.20147647  0.81732884  0.62717271  1
  O  O168  1  0.51679560  0.16641157  0.11806850  1
  O  O169  1  0.51752624  0.15144034  0.61960508  1
  O  O170  1  0.51600909  0.48843263  0.12470953  1
  O  O171  1  0.53041420  0.49079123  0.62521991  1
  O  O172  1  0.53554522  0.82964245  0.13530423  1
  O  O173  1  0.51437149  0.83247980  0.62868111  1
  O  O174  1  0.86810632  0.16024002  0.12630069  1
  O  O175  1  0.86986874  0.15194118  0.62139475  1
  O  O176  1  0.87126957  0.49396490  0.12750381  1
  O  O177  1  0.85360746  0.49329640  0.63130858  1
  O  O178  1  0.86794160  0.83360398  0.12976296  1
  O  O179  1  0.86436199  0.82274881  0.61640169  1
  O  O180  1  0.13324790  0.17369605  0.37450529  1
  O  O181  1  0.14254730  0.17611138  0.87450184  1
  O  O182  1  0.14635467  0.49590672  0.37388889  1
  O  O183  1  0.12708451  0.51535076  0.87851670  1
  O  O184  1  0.12801486  0.84713136  0.36992854  1
  O  O185  1  0.12766972  0.83293429  0.87003405  1
  O  O186  1  0.46868969  0.17292636  0.38116458  1
  O  O187  1  0.46877753  0.17574283  0.87763958  1
  O  O188  1  0.48392805  0.50161697  0.38383481  1
  O  O189  1  0.46631557  0.50927552  0.87233772  1
  O  O190  1  0.46599422  0.83893312  0.37061279  1
  O  O191  1  0.48877783  0.82918869  0.86870470  1
  O  O192  1  0.79806211  0.16742978  0.38647289  1
  O  O193  1  0.81989636  0.17596033  0.87193061  1
  O  O194  1  0.81808770  0.50560663  0.36922415  1
  O  O195  1  0.81942541  0.50343461  0.86832946  1
  O  O196  1  0.80745695  0.84852913  0.37402051  1
  O  O197  1  0.82219583  0.83283431  0.88059546  1
  O  O198  1  0.03557643  0.01975404  0.37690815  1
  O  O199  1  0.02188967  0.00104138  0.87299508  1
  O  O200  1  0.01469256  0.32724058  0.36762848  1
  O  O201  1  0.03589526  0.34132160  0.87001312  1
  O  O202  1  0.01948803  0.68321060  0.37291528  1
  O  O203  1  0.03450770  0.68086087  0.87185157  1
  O  O204  1  0.36772953  0.01890104  0.37264073  1
  O  O205  1  0.35066912  0.01408759  0.86896815  1
  O  O206  1  0.35343725  0.31628451  0.37585027  1
  O  O207  1  0.36285170  0.33553121  0.86814028  1
  O  O208  1  0.35592981  0.68792687  0.37325284  1
  O  O209  1  0.35505490  0.66962210  0.86966152  1
  O  O210  1  0.69637686  0.01294879  0.37258288  1
  O  O211  1  0.68762260  -0.00343103  0.87573581  1
  O  O212  1  0.68334054  0.32361154  0.38108113  1
  O  O213  1  0.69844288  0.33633708  0.87075255  1
  O  O214  1  0.70251321  0.66725484  0.37925130  1
  O  O215  1  0.68299864  0.67256144  0.86413672  1
  O  O216  1  0.06705999  0.10085741  0.02247545  1
  O  O217  1  0.06634553  0.10561198  0.52422846  1
  O  O218  1  0.06708167  0.43818301  0.02091000  1
  O  O219  1  0.07449711  0.42130600  0.51437353  1
  O  O220  1  0.06563069  0.76223944  0.02504766  1
  O  O221  1  0.06011307  0.77190515  0.52399945  1
  O  O222  1  0.40382932  0.10383545  0.01519682  1
  O  O223  1  0.40651379  0.10006181  0.51882559  1
  O  O224  1  0.39407051  0.43017006  0.00159093  1
  O  O225  1  0.41384164  0.42425662  0.52444704  1
  O  O226  1  0.41006358  0.75647165  0.02347931  1
  O  O227  1  0.40564508  0.76257191  0.53412293  1
  O  O228  1  0.74289703  0.08346359  0.01317802  1
  O  O229  1  0.74501751  0.09308597  0.52989591  1
  O  O230  1  0.74061065  0.41692061  0.00990250  1
  O  O231  1  0.73603522  0.42808506  0.53143897  1
  O  O232  1  0.74749223  0.76554448  0.02263057  1
  O  O233  1  0.74151725  0.75791894  0.52440837  1
  O  O234  1  0.10197684  0.26280401  0.02144639  1
  O  O235  1  0.09062197  0.25383118  0.52349267  1
  O  O236  1  0.10320277  0.60083611  0.02368160  1
  O  O237  1  0.09847270  0.60536588  0.52594143  1
  O  O238  1  0.08732450  0.92794657  0.01776294  1
  O  O239  1  0.09016588  0.92954995  0.52603405  1
  O  O240  1  0.42433039  0.25483433  0.01641920  1
  O  O241  1  0.43708646  0.26317816  0.52487822  1
  O  O242  1  0.42999476  0.60023816  0.03062373  1
  O  O243  1  0.44066813  0.59557126  0.52673419  1
  O  O244  1  0.42595464  0.92662771  0.01058560  1
  O  O245  1  0.42915037  0.93298198  0.52291783  1
  O  O246  1  0.75418067  0.25866211  0.00569863  1
  O  O247  1  0.77376044  0.25853199  0.53452248  1
  O  O248  1  0.76519355  0.59181392  0.01430115  1
  O  O249  1  0.75859056  0.59772135  0.52436195  1
  O  O250  1  0.75621554  0.91808116  0.02542442  1
  O  O251  1  0.77029886  0.93004987  0.51976501  1
  O  O252  1  0.22653531  0.07575192  0.27929214  1
  O  O253  1  0.24591039  0.08224460  0.77324552  1
  O  O254  1  0.23435258  0.39187049  0.25533954  1
  O  O255  1  0.24327953  0.40159448  0.78045022  1
  O  O256  1  0.23674120  0.75371649  0.26984754  1
  O  O257  1  0.23506304  0.72927375  0.77678851  1
  O  O258  1  0.57550239  0.06619662  0.27854832  1
  O  O259  1  0.57678565  0.07218047  0.76331333  1
  O  O260  1  0.58001242  0.40898166  0.26268768  1
  O  O261  1  0.57025209  0.40061985  0.77497235  1
  O  O262  1  0.57558108  0.73828257  0.26968609  1
  O  O263  1  0.56675838  0.73316526  0.75338108  1
  O  O264  1  0.90467120  0.07071435  0.28831081  1
  O  O265  1  0.90785276  0.06750535  0.76145942  1
  O  O266  1  0.90607990  0.40208885  0.26704460  1
  O  O267  1  0.90206023  0.40140318  0.77558120  1
  O  O268  1  0.89928503  0.74320459  0.27664309  1
  O  O269  1  0.91442210  0.74113169  0.76804664  1
  O  O270  1  0.26277044  0.22820147  0.27109215  1
  O  O271  1  0.26222215  0.23928952  0.77663138  1
  O  O272  1  0.26238971  0.57030073  0.26824121  1
  O  O273  1  0.26692873  0.57330103  0.77958093  1
  O  O274  1  0.25221661  0.90859661  0.28029122  1
  O  O275  1  0.26334838  0.91016396  0.76190756  1
  O  O276  1  0.59484921  0.23116687  0.26882747  1
  O  O277  1  0.59402705  0.24745121  0.77633821  1
  O  O278  1  0.60366575  0.58090410  0.26865395  1
  O  O279  1  0.60082650  0.57465017  0.75603971  1
  O  O280  1  0.58931591  0.91114928  0.28083340  1
  O  O281  1  0.59335761  0.90380680  0.76824663  1
  O  O282  1  0.94066171  0.23231730  0.26566766  1
  O  O283  1  0.92642552  0.24719080  0.77034033  1
  O  O284  1  0.92503483  0.57348877  0.26454407  1
  O  O285  1  0.93292938  0.56969069  0.77488419  1
  O  O286  1  0.92453396  0.90380350  0.27688936  1
  O  O287  1  0.93504085  0.90171095  0.76807991  1
  O  O288  1  0.26655732  0.23291018  0.48038047  1
  O  O289  1  0.25899106  0.23634358  0.96921821  1
  O  O290  1  0.26400259  0.57382444  0.48755847  1
  O  O291  1  0.25741320  0.56094116  0.96701192  1
  O  O292  1  0.25782383  0.91167288  0.46608347  1
  O  O293  1  0.25537742  0.90796118  0.98179322  1
  O  O294  1  0.59569799  0.22510741  0.48110114  1
  O  O295  1  0.58644698  0.24374405  0.97033356  1
  O  O296  1  0.60283885  0.56625381  0.48992163  1
  O  O297  1  0.59480152  0.57352826  0.98581068  1
  O  O298  1  0.58859128  0.91250808  0.47500539  1
  O  O299  1  0.59606070  0.91053713  0.99238797  1
  O  O300  1  0.92902155  0.22392649  0.47979518  1
  O  O301  1  0.92471185  0.24613033  0.98282535  1
  O  O302  1  0.91981782  0.57991510  0.47854502  1
  O  O303  1  0.94575140  0.56928221  0.97757228  1
  O  O304  1  0.92581554  0.90099654  0.47088127  1
  O  O305  1  0.93905138  0.89988545  0.98323077  1
  O  O306  1  0.23233341  0.07735836  0.47228517  1
  O  O307  1  0.23996783  0.08355948  0.97880107  1
  O  O308  1  0.25086858  0.40034701  0.49007957  1
  O  O309  1  0.22166468  0.40127356  0.96990504  1
  O  O310  1  0.24404774  0.74951720  0.47398316  1
  O  O311  1  0.22716583  0.72874726  0.98168075  1
  O  O312  1  0.56263317  0.07195302  0.47301429  1
  O  O313  1  0.57603438  0.07546348  0.98202603  1
  O  O314  1  0.56943471  0.40635396  0.49313392  1
  O  O315  1  0.57249367  0.39793594  0.97139760  1
  O  O316  1  0.57590772  0.73625460  0.49221236  1
  O  O317  1  0.58200066  0.74541399  0.99971784  1
  O  O318  1  0.89363507  0.06529875  0.47726389  1
  O  O319  1  0.91288380  0.06804661  0.98440737  1
  O  O320  1  0.89881832  0.39909783  0.49724652  1
  O  O321  1  0.90837824  0.40629158  0.96472542  1
  O  O322  1  0.89466603  0.73958350  0.46984795  1
  O  O323  1  0.91517798  0.74229773  0.97424538  1
  O  O324  1  0.09797349  0.26659911  0.22165756  1
  O  O325  1  0.08935255  0.25834265  0.72762433  1
  O  O326  1  0.09452764  0.59567661  0.21740393  1
  O  O327  1  0.09388841  0.60403030  0.73188488  1
  O  O328  1  0.09131893  0.92676105  0.23046308  1
  O  O329  1  0.08448829  0.92631253  0.72484088  1
  O  O330  1  0.41468224  0.25585306  0.23016685  1
  O  O331  1  0.43216804  0.26819656  0.72715597  1
  O  O332  1  0.43595475  0.59869352  0.22713750  1
  O  O333  1  0.42750877  0.60565689  0.72327455  1
  O  O334  1  0.43181379  0.92258345  0.23770814  1
  O  O335  1  0.42804243  0.92827557  0.72307965  1
  O  O336  1  0.76000197  0.25303065  0.23381813  1
  O  O337  1  0.76123674  0.27171595  0.72954025  1
  O  O338  1  0.76980945  0.60136172  0.24067120  1
  O  O339  1  0.76311004  0.59640699  0.71796745  1
  O  O340  1  0.75727501  0.92223376  0.23062345  1
  O  O341  1  0.75898697  0.92962353  0.72509776  1
  O  O342  1  0.06661707  0.10994207  0.22833420  1
  O  O343  1  0.06701776  0.09756503  0.72722299  1
  O  O344  1  0.06619479  0.42607213  0.21904297  1
  O  O345  1  0.06676675  0.42331293  0.73863366  1
  O  O346  1  0.06847876  0.77039471  0.22363002  1
  O  O347  1  0.06655977  0.75711331  0.71454807  1
  O  O348  1  0.39939330  0.10099453  0.22765110  1
  O  O349  1  0.40930159  0.08749298  0.73266856  1
  O  O350  1  0.39824868  0.41472133  0.24032579  1
  O  O351  1  0.40655733  0.42388062  0.73218920  1
  O  O352  1  0.42001978  0.75975385  0.22271412  1
  O  O353  1  0.40060733  0.76519987  0.72443951  1
  O  O354  1  0.73607516  0.08395492  0.23304873  1
  O  O355  1  0.74145200  0.08301117  0.72812906  1
  O  O356  1  0.75209247  0.42739283  0.23397624  1
  O  O357  1  0.73594029  0.43175324  0.72223988  1
  O  O358  1  0.73733618  0.76587851  0.22807949  1
  O  O359  1  0.74555188  0.75105011  0.72352166  1
