# generated using pymatgen
data_BaLaInIrO6
_symmetry_space_group_name_H-M   'P 1'
_cell_length_a   17.50516820
_cell_length_b   17.53049887
_cell_length_c   16.48641133
_cell_angle_alpha   90.03521770
_cell_angle_beta   90.03064982
_cell_angle_gamma   89.94627398
_symmetry_Int_Tables_number   1
_chemical_formula_structural   BaLaInIrO6
_chemical_formula_sum   'Ba36 La36 In36 Ir36 O216'
_cell_volume   5059.25255055
_cell_formula_units_Z   36
loop_
 _symmetry_equiv_pos_site_id
 _symmetry_equiv_pos_as_xyz
  1  'x, y, z'
loop_
 _atom_site_type_symbol
 _atom_site_label
 _atom_site_symmetry_multiplicity
 _atom_site_fract_x
 _atom_site_fract_y
 _atom_site_fract_z
 _atom_site_occupancy
  Ba  Ba0  1  0.66873334  0.84293946  0.62103258  1
  Ba  Ba1  1  0.83278708  0.98246509  0.37358085  1
  Ba  Ba2  1  0.49549424  0.99398620  0.87174126  1
  Ba  Ba3  1  0.66493842  0.82645134  0.37433605  1
  Ba  Ba4  1  0.33339016  0.15264868  0.87288961  1
  Ba  Ba5  1  0.16952506  0.66170491  0.37357694  1
  Ba  Ba6  1  0.83287519  0.67342860  0.62282005  1
  Ba  Ba7  1  1.00512316  0.50967575  0.62142013  1
  Ba  Ba8  1  0.99714905  0.17346782  0.12323777  1
  Ba  Ba9  1  0.17023145  0.00366170  0.62402689  1
  Ba  Ba10  1  0.67070497  0.50715826  0.62557286  1
  Ba  Ba11  1  0.16944550  0.32506129  0.37325054  1
  Ba  Ba12  1  0.33264276  0.15798994  0.37099638  1
  Ba  Ba13  1  0.49833711  0.65937363  0.88097464  1
  Ba  Ba14  1  0.83252691  0.32755903  0.87327209  1
  Ba  Ba15  1  0.16406236  0.68243705  0.12384069  1
  Ba  Ba16  1  0.33811131  0.50752170  0.62192798  1
  Ba  Ba17  1  0.33414356  0.17159836  0.11996212  1
  Ba  Ba18  1  0.50065358  0.00546367  0.12156941  1
  Ba  Ba19  1  0.83127272  0.66319460  0.37404148  1
  Ba  Ba20  1  0.83577582  0.32643597  0.37499213  1
  Ba  Ba21  1  0.33599415  0.17174831  0.62679601  1
  Ba  Ba22  1  0.16545362  0.98862738  0.87619750  1
  Ba  Ba23  1  0.50219468  0.00430830  0.62088228  1
  Ba  Ba24  1  0.66399889  0.49115971  0.88121354  1
  Ba  Ba25  1  0.32838909  0.82712624  0.87984235  1
  Ba  Ba26  1  0.66081332  0.82599418  0.87349508  1
  Ba  Ba27  1  0.66627592  0.51106873  0.12528389  1
  Ba  Ba28  1  0.50348340  0.32484795  0.37603203  1
  Ba  Ba29  1  0.82925656  0.68131122  0.12483113  1
  Ba  Ba30  1  0.33215324  0.84119756  0.12884244  1
  Ba  Ba31  1  -0.00181833  0.82496732  0.37622160  1
  Ba  Ba32  1  0.66415008  0.15883679  0.87642938  1
  Ba  Ba33  1  -0.00234346  0.15751708  0.87407277  1
  Ba  Ba34  1  0.16379819  0.67657461  0.62684344  1
  Ba  Ba35  1  0.33248187  0.82896721  0.37923213  1
  La  La36  1  0.50525328  0.32144388  0.87495903  1
  La  La37  1  1.00217207  0.51206452  0.12968721  1
  La  La38  1  -0.00724645  0.49083077  0.87717887  1
  La  La39  1  0.65974895  0.48646371  0.36942002  1
  La  La40  1  0.49716106  0.68326807  0.12357715  1
  La  La41  1  0.49266857  0.68266662  0.63141614  1
  La  La42  1  0.49668473  0.34643494  0.12208109  1
  La  La43  1  0.16948432  0.65422585  0.87565859  1
  La  La44  1  0.49742068  0.34691387  0.63011879  1
  La  La45  1  0.50381576  0.98783361  0.36939697  1
  La  La46  1  0.16757342  0.98412496  0.37392377  1
  La  La47  1  0.67009693  0.84872177  0.12446223  1
  La  La48  1  0.67396086  0.18488158  0.12776482  1
  La  La49  1  0.17154125  0.31488579  0.87533430  1
  La  La50  1  -0.00192307  0.49010158  0.37379417  1
  La  La51  1  1.00309978  0.85087259  0.13394323  1
  La  La52  1  0.66927671  0.17651740  0.62409950  1
  La  La53  1  0.33672778  0.84942872  0.62812464  1
  La  La54  1  1.00881612  0.18065423  0.62534965  1
  La  La55  1  0.32889957  0.48336364  0.87726282  1
  La  La56  1  0.83102768  0.34641718  0.62657329  1
  La  La57  1  0.84096217  0.98470112  0.87603112  1
  La  La58  1  1.00322758  0.84126928  0.62209706  1
  La  La59  1  0.16435373  0.34660437  0.12585985  1
  La  La60  1  0.82677012  0.01061962  0.62291417  1
  La  La61  1  0.16535042  0.34741097  0.61764469  1
  La  La62  1  0.16471813  0.01021911  0.12367100  1
  La  La63  1  0.32933818  0.48387671  0.37445265  1
  La  La64  1  -0.00874488  0.14860146  0.37195241  1
  La  La65  1  0.50788688  0.65294172  0.37248177  1
  La  La66  1  0.83266431  0.65328161  0.87448729  1
  La  La67  1  -0.00521502  0.82152629  0.87775578  1
  La  La68  1  0.82743368  0.01697158  0.12987518  1
  La  La69  1  0.66182600  0.14975175  0.37351720  1
  La  La70  1  0.33957886  0.51559813  0.12942896  1
  La  La71  1  0.82802397  0.35053993  0.12323990  1
  In  In72  1  0.66925796  0.00166926  0.75142838  1
  In  In73  1  0.00011012  0.66915729  0.24946392  1
  In  In74  1  0.32997070  -0.00170099  0.00245506  1
  In  In75  1  0.50071532  0.83492063  -0.00035018  1
  In  In76  1  0.83250694  0.83093594  0.75048694  1
  In  In77  1  0.00326112  0.33242597  0.74935453  1
  In  In78  1  0.83304957  0.50151375  0.49775624  1
  In  In79  1  0.16432413  0.16480814  0.49596920  1
  In  In80  1  0.33684730  0.66988555  0.25531038  1
  In  In81  1  0.33282037  0.33072067  0.75144613  1
  In  In82  1  0.33376689  0.33034661  0.24543386  1
  In  In83  1  -0.00199760  -0.00048370  0.50224032  1
  In  In84  1  0.66540538  0.33127139  0.74991525  1
  In  In85  1  0.33647717  0.32851840  0.50078702  1
  In  In86  1  0.83475764  0.50102917  0.75101614  1
  In  In87  1  0.16663145  0.49837027  0.75286402  1
  In  In88  1  0.50328054  0.16557901  0.00127148  1
  In  In89  1  0.33102386  0.66723865  0.75228686  1
  In  In90  1  0.83063112  0.50353210  0.25137399  1
  In  In91  1  0.83036417  0.16734521  -0.00409187  1
  In  In92  1  0.49854632  0.83210637  0.49800813  1
  In  In93  1  0.49965756  0.50282974  0.75322404  1
  In  In94  1  0.00125580  0.66868847  0.75291570  1
  In  In95  1  0.16512712  0.49976870  0.00154493  1
  In  In96  1  0.00080087  0.33313471  0.00170249  1
  In  In97  1  0.33439172  0.00333199  0.49609789  1
  In  In98  1  0.16991587  0.50252975  0.24868166  1
  In  In99  1  -0.00040841  0.33157497  0.49663806  1
  In  In100  1  0.50108796  0.50138366  0.49843486  1
  In  In101  1  0.66835941  0.32896257  0.49869726  1
  In  In102  1  -0.00168475  0.33063666  0.24691747  1
  In  In103  1  0.66624831  0.66811008  0.00087374  1
  In  In104  1  0.66448539  0.66662441  0.50029441  1
  In  In105  1  -0.00210894  0.00015335  0.00240047  1
  In  In106  1  -0.00130619  -0.00136664  0.74907248  1
  In  In107  1  0.50276863  0.16618978  0.24767172  1
  Ir  Ir108  1  0.16256067  0.16236532  0.24596669  1
  Ir  Ir109  1  0.16565945  0.83938575  0.24963678  1
  Ir  Ir110  1  0.67310318  0.00006533  0.00424588  1
  Ir  Ir111  1  0.83605856  0.50363378  -0.00026416  1
  Ir  Ir112  1  0.50253549  0.16460253  0.74644506  1
  Ir  Ir113  1  0.33105827  0.66408600  0.00184506  1
  Ir  Ir114  1  0.49863511  0.83392154  0.74858876  1
  Ir  Ir115  1  0.83431754  0.16269349  0.49951752  1
  Ir  Ir116  1  0.16408423  0.83342271  0.75003975  1
  Ir  Ir117  1  0.83528773  0.16391673  0.74224148  1
  Ir  Ir118  1  0.16906123  0.16804610  0.00221864  1
  Ir  Ir119  1  0.66362450  0.33639123  0.00334100  1
  Ir  Ir120  1  0.33242822  -0.00240498  0.74930164  1
  Ir  Ir121  1  0.66389057  0.66878446  0.75048696  1
  Ir  Ir122  1  0.66786745  0.33197019  0.24671095  1
  Ir  Ir123  1  0.66887474  0.00208882  0.49721092  1
  Ir  Ir124  1  -0.00279950  0.67094242  0.00106879  1
  Ir  Ir125  1  0.50689620  0.16365992  0.50075560  1
  Ir  Ir126  1  0.16796980  0.16409579  0.74898542  1
  Ir  Ir127  1  0.83406090  0.83587810  0.00398298  1
  Ir  Ir128  1  0.16867912  0.50521424  0.49707563  1
  Ir  Ir129  1  0.50188974  0.83542565  0.24903936  1
  Ir  Ir130  1  0.33240861  0.33364973  0.00048435  1
  Ir  Ir131  1  0.82967396  0.16528432  0.25411449  1
  Ir  Ir132  1  0.15853685  0.83159115  0.00329509  1
  Ir  Ir133  1  0.33487188  0.66918173  0.50240688  1
  Ir  Ir134  1  0.83297374  0.83599606  0.24677818  1
  Ir  Ir135  1  -0.00179200  0.00146066  0.24981041  1
  Ir  Ir136  1  0.49315661  0.49827308  0.00431988  1
  Ir  Ir137  1  0.33099741  -0.00038725  0.25106457  1
  Ir  Ir138  1  0.66685727  -0.00009260  0.24962382  1
  Ir  Ir139  1  0.83725763  0.83183777  0.49914799  1
  Ir  Ir140  1  0.16828815  0.83081571  0.50273982  1
  Ir  Ir141  1  0.66242772  0.67079471  0.24873759  1
  Ir  Ir142  1  0.00325943  0.66869500  0.49867078  1
  Ir  Ir143  1  0.50146219  0.50222512  0.24471873  1
  O  O144  1  0.29962071  0.33063459  0.11757897  1
  O  O145  1  0.30131330  0.33332534  0.62602596  1
  O  O146  1  0.31335204  0.65570837  0.12255685  1
  O  O147  1  0.31172391  0.66334957  0.62050450  1
  O  O148  1  0.30003689  0.99853813  0.13217981  1
  O  O149  1  0.32118959  0.99784253  0.62741589  1
  O  O150  1  0.63451252  0.32635718  0.12582820  1
  O  O151  1  0.63136005  0.31930034  0.62352274  1
  O  O152  1  0.63589014  0.66868024  0.13019767  1
  O  O153  1  0.63182429  0.66558263  0.63039930  1
  O  O154  1  0.64840986  0.98737265  0.12775359  1
  O  O155  1  0.65579153  1.00190842  0.61741534  1
  O  O156  1  0.96052827  0.32553411  0.12421758  1
  O  O157  1  0.96585883  0.32104683  0.62225371  1
  O  O158  1  0.97479487  0.65512977  0.11866826  1
  O  O159  1  0.98496809  0.67139759  0.61968237  1
  O  O160  1  0.96589837  0.99501095  0.13003414  1
  O  O161  1  0.96486289  0.98204881  0.62585721  1
  O  O162  1  0.18862123  0.14831377  0.12485186  1
  O  O163  1  0.18621496  0.15856861  0.63070842  1
  O  O164  1  0.20613137  0.49049750  0.12183982  1
  O  O165  1  0.18956183  0.49903815  0.61760926  1
  O  O166  1  0.18504703  0.83931334  0.12709337  1
  O  O167  1  0.19761935  0.82957678  0.62670816  1
  O  O168  1  0.53925887  0.16148998  0.12469370  1
  O  O169  1  0.53399736  0.15654176  0.62310974  1
  O  O170  1  0.52119222  0.48462980  0.12362770  1
  O  O171  1  0.52134638  0.48510708  0.62589204  1
  O  O172  1  0.53139838  0.82650348  0.13086773  1
  O  O173  1  0.51699726  0.82640589  0.62885153  1
  O  O174  1  0.84689491  0.15668694  0.13317033  1
  O  O175  1  0.87010939  0.14909526  0.62020356  1
  O  O176  1  0.86344606  0.49545301  0.11988220  1
  O  O177  1  0.85600945  0.49163117  0.62580937  1
  O  O178  1  0.86485925  0.83650036  0.12469232  1
  O  O179  1  0.86471309  0.82981282  0.62019764  1
  O  O180  1  0.12926274  0.16895103  0.36399895  1
  O  O181  1  0.14581216  0.17779452  0.87729458  1
  O  O182  1  0.13677920  0.50442386  0.37828428  1
  O  O183  1  0.12887044  0.51038851  0.88013331  1
  O  O184  1  0.14561830  0.84519605  0.37635800  1
  O  O185  1  0.13086651  0.83389480  0.87804128  1
  O  O186  1  0.48693034  0.16904529  0.37978888  1
  O  O187  1  0.48558978  0.18040263  0.86851643  1
  O  O188  1  0.46698137  0.51188266  0.36372330  1
  O  O189  1  0.46454770  0.50339248  0.88561611  1
  O  O190  1  0.48294725  0.84686471  0.36830008  1
  O  O191  1  0.48365060  0.83542826  0.86833067  1
  O  O192  1  0.79856511  0.17066648  0.37888418  1
  O  O193  1  0.81199690  0.16989753  0.86263455  1
  O  O194  1  0.79312993  0.50192651  0.37353016  1
  O  O195  1  0.81246833  0.50983307  0.88106116  1
  O  O196  1  0.81216868  0.82985164  0.37230653  1
  O  O197  1  0.80959378  0.84719739  0.88571444  1
  O  O198  1  0.02957676  0.00758051  0.37126489  1
  O  O199  1  0.01316420  0.00194619  0.87666632  1
  O  O200  1  0.02228517  0.34361740  0.37131335  1
  O  O201  1  0.03602744  0.34470384  0.87698573  1
  O  O202  1  0.02159178  0.67169439  0.37934620  1
  O  O203  1  0.03238897  0.68431540  0.88547336  1
  O  O204  1  0.36463153  -0.00036452  0.36853233  1
  O  O205  1  0.34179714  -0.00681315  0.86992017  1
  O  O206  1  0.35315701  0.34135861  0.37254942  1
  O  O207  1  0.36821175  0.33862572  0.88354849  1
  O  O208  1  0.36921552  0.67490303  0.38305386  1
  O  O209  1  0.34910832  0.67309353  0.88379460  1
  O  O210  1  0.68792171  0.01195886  0.37309315  1
  O  O211  1  0.70397277  0.00311987  0.88420959  1
  O  O212  1  0.68755299  0.33912045  0.36624314  1
  O  O213  1  0.68220585  0.33272031  0.88247374  1
  O  O214  1  0.67974880  0.67311124  0.36632806  1
  O  O215  1  0.69407104  0.67212464  0.87259099  1
  O  O216  1  0.08042986  0.09332682  0.01927522  1
  O  O217  1  0.06217881  0.10015643  0.52007959  1
  O  O218  1  0.07252111  0.42763097  0.03845316  1
  O  O219  1  0.08670392  0.42629296  0.51744716  1
  O  O220  1  0.05859441  0.76810800  0.02745429  1
  O  O221  1  0.07113432  0.76465162  0.52316715  1
  O  O222  1  0.41037292  0.09023527  0.00923921  1
  O  O223  1  0.41428842  0.09810560  0.51267975  1
  O  O224  1  0.39658016  0.43003718  0.02795535  1
  O  O225  1  0.41422988  0.41986277  0.51456203  1
  O  O226  1  0.40742083  0.74871221  0.02512496  1
  O  O227  1  0.39896732  0.76068071  0.53146881  1
  O  O228  1  0.73411678  0.09508933  0.03055588  1
  O  O229  1  0.73903636  0.09668933  0.52336015  1
  O  O230  1  0.74884611  0.42432554  0.02654379  1
  O  O231  1  0.75320438  0.40989811  0.52616118  1
  O  O232  1  0.73829218  0.77270235  0.02539501  1
  O  O233  1  0.74615094  0.76285477  0.51233249  1
  O  O234  1  0.10738432  0.26502181  0.02138287  1
  O  O235  1  0.09392104  0.26133663  0.53157439  1
  O  O236  1  0.08450679  0.59770484  0.02073230  1
  O  O237  1  0.09549326  0.59804671  0.51542406  1
  O  O238  1  0.09065299  0.92333123  0.03263318  1
  O  O239  1  0.09242575  0.91761786  0.51870825  1
  O  O240  1  0.42887836  0.27004973  0.02425319  1
  O  O241  1  0.44473926  0.25887956  0.52713976  1
  O  O242  1  0.42516848  0.59314795  0.03240206  1
  O  O243  1  0.43055436  0.60566981  0.52174083  1
  O  O244  1  0.42029189  0.91983425  0.01501712  1
  O  O245  1  0.41966946  0.92068559  0.51374861  1
  O  O246  1  0.75471293  0.26515728  0.02883895  1
  O  O247  1  0.76856919  0.25174001  0.53128912  1
  O  O248  1  0.76226628  0.59260982  0.01367853  1
  O  O249  1  0.75576427  0.59254801  0.51747339  1
  O  O250  1  0.77052659  0.93338077  0.03089461  1
  O  O251  1  0.76778021  0.93007704  0.52149590  1
  O  O252  1  0.22996840  0.06409228  0.27193966  1
  O  O253  1  0.23872962  0.06962195  0.76830894  1
  O  O254  1  0.24545047  0.40952741  0.26843167  1
  O  O255  1  0.24108372  0.40480008  0.78939669  1
  O  O256  1  0.24095679  0.75062004  0.26367863  1
  O  O257  1  0.22831710  0.73864968  0.77591577  1
  O  O258  1  0.57539484  0.06817875  0.27655862  1
  O  O259  1  0.57311620  0.07548645  0.76578511  1
  O  O260  1  0.57581290  0.40861204  0.26811090  1
  O  O261  1  0.56575982  0.39857276  0.77369137  1
  O  O262  1  0.56419378  0.73600171  0.27010661  1
  O  O263  1  0.56564914  0.73731945  0.76434490  1
  O  O264  1  0.90454582  0.07357719  0.27627974  1
  O  O265  1  0.89294983  0.06626857  0.76659552  1
  O  O266  1  0.90731277  0.41049995  0.26426277  1
  O  O267  1  0.91848352  0.41374123  0.77710795  1
  O  O268  1  0.90381190  0.74619404  0.26022220  1
  O  O269  1  0.90287208  0.73682104  0.78395294  1
  O  O270  1  0.25304108  0.23139813  0.26003745  1
  O  O271  1  0.25480911  0.23711988  0.77177506  1
  O  O272  1  0.27388630  0.56858285  0.27309758  1
  O  O273  1  0.26392973  0.56912388  0.78272386  1
  O  O274  1  0.25441500  0.91406814  0.27768025  1
  O  O275  1  0.26637072  0.89935894  0.75519497  1
  O  O276  1  0.60805484  0.23376833  0.26777547  1
  O  O277  1  0.59306391  0.23147227  0.75950095  1
  O  O278  1  0.59478896  0.57395316  0.27379316  1
  O  O279  1  0.59797799  0.57827255  0.77083625  1
  O  O280  1  0.59262269  0.91079663  0.27042956  1
  O  O281  1  0.58900786  0.90705917  0.76081087  1
  O  O282  1  0.92512857  0.22822076  0.27609771  1
  O  O283  1  0.92749823  0.23069912  0.75743227  1
  O  O284  1  0.93258992  0.56895745  0.27112452  1
  O  O285  1  0.92691238  0.57717065  0.78393679  1
  O  O286  1  0.93034893  0.90474390  0.26390126  1
  O  O287  1  0.92955039  0.89969150  0.77953974  1
  O  O288  1  0.25859997  0.23850762  0.48311800  1
  O  O289  1  0.26142372  0.24261931  0.97538030  1
  O  O290  1  0.26827208  0.57380941  0.47166074  1
  O  O291  1  0.26320575  0.57299611  0.97409662  1
  O  O292  1  0.25359238  0.90599329  0.48945967  1
  O  O293  1  0.24702535  0.90297747  0.98888952  1
  O  O294  1  0.60634382  0.22217312  0.48258782  1
  O  O295  1  0.59100369  0.25027979  0.98341948  1
  O  O296  1  0.59169534  0.57325040  0.46123196  1
  O  O297  1  0.58384315  0.56903340  0.98972397  1
  O  O298  1  0.59199710  0.91633068  0.48057858  1
  O  O299  1  0.60506194  0.90839050  0.99360904  1
  O  O300  1  0.92912347  0.22604875  0.47539502  1
  O  O301  1  0.92292554  0.24129813  0.98039227  1
  O  O302  1  0.93683524  0.57650200  0.47463581  1
  O  O303  1  0.92724302  0.57754457  0.97040895  1
  O  O304  1  0.92533283  0.90222075  0.48463723  1
  O  O305  1  0.92900157  0.89707952  0.98178105  1
  O  O306  1  0.23278585  0.06559413  0.47078979  1
  O  O307  1  0.23470086  0.07495636  0.98868640  1
  O  O308  1  0.24296191  0.41999468  0.47896910  1
  O  O309  1  0.23999695  0.39963989  0.97114866  1
  O  O310  1  0.24138519  0.73932105  0.48300415  1
  O  O311  1  0.23098656  0.73296546  0.97879727  1
  O  O312  1  0.57299588  0.06852003  0.46988967  1
  O  O313  1  0.58253866  0.06778607  0.98076852  1
  O  O314  1  0.58501489  0.41348590  0.47259006  1
  O  O315  1  0.56068594  0.40152603  0.98195723  1
  O  O316  1  0.56378113  0.73373105  0.47919542  1
  O  O317  1  0.57117239  0.73923181  0.99183062  1
  O  O318  1  0.90096887  0.07343128  0.47549847  1
  O  O319  1  0.89247993  0.06236924  0.98831619  1
  O  O320  1  0.91966078  0.41875028  0.47272385  1
  O  O321  1  0.91114706  0.41927364  0.97827110  1
  O  O322  1  0.90780260  0.73776229  0.48179767  1
  O  O323  1  0.89983838  0.73932529  0.97293292  1
  O  O324  1  0.10045106  0.25755546  0.21845943  1
  O  O325  1  0.10076096  0.25565337  0.72531942  1
  O  O326  1  0.09090770  0.59101350  0.22509825  1
  O  O327  1  0.09778737  0.59893830  0.74505090  1
  O  O328  1  0.09358011  0.93341950  0.22427645  1
  O  O329  1  0.09460151  0.92159727  0.72727158  1
  O  O330  1  0.43457097  0.26494913  0.22344118  1
  O  O331  1  0.43675593  0.26047086  0.72808135  1
  O  O332  1  0.43740303  0.59611883  0.22120636  1
  O  O333  1  0.43264946  0.60290114  0.72862589  1
  O  O334  1  0.42995139  0.93038757  0.23247136  1
  O  O335  1  0.42394184  0.92340407  0.72491293  1
  O  O336  1  0.76210219  0.26177047  0.22059548  1
  O  O337  1  0.76651636  0.25533174  0.71651867  1
  O  O338  1  0.75221240  0.60027251  0.23033801  1
  O  O339  1  0.75650197  0.60024275  0.74016129  1
  O  O340  1  0.76143093  0.92880146  0.22225493  1
  O  O341  1  0.76996262  0.93520411  0.73235850  1
  O  O342  1  0.07099270  0.08991101  0.22595976  1
  O  O343  1  0.07112725  0.09860398  0.72700527  1
  O  O344  1  0.07520119  0.42632728  0.21852262  1
  O  O345  1  0.08649781  0.41524434  0.71526653  1
  O  O346  1  0.07242616  0.77059018  0.22770917  1
  O  O347  1  0.06520788  0.77428827  0.73414831  1
  O  O348  1  0.40530916  0.08711258  0.23155614  1
  O  O349  1  0.40819490  0.09260076  0.73810074  1
  O  O350  1  0.40938579  0.43285578  0.22127653  1
  O  O351  1  0.40549662  0.42592088  0.73958500  1
  O  O352  1  0.41781923  0.75880171  0.22665021  1
  O  O353  1  0.40389142  0.76630464  0.72705366  1
  O  O354  1  0.73312883  0.09638593  0.22668646  1
  O  O355  1  0.74215480  0.09928149  0.71880774  1
  O  O356  1  0.73959811  0.41966359  0.22459363  1
  O  O357  1  0.74843062  0.41590267  0.73283498  1
  O  O358  1  0.73043905  0.76849210  0.22586304  1
  O  O359  1  0.73353637  0.75817635  0.73314032  1
