# generated using pymatgen
data_BaLaInIrO6
_symmetry_space_group_name_H-M   'P 1'
_cell_length_a   17.53348723
_cell_length_b   17.54554811
_cell_length_c   16.49238268
_cell_angle_alpha   89.97190800
_cell_angle_beta   90.02331379
_cell_angle_gamma   89.97277095
_symmetry_Int_Tables_number   1
_chemical_formula_structural   BaLaInIrO6
_chemical_formula_sum   'Ba36 La36 In36 Ir36 O216'
_cell_volume   5073.62666645
_cell_formula_units_Z   36
loop_
 _symmetry_equiv_pos_site_id
 _symmetry_equiv_pos_as_xyz
  1  'x, y, z'
loop_
 _atom_site_type_symbol
 _atom_site_label
 _atom_site_symmetry_multiplicity
 _atom_site_fract_x
 _atom_site_fract_y
 _atom_site_fract_z
 _atom_site_occupancy
  Ba  Ba0  1  0.49680692  0.32733933  0.37327443  1
  Ba  Ba1  1  0.16620696  0.34279055  0.11956109  1
  Ba  Ba2  1  0.33678056  0.51145646  0.12363062  1
  Ba  Ba3  1  1.00431354  0.17402399  0.62543642  1
  Ba  Ba4  1  0.99730687  0.84091189  0.62261606  1
  Ba  Ba5  1  0.49887403  0.65857785  0.37755490  1
  Ba  Ba6  1  -0.00915487  0.82226577  0.87369478  1
  Ba  Ba7  1  0.00183568  0.49260909  0.87502584  1
  Ba  Ba8  1  0.33449793  0.17511377  0.12094013  1
  Ba  Ba9  1  0.67042039  0.17333774  0.62507413  1
  Ba  Ba10  1  0.32825697  0.83824010  0.12901893  1
  Ba  Ba11  1  0.33399858  0.15541734  0.87734946  1
  Ba  Ba12  1  0.99787417  0.83913951  0.12556151  1
  Ba  Ba13  1  0.16962139  0.65880755  0.37393866  1
  Ba  Ba14  1  1.00205600  0.51200810  0.11914174  1
  Ba  Ba15  1  0.00027629  0.49468587  0.37346079  1
  Ba  Ba16  1  0.66555085  0.51334786  0.12441083  1
  Ba  Ba17  1  0.16086691  0.67871264  0.62475237  1
  Ba  Ba18  1  0.49964139  0.99485966  0.87400085  1
  Ba  Ba19  1  0.50006737  0.34122859  0.62744527  1
  Ba  Ba20  1  0.83530511  0.98877275  0.37629375  1
  Ba  Ba21  1  -0.00162227  0.14938966  0.37568255  1
  Ba  Ba22  1  0.83289340  0.32591151  0.87781674  1
  Ba  Ba23  1  0.50076085  0.00854555  0.62656507  1
  Ba  Ba24  1  0.66775916  0.48987448  0.87903708  1
  Ba  Ba25  1  1.00083161  0.51177945  0.62801895  1
  Ba  Ba26  1  0.83600550  0.66142684  0.37365727  1
  Ba  Ba27  1  0.33421823  0.82508143  0.37636271  1
  Ba  Ba28  1  0.16306601  0.67414302  0.12863708  1
  Ba  Ba29  1  0.82999571  0.34036681  0.62604948  1
  Ba  Ba30  1  0.66552519  0.49386459  0.37623733  1
  Ba  Ba31  1  0.66949336  0.50605362  0.62536609  1
  Ba  Ba32  1  0.33522577  0.17260589  0.63166495  1
  Ba  Ba33  1  0.49695125  0.34745165  0.12004471  1
  Ba  Ba34  1  0.66684091  0.82377913  0.87626228  1
  Ba  Ba35  1  0.16436364  0.98995479  0.87437028  1
  La  La36  1  0.50543893  0.98876013  0.36971709  1
  La  La37  1  0.32876000  0.15075407  0.37686107  1
  La  La38  1  0.67597752  0.84601488  0.62540954  1
  La  La39  1  0.50719195  0.31915706  0.87733099  1
  La  La40  1  0.84003127  0.98666675  0.87188589  1
  La  La41  1  0.66157905  0.81362337  0.37521091  1
  La  La42  1  0.50491486  0.65515917  0.87888362  1
  La  La43  1  0.49968442  0.67750018  0.62491114  1
  La  La44  1  0.16921860  0.31876026  0.87048038  1
  La  La45  1  0.17203755  0.32373954  0.37475593  1
  La  La46  1  -0.00062038  0.82122097  0.37546032  1
  La  La47  1  0.67335273  0.18413621  0.12294981  1
  La  La48  1  0.33478023  0.84289989  0.62337966  1
  La  La49  1  0.33086601  0.48695707  0.87306996  1
  La  La50  1  0.84239367  0.32032814  0.37628014  1
  La  La51  1  0.16134357  0.00589360  0.12964658  1
  La  La52  1  0.32820786  0.48771929  0.36975994  1
  La  La53  1  1.00716826  0.17899356  0.12678079  1
  La  La54  1  -0.00442775  0.15134841  0.88041792  1
  La  La55  1  0.83770516  0.64884830  0.87493997  1
  La  La56  1  0.67093363  0.84599658  0.12458059  1
  La  La57  1  0.83222500  0.67609527  0.11988986  1
  La  La58  1  0.83173506  0.01616153  0.12487722  1
  La  La59  1  0.16797928  0.98092924  0.37800441  1
  La  La60  1  0.49552261  0.67948148  0.12759086  1
  La  La61  1  0.15691765  0.66587341  0.88180005  1
  La  La62  1  0.16022603  0.34907327  0.62482815  1
  La  La63  1  0.82685616  0.35353636  0.12241909  1
  La  La64  1  0.33696057  0.51850412  0.62538441  1
  La  La65  1  0.83108101  0.67377137  0.62855422  1
  La  La66  1  0.16077408  0.00783489  0.62428947  1
  La  La67  1  0.67688094  0.16738607  0.37996395  1
  La  La68  1  0.83034467  0.01412487  0.61910046  1
  La  La69  1  0.32739716  0.82582362  0.88002984  1
  La  La70  1  0.66512938  0.15933774  0.86825294  1
  La  La71  1  0.49557759  0.01392838  0.12492643  1
  In  In72  1  0.50179190  0.16582566  0.24906020  1
  In  In73  1  0.49708879  0.16583864  0.49747624  1
  In  In74  1  0.16801366  0.50272536  0.50131910  1
  In  In75  1  0.83170439  0.50478858  0.24854748  1
  In  In76  1  0.32999890  -0.00358985  0.75103190  1
  In  In77  1  0.33269624  -0.00133595  0.50145400  1
  In  In78  1  -0.00006550  -0.00425787  0.74914142  1
  In  In79  1  0.66924600  0.33323737  0.25065328  1
  In  In80  1  0.16432170  0.49793183  0.24828557  1
  In  In81  1  0.83361076  0.50126255  0.49915820  1
  In  In82  1  0.33520332  0.33322766  -0.00652745  1
  In  In83  1  0.66625526  0.33612199  0.75108895  1
  In  In84  1  0.66775095  0.00391927  0.24624214  1
  In  In85  1  0.49944489  0.83233846  0.75040907  1
  In  In86  1  0.83210425  0.83577807  0.25036284  1
  In  In87  1  0.66913725  0.00080981  -0.00197875  1
  In  In88  1  0.16584822  0.16363791  0.25330516  1
  In  In89  1  0.16235744  0.83557719  0.00182298  1
  In  In90  1  0.49530819  0.50061178  0.50176642  1
  In  In91  1  0.66619587  0.66523091  0.75309155  1
  In  In92  1  0.00274449  0.33386126  0.49997053  1
  In  In93  1  0.49974323  0.83498661  0.00003476  1
  In  In94  1  -0.00222312  0.33233490  0.00000779  1
  In  In95  1  0.33421475  0.33358229  0.74835488  1
  In  In96  1  0.66831901  -0.00014645  0.49388965  1
  In  In97  1  0.16713757  0.16630038  0.50075563  1
  In  In98  1  0.66656868  0.33370349  0.49827872  1
  In  In99  1  0.16980985  0.50348024  0.75179011  1
  In  In100  1  0.83664569  0.16680721  0.75335159  1
  In  In101  1  0.16501588  0.16262971  -0.00051196  1
  In  In102  1  0.49810248  0.50310166  0.25095312  1
  In  In103  1  0.33390400  -0.00244563  0.24869202  1
  In  In104  1  0.33396130  0.66929667  0.75300476  1
  In  In105  1  0.33432774  0.33080436  0.24714459  1
  In  In106  1  0.16845258  0.50249358  -0.00319519  1
  In  In107  1  0.50380674  0.83368728  0.50245247  1
  Ir  Ir108  1  -0.00204631  0.67178300  0.50060475  1
  Ir  Ir109  1  -0.00571338  0.66944811  -0.00128361  1
  Ir  Ir110  1  0.66720243  0.33236332  -0.00061715  1
  Ir  Ir111  1  0.50644604  0.83198702  0.24977356  1
  Ir  Ir112  1  0.16326058  0.83360034  0.25377497  1
  Ir  Ir113  1  0.33243815  -0.00306744  0.00212160  1
  Ir  Ir114  1  -0.00030461  -0.00582048  0.49903978  1
  Ir  Ir115  1  -0.00831388  -0.00080205  0.00568210  1
  Ir  Ir116  1  0.50027096  0.50662510  -0.00457125  1
  Ir  Ir117  1  -0.00293036  0.32924444  0.24830702  1
  Ir  Ir118  1  0.16515710  0.82830017  0.75075964  1
  Ir  Ir119  1  0.83317844  0.83133532  0.50259102  1
  Ir  Ir120  1  0.83288566  0.16415705  0.00395497  1
  Ir  Ir121  1  0.32880750  0.33326989  0.50274943  1
  Ir  Ir122  1  0.83888609  0.16271256  0.49703726  1
  Ir  Ir123  1  0.33231434  0.66776300  0.50077456  1
  Ir  Ir124  1  0.50338282  0.16435113  0.75362529  1
  Ir  Ir125  1  0.84055360  0.16750048  0.24302388  1
  Ir  Ir126  1  0.00384407  0.33197464  0.75158805  1
  Ir  Ir127  1  0.83202560  0.50286099  -0.00069108  1
  Ir  Ir128  1  -0.00169041  0.67015167  0.25052708  1
  Ir  Ir129  1  0.16536739  0.83110680  0.50222297  1
  Ir  Ir130  1  -0.00122876  -0.00296462  0.25083829  1
  Ir  Ir131  1  -0.00371343  0.67066685  0.74986775  1
  Ir  Ir132  1  0.50730014  0.16468322  -0.00474882  1
  Ir  Ir133  1  0.16340563  0.16514991  0.75081478  1
  Ir  Ir134  1  0.66686832  0.66832679  0.00199353  1
  Ir  Ir135  1  0.82990854  0.83205266  0.74855946  1
  Ir  Ir136  1  0.66340694  0.67273119  0.24669194  1
  Ir  Ir137  1  0.66699218  0.66937910  0.50148231  1
  Ir  Ir138  1  0.83056606  0.83217048  0.00015339  1
  Ir  Ir139  1  0.33910023  0.66986862  0.00016253  1
  Ir  Ir140  1  0.67297295  -0.00084587  0.74833223  1
  Ir  Ir141  1  0.33542902  0.67123498  0.24962386  1
  Ir  Ir142  1  0.49749301  0.50420771  0.75180184  1
  Ir  Ir143  1  0.83920369  0.50171478  0.75224386  1
  O  O144  1  0.31801089  0.33673121  0.11799751  1
  O  O145  1  0.29957993  0.32637611  0.62306333  1
  O  O146  1  0.31271934  0.66788418  0.12527621  1
  O  O147  1  0.30967518  0.65715446  0.61900668  1
  O  O148  1  0.29913663  0.99540215  0.12090624  1
  O  O149  1  0.29378103  0.98780890  0.62703996  1
  O  O150  1  0.64802179  0.32104601  0.11923679  1
  O  O151  1  0.65135673  0.32912212  0.62677012  1
  O  O152  1  0.63373607  0.67339763  0.12495123  1
  O  O153  1  0.63995670  0.66748993  0.62197124  1
  O  O154  1  0.63421964  0.98668848  0.12289171  1
  O  O155  1  0.65183954  0.99096021  0.62704370  1
  O  O156  1  0.96278760  0.31933014  0.12914900  1
  O  O157  1  0.98074114  0.33021493  0.63390867  1
  O  O158  1  0.96778921  0.66828095  0.12389728  1
  O  O159  1  0.96745295  0.67041798  0.62443562  1
  O  O160  1  0.96554606  0.99331398  0.12862231  1
  O  O161  1  0.96862555  0.99664336  0.62029840  1
  O  O162  1  0.18220583  0.14438634  0.12638623  1
  O  O163  1  0.18476252  0.14909529  0.63054401  1
  O  O164  1  0.18426163  0.50633851  0.12308744  1
  O  O165  1  0.20008430  0.49310793  0.62661619  1
  O  O166  1  0.17695950  0.83661945  0.13179578  1
  O  O167  1  0.19668043  0.82999996  0.62632288  1
  O  O168  1  0.53812850  0.15436265  0.11362443  1
  O  O169  1  0.52022220  0.16511877  0.63393189  1
  O  O170  1  0.51584053  0.50596817  0.11633053  1
  O  O171  1  0.51665742  0.50163057  0.63303455  1
  O  O172  1  0.53490823  0.82098190  0.12937673  1
  O  O173  1  0.54075381  0.81770462  0.62633444  1
  O  O174  1  0.87191148  0.15650920  0.12308578  1
  O  O175  1  0.85514366  0.15426781  0.61974895  1
  O  O176  1  0.85130288  0.50240765  0.11872184  1
  O  O177  1  0.85211689  0.50588265  0.63245362  1
  O  O178  1  0.84775271  0.81492476  0.11995258  1
  O  O179  1  0.85117822  0.81236994  0.62635005  1
  O  O180  1  0.14169767  0.18707847  0.37646170  1
  O  O181  1  0.13076272  0.17264121  0.87041719  1
  O  O182  1  0.15501789  0.49885417  0.37515543  1
  O  O183  1  0.15014796  0.53049444  0.87367663  1
  O  O184  1  0.13515019  0.84048395  0.37875301  1
  O  O185  1  0.14260030  0.83106044  0.87147401  1
  O  O186  1  0.46182067  0.16703813  0.37231777  1
  O  O187  1  0.48179151  0.17328172  0.87466481  1
  O  O188  1  0.46318050  0.50952938  0.37813937  1
  O  O189  1  0.46861682  0.51755560  0.87259369  1
  O  O190  1  0.48453345  0.84421787  0.37021964  1
  O  O191  1  0.46313065  0.83669435  0.87586003  1
  O  O192  1  0.81267060  0.17542584  0.36782630  1
  O  O193  1  0.80163714  0.16327442  0.88606408  1
  O  O194  1  0.81502134  0.50929180  0.37274391  1
  O  O195  1  0.81717118  0.50933877  0.87619404  1
  O  O196  1  0.80173266  0.83470933  0.38154860  1
  O  O197  1  0.81282124  0.85156963  0.87369916  1
  O  O198  1  0.03100304  -0.00678865  0.37456835  1
  O  O199  1  0.01162481  0.00539473  0.88394706  1
  O  O200  1  0.03162102  0.33414001  0.36691414  1
  O  O201  1  0.03081912  0.33102613  0.87018241  1
  O  O202  1  0.02050122  0.68322283  0.37568629  1
  O  O203  1  0.02259348  0.67058397  0.87422709  1
  O  O204  1  0.36932971  0.00297697  0.37370701  1
  O  O205  1  0.35007881  -0.00960374  0.88173391  1
  O  O206  1  0.34707579  0.34840127  0.38410777  1
  O  O207  1  0.37255401  0.34512510  0.87083808  1
  O  O208  1  0.35318364  0.67449442  0.37428835  1
  O  O209  1  0.36863090  0.68490624  0.88151506  1
  O  O210  1  0.69067310  0.02635864  0.36887529  1
  O  O211  1  0.70403323  0.00964052  0.86968691  1
  O  O212  1  0.70555007  0.32461807  0.37294291  1
  O  O213  1  0.68214898  0.33287060  0.88018368  1
  O  O214  1  0.68922655  0.67758943  0.37350315  1
  O  O215  1  0.69964863  0.66740261  0.88282249  1
  O  O216  1  0.05650164  0.09279876  0.02011793  1
  O  O217  1  0.07360250  0.08059608  0.51969580  1
  O  O218  1  0.07537266  0.42371230  0.01012177  1
  O  O219  1  0.07814470  0.42525794  0.52658464  1
  O  O220  1  0.06834361  0.75697425  0.01208649  1
  O  O221  1  0.06937845  0.76444297  0.51214924  1
  O  O222  1  0.41660675  0.08808208  0.02144326  1
  O  O223  1  0.40117495  0.09543835  0.51945891  1
  O  O224  1  0.41028416  0.43928069  0.00401875  1
  O  O225  1  0.38741901  0.43235430  0.52420016  1
  O  O226  1  0.40865338  0.75670011  0.02689098  1
  O  O227  1  0.40390496  0.75658533  0.52586867  1
  O  O228  1  0.74276968  0.09668028  0.03421356  1
  O  O229  1  0.75101961  0.08849353  0.51609949  1
  O  O230  1  0.74207635  0.42430660  0.02409396  1
  O  O231  1  0.74256439  0.42611525  0.51667442  1
  O  O232  1  0.73555242  0.76212980  0.02793409  1
  O  O233  1  0.73526762  0.76540470  0.52503476  1
  O  O234  1  0.08293067  0.24945703  0.02490490  1
  O  O235  1  0.10176837  0.26530752  0.52685103  1
  O  O236  1  0.08786134  0.60303714  0.00975890  1
  O  O237  1  0.08654841  0.59932490  0.51434840  1
  O  O238  1  0.09082445  0.93721785  0.02512201  1
  O  O239  1  0.09842185  0.92854124  0.52189834  1
  O  O240  1  0.43432834  0.25318459  0.00780476  1
  O  O241  1  0.42161428  0.27012334  0.51676602  1
  O  O242  1  0.43911978  0.60614598  0.01696129  1
  O  O243  1  0.42516117  0.60191643  0.52950277  1
  O  O244  1  0.42446858  0.93151014  0.02941369  1
  O  O245  1  0.41934529  0.91591569  0.52676537  1
  O  O246  1  0.76535304  0.26110522  0.02884301  1
  O  O247  1  0.76731356  0.24875143  0.50792934  1
  O  O248  1  0.76469722  0.60235156  0.02020288  1
  O  O249  1  0.76065386  0.60561769  0.52439974  1
  O  O250  1  0.76578922  0.92570787  0.02652791  1
  O  O251  1  0.76700515  0.92290383  0.52809569  1
  O  O252  1  0.23509693  0.06527442  0.28234052  1
  O  O253  1  0.23452755  0.07512843  0.76772023  1
  O  O254  1  0.23266801  0.39870029  0.27165883  1
  O  O255  1  0.23690349  0.40185807  0.77981874  1
  O  O256  1  0.23695579  0.74249951  0.26616848  1
  O  O257  1  0.23075978  0.73495879  0.77826371  1
  O  O258  1  0.55991630  0.05777753  0.26205736  1
  O  O259  1  0.58861282  0.07991618  0.77676640  1
  O  O260  1  0.57568783  0.40964243  0.26325013  1
  O  O261  1  0.56016773  0.40763132  0.77547650  1
  O  O262  1  0.57201491  0.74031734  0.27249399  1
  O  O263  1  0.56760351  0.73265728  0.77819016  1
  O  O264  1  0.90140732  0.06527494  0.26041289  1
  O  O265  1  0.90982434  0.07382155  0.78026657  1
  O  O266  1  0.90491258  0.39675890  0.26905909  1
  O  O267  1  0.91083227  0.40463875  0.77165657  1
  O  O268  1  0.90971383  0.74272826  0.26263961  1
  O  O269  1  0.89410575  0.73417523  0.77160212  1
  O  O270  1  0.26600916  0.23251513  0.27616188  1
  O  O271  1  0.24966800  0.23832930  0.77349835  1
  O  O272  1  0.27014310  0.57706314  0.26879021  1
  O  O273  1  0.27803600  0.56480758  0.76431435  1
  O  O274  1  0.25143106  0.90511742  0.27198673  1
  O  O275  1  0.26046157  0.88963829  0.77174863  1
  O  O276  1  0.61352848  0.22219429  0.26407519  1
  O  O277  1  0.58842392  0.24012477  0.77733349  1
  O  O278  1  0.59610766  0.58139806  0.26362566  1
  O  O279  1  0.59045612  0.56931022  0.77169807  1
  O  O280  1  0.60087111  0.89582792  0.27335575  1
  O  O281  1  0.59831377  0.91317859  0.76516817  1
  O  O282  1  0.92933102  0.23796932  0.27302841  1
  O  O283  1  0.93844358  0.23644201  0.77582218  1
  O  O284  1  0.92913276  0.58035402  0.26071747  1
  O  O285  1  0.92617445  0.58007720  0.77327933  1
  O  O286  1  0.93365157  0.90356578  0.27471909  1
  O  O287  1  0.91708393  0.90675332  0.76504227  1
  O  O288  1  0.27045422  0.23605777  0.47581042  1
  O  O289  1  0.24914408  0.24624549  0.97152859  1
  O  O290  1  0.27269726  0.56959474  0.48120886  1
  O  O291  1  0.27364923  0.58022809  0.97213006  1
  O  O292  1  0.25082114  0.90378181  0.48122977  1
  O  O293  1  0.26475161  0.90384304  0.98172430  1
  O  O294  1  0.59830327  0.23212092  0.47544250  1
  O  O295  1  0.59907266  0.23689651  0.97107569  1
  O  O296  1  0.59637690  0.58094766  0.48714592  1
  O  O297  1  0.59345701  0.57795224  0.97646076  1
  O  O298  1  0.60326301  0.90058022  0.47334587  1
  O  O299  1  0.59428028  0.90704757  0.98198201  1
  O  O300  1  0.92461957  0.23782644  0.47969913  1
  O  O301  1  0.92637058  0.22749360  0.97603199  1
  O  O302  1  0.92850012  0.58302092  0.48767586  1
  O  O303  1  0.92076078  0.57929024  0.97581739  1
  O  O304  1  0.92960715  0.89895154  0.47590394  1
  O  O305  1  0.92076919  0.90713696  0.98108079  1
  O  O306  1  0.23548863  0.06879219  0.46925353  1
  O  O307  1  0.24152015  0.06588826  0.98422199  1
  O  O308  1  0.23241512  0.39166703  0.48585225  1
  O  O309  1  0.24263608  0.41057373  0.95981829  1
  O  O310  1  0.23915283  0.73953183  0.48267140  1
  O  O311  1  0.24512136  0.73892899  0.97730119  1
  O  O312  1  0.56706803  0.06528411  0.47527309  1
  O  O313  1  0.58474433  0.08448105  0.96870085  1
  O  O314  1  0.57035966  0.40941919  0.48421148  1
  O  O315  1  0.56733882  0.40490079  0.97468484  1
  O  O316  1  0.57929568  0.73904856  0.47961134  1
  O  O317  1  0.57257693  0.73254132  0.97896370  1
  O  O318  1  0.90673343  0.06465653  0.48525711  1
  O  O319  1  0.89328876  0.06401955  0.98138471  1
  O  O320  1  0.90549935  0.40212075  0.47612881  1
  O  O321  1  0.89981811  0.40828332  0.99141612  1
  O  O322  1  0.90788901  0.74551725  0.47902227  1
  O  O323  1  0.89386891  0.73381806  0.97837079  1
  O  O324  1  0.08479803  0.25661110  0.22274342  1
  O  O325  1  0.10015353  0.26570017  0.72887104  1
  O  O326  1  0.08539395  0.59646178  0.24011082  1
  O  O327  1  0.08857268  0.60152585  0.73656314  1
  O  O328  1  0.09940703  0.93464357  0.23687582  1
  O  O329  1  0.10033586  0.92493171  0.72653112  1
  O  O330  1  0.43349076  0.26204110  0.22855043  1
  O  O331  1  0.42938357  0.25255474  0.73956748  1
  O  O332  1  0.42852586  0.60720470  0.22685155  1
  O  O333  1  0.43931060  0.60204011  0.73009672  1
  O  O334  1  0.44119236  0.92473672  0.22676295  1
  O  O335  1  0.41786963  0.91815320  0.72014833  1
  O  O336  1  0.77651514  0.25994110  0.21990534  1
  O  O337  1  0.75506657  0.25175538  0.74415772  1
  O  O338  1  0.75869994  0.60929975  0.22295579  1
  O  O339  1  0.77075196  0.59741167  0.73668162  1
  O  O340  1  0.76409178  0.93120577  0.21771633  1
  O  O341  1  0.76361574  0.92733889  0.71967158  1
  O  O342  1  0.06530646  0.08748737  0.22433122  1
  O  O343  1  0.07734628  0.08995479  0.73538861  1
  O  O344  1  0.06379853  0.41820735  0.22764213  1
  O  O345  1  0.07675212  0.42078820  0.73192075  1
  O  O346  1  0.06770243  0.76708348  0.24238841  1
  O  O347  1  0.06768106  0.76262634  0.73368804  1
  O  O348  1  0.40963040  0.08638244  0.21667624  1
  O  O349  1  0.41723311  0.08736471  0.74292692  1
  O  O350  1  0.39773358  0.43554357  0.24646896  1
  O  O351  1  0.39994471  0.44260683  0.73156607  1
  O  O352  1  0.41276035  0.76222267  0.22862309  1
  O  O353  1  0.40404112  0.75880799  0.71293065  1
  O  O354  1  0.74702990  0.10177066  0.21506128  1
  O  O355  1  0.74927948  0.08085813  0.72676819  1
  O  O356  1  0.74684664  0.42276619  0.22164287  1
  O  O357  1  0.74992020  0.42984767  0.74213423  1
  O  O358  1  0.72668108  0.76938249  0.23263944  1
  O  O359  1  0.73783205  0.76392572  0.72623659  1
