# generated using pymatgen
data_BaLaInIrO6
_symmetry_space_group_name_H-M   'P 1'
_cell_length_a   17.53213715
_cell_length_b   17.54986013
_cell_length_c   16.49009963
_cell_angle_alpha   90.06070541
_cell_angle_beta   89.98206906
_cell_angle_gamma   90.03353543
_symmetry_Int_Tables_number   1
_chemical_formula_structural   BaLaInIrO6
_chemical_formula_sum   'Ba36 La36 In36 Ir36 O216'
_cell_volume   5073.77797824
_cell_formula_units_Z   36
loop_
 _symmetry_equiv_pos_site_id
 _symmetry_equiv_pos_as_xyz
  1  'x, y, z'
loop_
 _atom_site_type_symbol
 _atom_site_label
 _atom_site_symmetry_multiplicity
 _atom_site_fract_x
 _atom_site_fract_y
 _atom_site_fract_z
 _atom_site_occupancy
  Ba  Ba0  1  -0.00148885  0.82221383  0.37407558  1
  Ba  Ba1  1  0.83665053  0.34372129  0.62572032  1
  Ba  Ba2  1  0.17065165  0.32802413  0.37658759  1
  Ba  Ba3  1  0.33474726  0.84377673  0.62342302  1
  Ba  Ba4  1  0.16274580  0.99468454  0.37481518  1
  Ba  Ba5  1  0.82851281  0.66045578  0.87294870  1
  Ba  Ba6  1  0.33163860  0.50943277  0.62086405  1
  Ba  Ba7  1  0.83434061  0.65995695  0.37656354  1
  Ba  Ba8  1  0.83329097  0.67376434  0.62278841  1
  Ba  Ba9  1  1.00349260  0.17320993  0.12576714  1
  Ba  Ba10  1  0.00077204  0.16136006  0.37551515  1
  Ba  Ba11  1  0.67196769  0.50919533  0.62300838  1
  Ba  Ba12  1  0.16889285  0.67435515  0.12467508  1
  Ba  Ba13  1  0.83044511  0.32615722  0.87463176  1
  Ba  Ba14  1  1.00415474  0.17969660  0.62624145  1
  Ba  Ba15  1  0.66874450  0.49028122  0.37594285  1
  Ba  Ba16  1  0.49669690  0.01120193  0.12608160  1
  Ba  Ba17  1  0.16666068  0.00581190  0.12866747  1
  Ba  Ba18  1  0.66838518  0.84124768  0.62118340  1
  Ba  Ba19  1  0.16810364  0.35155681  0.62366788  1
  Ba  Ba20  1  0.49349293  0.67439214  0.12559159  1
  Ba  Ba21  1  0.83528467  0.32964277  0.37705961  1
  Ba  Ba22  1  0.49741080  0.00941325  0.62393538  1
  Ba  Ba23  1  0.16452116  0.67586184  0.62437102  1
  Ba  Ba24  1  0.66381106  0.50841383  0.13048032  1
  Ba  Ba25  1  0.00060740  0.49457804  0.37632077  1
  Ba  Ba26  1  0.66838419  0.15362718  0.87278402  1
  Ba  Ba27  1  0.32863163  0.82657316  0.37320642  1
  Ba  Ba28  1  0.66734181  0.82054248  0.37543549  1
  Ba  Ba29  1  0.33854249  0.82940168  0.87415264  1
  Ba  Ba30  1  0.33469787  0.84713273  0.12353221  1
  Ba  Ba31  1  1.00339509  0.51584217  0.62231981  1
  Ba  Ba32  1  0.50218795  0.32388389  0.37610319  1
  Ba  Ba33  1  0.50474829  0.99309037  0.87517712  1
  Ba  Ba34  1  0.33081431  0.48613265  0.37540528  1
  Ba  Ba35  1  0.66780469  0.17528363  0.12048439  1
  La  La36  1  0.83044206  0.67624174  0.12849776  1
  La  La37  1  0.33374034  0.15331845  0.87375990  1
  La  La38  1  0.50964542  0.65510793  0.86664830  1
  La  La39  1  0.49337557  0.68355112  0.62275640  1
  La  La40  1  0.66753644  0.17238364  0.62780583  1
  La  La41  1  0.82698466  0.00809855  0.62045094  1
  La  La42  1  0.16826830  0.32101476  0.87527232  1
  La  La43  1  0.84096744  0.98407035  0.37468858  1
  La  La44  1  0.49859786  0.98385404  0.37388093  1
  La  La45  1  0.16238024  0.00798556  0.62334053  1
  La  La46  1  1.00003569  0.51103603  0.12518067  1
  La  La47  1  0.50447704  0.65088793  0.37856429  1
  La  La48  1  0.83828062  0.98347387  0.87207769  1
  La  La49  1  0.50925211  0.31105519  0.87523880  1
  La  La50  1  0.17268276  0.99250386  0.87775541  1
  La  La51  1  -0.00434961  0.81530174  0.87478835  1
  La  La52  1  0.66161487  0.48005800  0.87226485  1
  La  La53  1  0.32608379  0.15599991  0.37807452  1
  La  La54  1  0.34377683  0.51351792  0.13072676  1
  La  La55  1  0.33840574  0.18347066  0.62417104  1
  La  La56  1  -0.00552169  0.14872300  0.87334416  1
  La  La57  1  1.00084521  0.83808412  0.62611056  1
  La  La58  1  0.49193977  0.34782180  0.62366158  1
  La  La59  1  0.49338077  0.34724910  0.12918641  1
  La  La60  1  0.66778838  0.84578420  0.12553908  1
  La  La61  1  0.33229075  0.49662123  0.87545573  1
  La  La62  1  1.00715395  0.84440828  0.12860946  1
  La  La63  1  0.34005103  0.17658955  0.13038233  1
  La  La64  1  0.16874339  0.64937525  0.37488291  1
  La  La65  1  0.82504196  0.01489658  0.12967470  1
  La  La66  1  0.16805280  0.65072421  0.87271674  1
  La  La67  1  0.66123465  0.82222151  0.86985841  1
  La  La68  1  0.16740564  0.35316665  0.12686909  1
  La  La69  1  0.83107478  0.34973381  0.12783095  1
  La  La70  1  -0.00428489  0.48832399  0.87420479  1
  La  La71  1  0.65992531  0.15803085  0.37428617  1
  In  In72  1  0.66484266  0.32907966  0.50131725  1
  In  In73  1  0.83667602  0.16654467  0.74698566  1
  In  In74  1  0.66485183  0.00001659  0.25239341  1
  In  In75  1  0.50119292  0.83085445  0.00088157  1
  In  In76  1  0.49861948  0.49769724  -0.00223591  1
  In  In77  1  0.66887464  -0.00243428  -0.00067311  1
  In  In78  1  0.49989471  0.83365197  0.49700511  1
  In  In79  1  0.16802961  0.16998377  0.00181571  1
  In  In80  1  0.83471466  0.50126117  0.50029061  1
  In  In81  1  0.16684433  0.82972039  0.25234366  1
  In  In82  1  0.83250944  0.50179592  0.75229788  1
  In  In83  1  0.66538067  0.66466701  0.00221573  1
  In  In84  1  0.16945695  0.16817825  0.50363910  1
  In  In85  1  0.66676021  0.00000036  0.49684105  1
  In  In86  1  0.83071585  0.50228538  -0.00133721  1
  In  In87  1  0.33372964  0.33401025  -0.00165962  1
  In  In88  1  0.33751295  0.33673126  0.75564728  1
  In  In89  1  0.00247645  0.33308901  0.24778649  1
  In  In90  1  0.00151785  0.33258367  0.00029678  1
  In  In91  1  -0.00029725  -0.00338460  -0.00141417  1
  In  In92  1  -0.00354921  0.00055423  0.50401119  1
  In  In93  1  0.00262193  0.33428050  0.49995695  1
  In  In94  1  0.33338282  0.66745673  -0.00334235  1
  In  In95  1  0.83587250  0.16653695  -0.00239690  1
  In  In96  1  0.66590638  0.33187196  0.24804892  1
  In  In97  1  0.16687088  0.16814237  0.75174854  1
  In  In98  1  0.83485177  0.82927059  0.24799762  1
  In  In99  1  0.16411685  0.83454644  0.75214776  1
  In  In100  1  0.83510529  0.83144828  0.00140771  1
  In  In101  1  0.33421665  0.00120724  0.25150919  1
  In  In102  1  0.33187083  0.66843776  0.49884457  1
  In  In103  1  0.49974684  0.83800233  0.74743812  1
  In  In104  1  0.16441519  0.83140058  -0.00164975  1
  In  In105  1  0.33290778  0.66679251  0.75075054  1
  In  In106  1  0.83220415  0.16961766  0.25121962  1
  In  In107  1  0.66212309  0.33031222  0.74478875  1
  Ir  Ir108  1  0.17251879  0.16803605  0.24943994  1
  Ir  Ir109  1  0.00455518  0.67232124  0.49870396  1
  Ir  Ir110  1  0.49998342  0.82892408  0.25202207  1
  Ir  Ir111  1  0.33541959  0.66422827  0.25331756  1
  Ir  Ir112  1  0.17155684  0.50194064  0.24377765  1
  Ir  Ir113  1  0.66476524  0.66774343  0.74650174  1
  Ir  Ir114  1  0.83279134  0.83354436  0.74937542  1
  Ir  Ir115  1  0.16239523  0.50185794  0.75700512  1
  Ir  Ir116  1  0.33149549  0.33101273  0.24947106  1
  Ir  Ir117  1  -0.00028576  -0.00471564  0.74799154  1
  Ir  Ir118  1  0.16878573  0.50380992  0.49864018  1
  Ir  Ir119  1  0.66102566  0.33234022  0.00175911  1
  Ir  Ir120  1  0.16476757  0.50138735  -0.00118996  1
  Ir  Ir121  1  0.33911926  0.33304125  0.49954049  1
  Ir  Ir122  1  0.49596172  0.16343874  0.49815777  1
  Ir  Ir123  1  0.49477271  0.16755963  0.25431004  1
  Ir  Ir124  1  0.66202756  0.66583116  0.25161266  1
  Ir  Ir125  1  0.83613848  0.50363398  0.24713584  1
  Ir  Ir126  1  0.50112485  0.50189535  0.74707897  1
  Ir  Ir127  1  0.82787194  0.16321576  0.50258969  1
  Ir  Ir128  1  0.66352164  0.66494712  0.49869549  1
  Ir  Ir129  1  0.16591743  0.83557670  0.50161152  1
  Ir  Ir130  1  0.49968219  0.16290251  0.74591620  1
  Ir  Ir131  1  0.33430775  0.00675079  -0.00436778  1
  Ir  Ir132  1  0.49753376  0.49941408  0.25448370  1
  Ir  Ir133  1  0.83652120  0.83080335  0.50300562  1
  Ir  Ir134  1  0.00726926  0.33851318  0.75420684  1
  Ir  Ir135  1  -0.00488640  -0.00070784  0.25132161  1
  Ir  Ir136  1  0.50225587  0.50037001  0.50277428  1
  Ir  Ir137  1  0.33189277  0.00375550  0.50378745  1
  Ir  Ir138  1  0.32957253  0.00543917  0.75060548  1
  Ir  Ir139  1  0.00052930  0.66282633  -0.00032118  1
  Ir  Ir140  1  0.00120916  0.66999246  0.75333352  1
  Ir  Ir141  1  0.67127638  -0.00157101  0.74672326  1
  Ir  Ir142  1  -0.00001925  0.66157315  0.24598764  1
  Ir  Ir143  1  0.49803147  0.16897104  0.00376833  1
  O  O144  1  0.30329600  0.31872606  0.12961576  1
  O  O145  1  0.32234063  0.32716356  0.62270505  1
  O  O146  1  0.31656756  0.65491554  0.13268675  1
  O  O147  1  0.31446284  0.66235670  0.62539026  1
  O  O148  1  0.31973388  1.01098599  0.11691797  1
  O  O149  1  0.29874969  1.00029628  0.62742855  1
  O  O150  1  0.63036313  0.33424141  0.12050860  1
  O  O151  1  0.62455646  0.31488178  0.62285916  1
  O  O152  1  0.64195324  0.66301566  0.13416614  1
  O  O153  1  0.63287281  0.66416271  0.62111330  1
  O  O154  1  0.64322205  0.98354321  0.12710526  1
  O  O155  1  0.64865649  0.99965110  0.62684733  1
  O  O156  1  0.96693001  0.33337867  0.12430533  1
  O  O157  1  0.98709527  0.33545865  0.63549784  1
  O  O158  1  0.96848035  0.64904807  0.12162486  1
  O  O159  1  0.98229380  0.67780179  0.62666182  1
  O  O160  1  0.96467863  0.99103040  0.13036494  1
  O  O161  1  0.96253730  0.98494060  0.63130850  1
  O  O162  1  0.20354869  0.16311844  0.12960545  1
  O  O163  1  0.20259608  0.15449196  0.62973631  1
  O  O164  1  0.20431662  0.49513739  0.11992446  1
  O  O165  1  0.18469560  0.50555313  0.62830454  1
  O  O166  1  0.18447073  0.82784751  0.12541337  1
  O  O167  1  0.18572376  0.83332661  0.62115944  1
  O  O168  1  0.51917199  0.16610810  0.12978430  1
  O  O169  1  0.52942714  0.16003854  0.62162725  1
  O  O170  1  0.51403111  0.49133230  0.13263879  1
  O  O171  1  0.52607826  0.48443061  0.62575533  1
  O  O172  1  0.53034433  0.82979159  0.13278890  1
  O  O173  1  0.51882957  0.82807369  0.62289099  1
  O  O174  1  0.85681853  0.14851564  0.12309650  1
  O  O175  1  0.85832860  0.14547832  0.62097247  1
  O  O176  1  0.85992231  0.49380316  0.12627072  1
  O  O177  1  0.85055798  0.50845955  0.62822273  1
  O  O178  1  0.87210880  0.81429888  0.12472961  1
  O  O179  1  0.86412749  0.83047104  0.62688881  1
  O  O180  1  0.15421952  0.17010214  0.37027081  1
  O  O181  1  0.13069601  0.17941087  0.87435072  1
  O  O182  1  0.14880555  0.51020274  0.37040807  1
  O  O183  1  0.13031582  0.50935556  0.87877816  1
  O  O184  1  0.14658723  0.83807992  0.38234624  1
  O  O185  1  0.12945785  0.85516582  0.87524180  1
  O  O186  1  0.46153209  0.17062736  0.37682963  1
  O  O187  1  0.46949622  0.17414461  0.87535344  1
  O  O188  1  0.47759302  0.51231615  0.38038995  1
  O  O189  1  0.47030915  0.51393516  0.86609174  1
  O  O190  1  0.47780953  0.83552534  0.36941761  1
  O  O191  1  0.49258398  0.83559158  0.87282128  1
  O  O192  1  0.79623939  0.17291315  0.38403809  1
  O  O193  1  0.81667566  0.17076996  0.87057981  1
  O  O194  1  0.82016994  0.50576103  0.36703793  1
  O  O195  1  0.79584460  0.50587399  0.87573206  1
  O  O196  1  0.81844959  0.83869407  0.37991291  1
  O  O197  1  0.79922852  0.83960584  0.86864329  1
  O  O198  1  0.01154665  0.00025095  0.37241256  1
  O  O199  1  0.03612434  0.00611306  0.86407047  1
  O  O200  1  0.02126569  0.33751766  0.37210985  1
  O  O201  1  0.03595032  0.35039901  0.87348624  1
  O  O202  1  0.03235731  0.66836391  0.37040762  1
  O  O203  1  0.03231164  0.67650631  0.87777558  1
  O  O204  1  0.36300023  0.01520838  0.38296260  1
  O  O205  1  0.35858511  0.01439166  0.87187987  1
  O  O206  1  0.35527475  0.33186869  0.37337689  1
  O  O207  1  0.37632421  0.35530585  0.87690927  1
  O  O208  1  0.36501852  0.66635131  0.37091367  1
  O  O209  1  0.37085150  0.65339065  0.87216769  1
  O  O210  1  0.70392793  0.01267979  0.37550002  1
  O  O211  1  0.69917261  -0.00447774  0.86698992  1
  O  O212  1  0.67919443  0.32111624  0.37432214  1
  O  O213  1  0.67658283  0.33623643  0.88031929  1
  O  O214  1  0.68489424  0.66506256  0.37411653  1
  O  O215  1  0.67946834  0.68192500  0.86719844  1
  O  O216  1  0.07624183  0.09172889  0.01117416  1
  O  O217  1  0.08101046  0.08401573  0.52470932  1
  O  O218  1  0.07430791  0.43650681  0.02844252  1
  O  O219  1  0.08266030  0.43235227  0.51339362  1
  O  O220  1  0.05942654  0.75896349  0.02081346  1
  O  O221  1  0.07091172  0.77002169  0.52296389  1
  O  O222  1  0.39792984  0.10722250  0.01656227  1
  O  O223  1  0.39670406  0.10089298  0.52585661  1
  O  O224  1  0.40329291  0.42503077  0.03559954  1
  O  O225  1  0.41313563  0.42430808  0.52240246  1
  O  O226  1  0.40187076  0.76373635  0.01602792  1
  O  O227  1  0.41137277  0.75542552  0.51800441  1
  O  O228  1  0.74373472  0.08874123  0.01805351  1
  O  O229  1  0.73634904  0.09641952  0.52678688  1
  O  O230  1  0.73020401  0.42357489  0.01669211  1
  O  O231  1  0.74318553  0.41987589  0.51354107  1
  O  O232  1  0.73449440  0.76522997  0.02633805  1
  O  O233  1  0.73843361  0.75604984  0.51662558  1
  O  O234  1  0.11042484  0.27720448  0.02101117  1
  O  O235  1  0.09466224  0.25888938  0.51828993  1
  O  O236  1  0.09410652  0.59356923  0.02068723  1
  O  O237  1  0.10072388  0.60324229  0.50481487  1
  O  O238  1  0.08371399  0.91781726  0.03048536  1
  O  O239  1  0.09454000  0.92482529  0.52799631  1
  O  O240  1  0.43246850  0.26184661  0.02690419  1
  O  O241  1  0.43144275  0.26048030  0.52740550  1
  O  O242  1  0.41619154  0.58169335  0.02249516  1
  O  O243  1  0.43804156  0.59440574  0.52016352  1
  O  O244  1  0.42267916  0.93431614  0.01062359  1
  O  O245  1  0.42090020  0.93333569  0.50975088  1
  O  O246  1  0.75951275  0.27121900  0.02369395  1
  O  O247  1  0.75571652  0.24685365  0.53328017  1
  O  O248  1  0.76725272  0.60215102  0.02668595  1
  O  O249  1  0.75152067  0.59428816  0.51066914  1
  O  O250  1  0.77253696  0.93136902  0.02821377  1
  O  O251  1  0.76873429  0.92483561  0.51834914  1
  O  O252  1  0.24316250  0.08124695  0.27312357  1
  O  O253  1  0.24090754  0.07343817  0.78156268  1
  O  O254  1  0.23731752  0.40413295  0.25984790  1
  O  O255  1  0.23470903  0.41049696  0.78190812  1
  O  O256  1  0.24105651  0.72959187  0.27539129  1
  O  O257  1  0.23252612  0.73696879  0.77849746  1
  O  O258  1  0.56192096  0.07386917  0.28264695  1
  O  O259  1  0.57646942  0.06925918  0.76433654  1
  O  O260  1  0.56865084  0.40944641  0.26285276  1
  O  O261  1  0.56369220  0.40659231  0.77606454  1
  O  O262  1  0.56567334  0.73142251  0.27492826  1
  O  O263  1  0.57126151  0.73159323  0.76143073  1
  O  O264  1  0.90149757  0.06412556  0.27289697  1
  O  O265  1  0.90980180  0.06401171  0.77536096  1
  O  O266  1  0.90358956  0.41346506  0.25858714  1
  O  O267  1  0.91623535  0.40885252  0.77536447  1
  O  O268  1  0.90727017  0.72785318  0.26004286  1
  O  O269  1  0.90743275  0.74334371  0.77513891  1
  O  O270  1  0.26895874  0.23254098  0.27203146  1
  O  O271  1  0.26741261  0.24056332  0.77876256  1
  O  O272  1  0.26207524  0.57482476  0.27261314  1
  O  O273  1  0.25695899  0.56722230  0.78125493  1
  O  O274  1  0.25462459  0.91333854  0.26319056  1
  O  O275  1  0.25375227  0.91978130  0.77408419  1
  O  O276  1  0.59114067  0.22889828  0.27060835  1
  O  O277  1  0.58598940  0.23452874  0.77079342  1
  O  O278  1  0.58609747  0.57576827  0.27855244  1
  O  O279  1  0.59832516  0.56949327  0.77497927  1
  O  O280  1  0.58677986  0.90301502  0.27326007  1
  O  O281  1  0.60551166  0.90532030  0.76889961  1
  O  O282  1  0.92724837  0.23989596  0.26764228  1
  O  O283  1  0.94268280  0.24088565  0.77133829  1
  O  O284  1  0.93477854  0.56699600  0.25641813  1
  O  O285  1  0.93591337  0.57596555  0.77782385  1
  O  O286  1  0.92456274  0.91135219  0.26853505  1
  O  O287  1  0.92955792  0.90082624  0.77655464  1
  O  O288  1  0.27448028  0.23696007  0.48684974  1
  O  O289  1  0.26568414  0.24053639  0.96386141  1
  O  O290  1  0.25524205  0.57687807  0.47632336  1
  O  O291  1  0.25508597  0.56863644  0.96911518  1
  O  O292  1  0.25920483  0.91031596  0.48236941  1
  O  O293  1  0.25863108  0.91970079  0.97656125  1
  O  O294  1  0.59161014  0.22362760  0.47765851  1
  O  O295  1  0.59052947  0.23980181  0.97750241  1
  O  O296  1  0.59051343  0.57483678  0.47601503  1
  O  O297  1  0.59819723  0.56335214  0.97077467  1
  O  O298  1  0.58729970  0.91351074  0.47284730  1
  O  O299  1  0.60832021  0.89241208  0.98500679  1
  O  O300  1  0.91661839  0.23403253  0.48937866  1
  O  O301  1  0.94055154  0.23082346  0.97236676  1
  O  O302  1  0.93158770  0.58535703  0.48488282  1
  O  O303  1  0.93953749  0.56771926  0.97942682  1
  O  O304  1  0.92290556  0.90351747  0.48625575  1
  O  O305  1  0.92788529  0.90086196  0.96087452  1
  O  O306  1  0.24581222  0.07398163  0.48231983  1
  O  O307  1  0.24499109  0.07600170  0.96895864  1
  O  O308  1  0.24340159  0.40820209  0.48670494  1
  O  O309  1  0.23241684  0.40942110  0.97337590  1
  O  O310  1  0.23116787  0.74133011  0.47584685  1
  O  O311  1  0.23235313  0.73376843  0.97028406  1
  O  O312  1  0.56220589  0.07274600  0.46839482  1
  O  O313  1  0.56923180  0.07889616  0.98724299  1
  O  O314  1  0.56767282  0.40834836  0.48941711  1
  O  O315  1  0.56442289  0.39608766  0.97628396  1
  O  O316  1  0.57172310  0.73134689  0.48029391  1
  O  O317  1  0.56483846  0.72643406  0.97667322  1
  O  O318  1  0.89231912  0.06734937  0.47836077  1
  O  O319  1  0.90763604  0.06568897  0.96298250  1
  O  O320  1  0.91260380  0.41079702  0.49001668  1
  O  O321  1  0.90898273  0.41090193  0.97928323  1
  O  O322  1  0.90949075  0.74106110  0.48492498  1
  O  O323  1  0.91066125  0.73130469  0.97955513  1
  O  O324  1  0.10873320  0.26273713  0.22258278  1
  O  O325  1  0.10090452  0.27280314  0.73935077  1
  O  O326  1  0.09712254  0.59229038  0.22885059  1
  O  O327  1  0.09808899  0.60292518  0.74259934  1
  O  O328  1  0.07953825  0.92256834  0.23234422  1
  O  O329  1  0.08732748  0.92783983  0.71461146  1
  O  O330  1  0.42712241  0.26342746  0.22355951  1
  O  O331  1  0.43310276  0.25652189  0.72598592  1
  O  O332  1  0.42368169  0.58777897  0.23264852  1
  O  O333  1  0.44201193  0.59531813  0.72172717  1
  O  O334  1  0.43204506  0.92401496  0.24139503  1
  O  O335  1  0.41733329  0.93341651  0.73487815  1
  O  O336  1  0.76489781  0.26912080  0.21796769  1
  O  O337  1  0.75096910  0.24979718  0.72279976  1
  O  O338  1  0.76400773  0.60018748  0.22760629  1
  O  O339  1  0.75358592  0.60044192  0.73529811  1
  O  O340  1  0.76006234  0.92184461  0.22493513  1
  O  O341  1  0.76973776  0.93319284  0.72626394  1
  O  O342  1  0.07698332  0.09405446  0.23376780  1
  O  O343  1  0.07314363  0.08287088  0.72445355  1
  O  O344  1  0.08109471  0.43234667  0.21522151  1
  O  O345  1  0.06797828  0.43706141  0.73881391  1
  O  O346  1  0.06425140  0.75627644  0.22664898  1
  O  O347  1  0.06062554  0.76817891  0.73603998  1
  O  O348  1  0.40017518  0.10476294  0.23557593  1
  O  O349  1  0.39784183  0.10084096  0.72653580  1
  O  O350  1  0.40358568  0.42474139  0.22526718  1
  O  O351  1  0.41070242  0.43272479  0.72783363  1
  O  O352  1  0.40489794  0.75856926  0.23114838  1
  O  O353  1  0.41063166  0.75704594  0.73024378  1
  O  O354  1  0.73874148  0.09364302  0.23122469  1
  O  O355  1  0.73933463  0.08753048  0.72224445  1
  O  O356  1  0.74783524  0.43058486  0.23126684  1
  O  O357  1  0.73552883  0.42442550  0.74268787  1
  O  O358  1  0.73353337  0.75604256  0.22523476  1
  O  O359  1  0.73251920  0.76458490  0.73270977  1
