# generated using pymatgen
data_BaLaInIrO6
_symmetry_space_group_name_H-M   'P 1'
_cell_length_a   17.54706054
_cell_length_b   17.58446528
_cell_length_c   16.50401919
_cell_angle_alpha   90.03615628
_cell_angle_beta   89.98339601
_cell_angle_gamma   90.05290835
_symmetry_Int_Tables_number   1
_chemical_formula_structural   BaLaInIrO6
_chemical_formula_sum   'Ba36 La36 In36 Ir36 O216'
_cell_volume   5092.40541339
_cell_formula_units_Z   36
loop_
 _symmetry_equiv_pos_site_id
 _symmetry_equiv_pos_as_xyz
  1  'x, y, z'
loop_
 _atom_site_type_symbol
 _atom_site_label
 _atom_site_symmetry_multiplicity
 _atom_site_fract_x
 _atom_site_fract_y
 _atom_site_fract_z
 _atom_site_occupancy
  Ba  Ba0  1  1.00182998  0.51287097  0.12531741  1
  Ba  Ba1  1  0.16850333  0.99081416  0.37522038  1
  Ba  Ba2  1  0.66318247  0.82150573  0.87572065  1
  Ba  Ba3  1  0.66433500  0.48805887  0.87625729  1
  Ba  Ba4  1  0.16578314  0.34600737  0.12508831  1
  Ba  Ba5  1  0.67018680  0.16160913  0.37620294  1
  Ba  Ba6  1  0.32692419  0.15429476  0.37508595  1
  Ba  Ba7  1  0.82835590  0.33678018  0.62578884  1
  Ba  Ba8  1  0.83060212  0.99065772  0.87661783  1
  Ba  Ba9  1  0.67246525  0.84268150  0.62702652  1
  Ba  Ba10  1  0.99983505  0.50756383  0.62442655  1
  Ba  Ba11  1  -0.00385830  0.48657625  0.87568354  1
  Ba  Ba12  1  0.67273391  0.50773866  0.62626000  1
  Ba  Ba13  1  0.66685989  0.17389262  0.62942295  1
  Ba  Ba14  1  -0.00529455  0.16034183  0.37053840  1
  Ba  Ba15  1  0.66568908  0.17618255  0.12185466  1
  Ba  Ba16  1  0.33422209  0.82458782  0.87483801  1
  Ba  Ba17  1  0.33250765  0.15926293  0.87003891  1
  Ba  Ba18  1  0.50015457  0.33756378  0.62845686  1
  Ba  Ba19  1  0.33399296  0.50983409  0.12149495  1
  Ba  Ba20  1  0.83019118  0.65655737  0.87332661  1
  Ba  Ba21  1  0.33470463  0.84433144  0.12641270  1
  Ba  Ba22  1  0.33044227  0.82513719  0.37663196  1
  Ba  Ba23  1  0.33916461  0.84986081  0.62657644  1
  Ba  Ba24  1  0.50080991  0.31901462  0.87649196  1
  Ba  Ba25  1  0.16501339  0.32121963  0.37437536  1
  Ba  Ba26  1  0.66418379  0.15949344  0.87312604  1
  Ba  Ba27  1  0.83313984  0.67381047  0.62947237  1
  Ba  Ba28  1  0.66659134  0.84118448  0.12424870  1
  Ba  Ba29  1  0.49726832  0.66181509  0.37461258  1
  Ba  Ba30  1  0.99621064  0.84042022  0.62295321  1
  Ba  Ba31  1  0.33586069  0.49182917  0.87779883  1
  Ba  Ba32  1  0.00357544  0.82307668  0.37456554  1
  Ba  Ba33  1  0.83776281  0.65966574  0.37363630  1
  Ba  Ba34  1  0.66704591  0.50852239  0.12315883  1
  Ba  Ba35  1  0.50272295  0.01058622  0.62338943  1
  La  La36  1  0.82818760  0.32911854  0.87431411  1
  La  La37  1  0.50799657  0.99053696  0.87133120  1
  La  La38  1  0.49970723  0.68244093  0.63039938  1
  La  La39  1  0.16771379  0.01464836  0.62405312  1
  La  La40  1  0.17128801  0.32093114  0.87754535  1
  La  La41  1  0.16384195  0.68330622  0.12730570  1
  La  La42  1  1.00642506  0.84703400  0.12811980  1
  La  La43  1  0.99800000  0.17582419  0.62984365  1
  La  La44  1  0.17338766  0.98631005  0.86768904  1
  La  La45  1  0.84458986  0.98342323  0.37346751  1
  La  La46  1  -0.00768891  0.81681346  0.87546901  1
  La  La47  1  0.49460399  0.01686367  0.12282498  1
  La  La48  1  0.82247933  0.01329062  0.62516881  1
  La  La49  1  0.49880416  0.98578763  0.37463119  1
  La  La50  1  0.34258646  0.51554735  0.62925828  1
  La  La51  1  0.33695868  0.18045702  0.12989149  1
  La  La52  1  -0.00516495  0.15688339  0.87938498  1
  La  La53  1  0.82804787  0.68154387  0.11928051  1
  La  La54  1  0.66295788  0.81686090  0.37723687  1
  La  La55  1  0.34074538  0.17581566  0.62250713  1
  La  La56  1  0.49521536  0.67975063  0.12192473  1
  La  La57  1  0.82887626  0.34439930  0.12274915  1
  La  La58  1  0.50397783  0.31774876  0.37057299  1
  La  La59  1  0.66267118  0.48480880  0.37709793  1
  La  La60  1  0.49246182  0.35025099  0.12138385  1
  La  La61  1  0.83079876  0.01523853  0.12396436  1
  La  La62  1  0.32489502  0.48865754  0.37504806  1
  La  La63  1  0.17238178  0.64900923  0.87619433  1
  La  La64  1  0.15883843  0.68634320  0.62623455  1
  La  La65  1  -0.00138828  0.48042167  0.37033206  1
  La  La66  1  0.16592920  0.01269922  0.12646711  1
  La  La67  1  0.17554071  0.65470375  0.37863257  1
  La  La68  1  1.00279448  0.18579678  0.12147412  1
  La  La69  1  0.82267567  0.33273674  0.37274255  1
  La  La70  1  0.50673543  0.65198000  0.87772451  1
  La  La71  1  0.16353519  0.33981586  0.62911509  1
  In  In72  1  0.83369624  0.49718712  0.75065096  1
  In  In73  1  0.83344422  0.83217231  0.49961747  1
  In  In74  1  0.83271417  0.49917033  0.49575578  1
  In  In75  1  0.00186591  0.00013459  -0.00008597  1
  In  In76  1  0.50144502  0.83572648  0.24934939  1
  In  In77  1  0.83394397  0.50119831  0.00064602  1
  In  In78  1  0.33344727  0.66731271  0.50439891  1
  In  In79  1  0.16546464  0.16523554  0.25034531  1
  In  In80  1  -0.00059784  0.00165480  0.50227461  1
  In  In81  1  0.83461931  0.83315325  0.24532761  1
  In  In82  1  0.33183889  0.33385840  -0.00172359  1
  In  In83  1  -0.00070006  0.32897951  0.50083118  1
  In  In84  1  -0.00059105  -0.00100008  0.75073859  1
  In  In85  1  0.83507883  0.16783402  0.49796502  1
  In  In86  1  0.33188955  0.66757054  0.24735237  1
  In  In87  1  0.50097378  0.83532267  0.50160754  1
  In  In88  1  0.67059693  0.00128764  0.49473147  1
  In  In89  1  0.66667580  0.00054941  0.00241805  1
  In  In90  1  0.66961611  0.00040152  0.25026480  1
  In  In91  1  0.49726887  0.50112394  0.50079349  1
  In  In92  1  0.49846720  0.50379828  0.25111592  1
  In  In93  1  0.33266536  0.33480881  0.50134645  1
  In  In94  1  0.16943153  0.49849340  0.50306536  1
  In  In95  1  0.33304306  0.00232707  -0.00362085  1
  In  In96  1  0.16561067  0.83324917  -0.00301319  1
  In  In97  1  0.33173092  0.33448326  0.74970256  1
  In  In98  1  0.83397463  0.50368377  0.24749649  1
  In  In99  1  0.00340621  0.66515249  0.75243489  1
  In  In100  1  0.16926269  0.49787466  0.75088938  1
  In  In101  1  0.83311069  0.16977420  0.24521011  1
  In  In102  1  0.00383397  0.66350897  0.49609272  1
  In  In103  1  0.33322209  0.33489600  0.25147022  1
  In  In104  1  0.16552801  0.16385039  -0.00283366  1
  In  In105  1  0.49954530  0.83509046  -0.00075896  1
  In  In106  1  0.66163503  0.33217665  0.50144358  1
  In  In107  1  0.33200646  0.66953306  0.75285463  1
  Ir  Ir108  1  0.66615087  0.66554690  0.49698093  1
  Ir  Ir109  1  0.66445913  0.66638162  0.00219902  1
  Ir  Ir110  1  0.66382515  0.32974642  0.75522081  1
  Ir  Ir111  1  0.16915233  0.16476807  0.50743353  1
  Ir  Ir112  1  0.83977421  0.82990584  -0.00112633  1
  Ir  Ir113  1  0.16564326  0.83805254  0.74872273  1
  Ir  Ir114  1  0.00183518  0.66992562  0.00463750  1
  Ir  Ir115  1  0.49795627  0.16567320  0.24980374  1
  Ir  Ir116  1  0.49467350  0.16448639  0.49620543  1
  Ir  Ir117  1  0.50406101  0.50193793  0.74934035  1
  Ir  Ir118  1  0.83292536  0.83267506  0.75777446  1
  Ir  Ir119  1  -0.00161843  0.33370882  0.24477038  1
  Ir  Ir120  1  0.16610997  0.83498822  0.25089635  1
  Ir  Ir121  1  0.16381872  0.16502333  0.74718201  1
  Ir  Ir122  1  -0.00117451  -0.00114347  0.24559260  1
  Ir  Ir123  1  0.00034350  0.33284716  -0.00178037  1
  Ir  Ir124  1  0.66189033  0.33214785  0.24440169  1
  Ir  Ir125  1  0.66786736  0.00075296  0.75162223  1
  Ir  Ir126  1  0.49859798  0.16662277  0.00276189  1
  Ir  Ir127  1  0.66256149  0.66747115  0.75116502  1
  Ir  Ir128  1  0.50315692  0.50123713  -0.00039447  1
  Ir  Ir129  1  0.83703503  0.17010074  -0.00124056  1
  Ir  Ir130  1  0.66322615  0.33004364  0.00374403  1
  Ir  Ir131  1  0.16146676  0.50366790  0.00333271  1
  Ir  Ir132  1  0.33146247  0.66420528  -0.00086459  1
  Ir  Ir133  1  0.33204276  0.00138339  0.24864028  1
  Ir  Ir134  1  0.83517045  0.16697060  0.75946876  1
  Ir  Ir135  1  0.00537415  0.66747719  0.24747159  1
  Ir  Ir136  1  0.66866834  0.66522998  0.24825971  1
  Ir  Ir137  1  0.33454784  0.00174427  0.74856252  1
  Ir  Ir138  1  0.17035551  0.83738401  0.50267554  1
  Ir  Ir139  1  0.16134687  0.50435773  0.24976872  1
  Ir  Ir140  1  0.33176205  0.00327688  0.50110838  1
  Ir  Ir141  1  0.00185199  0.32620676  0.75506352  1
  Ir  Ir142  1  0.49799165  0.16341075  0.74801082  1
  Ir  Ir143  1  0.50020601  0.83647529  0.75063427  1
  O  O144  1  0.31600650  0.32054479  0.12330979  1
  O  O145  1  0.29967464  0.31696641  0.62706651  1
  O  O146  1  0.29870509  0.66497360  0.11825184  1
  O  O147  1  0.29466681  0.65509330  0.62924470  1
  O  O148  1  0.30364607  1.00134145  0.12868448  1
  O  O149  1  0.30361964  1.00562884  0.62521537  1
  O  O150  1  0.62951799  0.33249500  0.12487292  1
  O  O151  1  0.65073698  0.33243976  0.63351214  1
  O  O152  1  0.63437120  0.66404054  0.12616680  1
  O  O153  1  0.63490307  0.66314040  0.62327682  1
  O  O154  1  0.63038636  1.00009600  0.12580659  1
  O  O155  1  0.65393370  1.00144830  0.63210538  1
  O  O156  1  0.96837068  0.33148445  0.11970836  1
  O  O157  1  0.97957623  0.31980126  0.63673680  1
  O  O158  1  0.96902698  0.66618403  0.12543579  1
  O  O159  1  0.99010362  0.66792026  0.62513923  1
  O  O160  1  0.96681356  0.98675636  0.12720946  1
  O  O161  1  0.96113217  1.00253968  0.62920675  1
  O  O162  1  0.20046859  0.15299034  0.12347415  1
  O  O163  1  0.20221120  0.15822330  0.62860708  1
  O  O164  1  0.18353920  0.50022012  0.12666419  1
  O  O165  1  0.20512329  0.47670477  0.62721617  1
  O  O166  1  0.18491874  0.82326477  0.13096438  1
  O  O167  1  0.19311519  0.82296961  0.62647058  1
  O  O168  1  0.52027434  0.15145800  0.12594072  1
  O  O169  1  0.51855513  0.16271197  0.62151439  1
  O  O170  1  0.52067094  0.49076255  0.11924586  1
  O  O171  1  0.52607366  0.49401979  0.63289278  1
  O  O172  1  0.51828868  0.81883205  0.12404600  1
  O  O173  1  0.52198235  0.82997207  0.63135122  1
  O  O174  1  0.86660927  0.15870500  0.11648964  1
  O  O175  1  0.86052452  0.15663860  0.63905221  1
  O  O176  1  0.85213685  0.48178222  0.12432958  1
  O  O177  1  0.84698440  0.49249566  0.62420917  1
  O  O178  1  0.87004318  0.81893428  0.11689755  1
  O  O179  1  0.84605526  0.83090527  0.63882296  1
  O  O180  1  0.14600020  0.16269510  0.38547124  1
  O  O181  1  0.13011104  0.17432026  0.86579637  1
  O  O182  1  0.13297032  0.51490927  0.36802322  1
  O  O183  1  0.14183504  0.51358018  0.88405611  1
  O  O184  1  0.14961210  0.84173661  0.37876180  1
  O  O185  1  0.13145565  0.85024842  0.86836404  1
  O  O186  1  0.47255902  0.18094276  0.37270921  1
  O  O187  1  0.47912212  0.16314808  0.87615668  1
  O  O188  1  0.46032055  0.50955951  0.37525344  1
  O  O189  1  0.48378111  0.51455377  0.87336830  1
  O  O190  1  0.48012096  0.84387580  0.37517670  1
  O  O191  1  0.48123014  0.84558637  0.87029869  1
  O  O192  1  0.82614763  0.19598812  0.36878407  1
  O  O193  1  0.81326388  0.18697651  0.88020410  1
  O  O194  1  0.79931443  0.49962601  0.36759088  1
  O  O195  1  0.81675750  0.48937865  0.87720360  1
  O  O196  1  0.79996868  0.84316450  0.36997433  1
  O  O197  1  0.81265423  0.83278837  0.87901535  1
  O  O198  1  0.01986077  0.00576106  0.36425830  1
  O  O199  1  0.03661971  0.01440993  0.87430470  1
  O  O200  1  0.01647695  0.33149111  0.36562203  1
  O  O201  1  0.03365463  0.32755045  0.87684011  1
  O  O202  1  0.04012028  0.67049025  0.36473755  1
  O  O203  1  0.03522927  0.67922030  0.88434041  1
  O  O204  1  0.36198192  0.00187879  0.37451542  1
  O  O205  1  0.36703041  0.00334025  0.86695089  1
  O  O206  1  0.36921190  0.34477500  0.37501884  1
  O  O207  1  0.35247922  0.33153789  0.87414136  1
  O  O208  1  0.34473239  0.66767892  0.37472103  1
  O  O209  1  0.36547516  0.66607349  0.88069981  1
  O  O210  1  0.71059613  0.01062869  0.37191217  1
  O  O211  1  0.68137717  0.00400633  0.87196579  1
  O  O212  1  0.68714555  0.33456434  0.36333373  1
  O  O213  1  0.69214317  0.32726815  0.88078528  1
  O  O214  1  0.69196617  0.67823567  0.37237174  1
  O  O215  1  0.68419966  0.66689029  0.87680122  1
  O  O216  1  0.06838798  0.09800045  0.03072826  1
  O  O217  1  0.07646363  0.09745258  0.53487563  1
  O  O218  1  0.06825750  0.42906185  0.01793757  1
  O  O219  1  0.07455760  0.42129453  0.51441736  1
  O  O220  1  0.06631345  0.76345594  0.02683788  1
  O  O221  1  0.08324702  0.76704998  0.51706216  1
  O  O222  1  0.40306572  0.10308784  0.02642396  1
  O  O223  1  0.39799578  0.09790661  0.52020668  1
  O  O224  1  0.41561326  0.42622496  0.01693135  1
  O  O225  1  0.39860141  0.43366366  0.53343313  1
  O  O226  1  0.40407865  0.75106118  0.01905749  1
  O  O227  1  0.41368239  0.75591380  0.52671189  1
  O  O228  1  0.75035397  0.09362259  0.01706395  1
  O  O229  1  0.74278335  0.09480806  0.52405207  1
  O  O230  1  0.73853310  0.41485039  0.02084613  1
  O  O231  1  0.73057373  0.43101236  0.49760706  1
  O  O232  1  0.74625087  0.75456324  0.02591197  1
  O  O233  1  0.73187343  0.75911398  0.50952649  1
  O  O234  1  0.08716110  0.26142040  0.02032510  1
  O  O235  1  0.10471163  0.25794752  0.52992423  1
  O  O236  1  0.09870452  0.60566517  0.02570468  1
  O  O237  1  0.10935200  0.60351441  0.52033245  1
  O  O238  1  0.09520184  0.92842163  0.03375755  1
  O  O239  1  0.10308660  0.93160002  0.52613169  1
  O  O240  1  0.43227823  0.25767362  0.02862424  1
  O  O241  1  0.42382567  0.25252078  0.51938011  1
  O  O242  1  0.43438440  0.59825727  0.01940420  1
  O  O243  1  0.43012011  0.59627174  0.54158017  1
  O  O244  1  0.43091765  0.93562862  0.02178180  1
  O  O245  1  0.42571764  0.93754880  0.50921475  1
  O  O246  1  0.76648304  0.26498811  0.02298218  1
  O  O247  1  0.76165886  0.26529284  0.50352367  1
  O  O248  1  0.75943394  0.59901848  0.02323878  1
  O  O249  1  0.75709199  0.59950767  0.51262331  1
  O  O250  1  0.77318094  0.92470212  0.02332901  1
  O  O251  1  0.76868397  0.93240001  0.52418079  1
  O  O252  1  0.23884685  0.06552954  0.26202985  1
  O  O253  1  0.23265461  0.06790441  0.76874475  1
  O  O254  1  0.23543750  0.41743038  0.27052003  1
  O  O255  1  0.23032198  0.39743453  0.77920269  1
  O  O256  1  0.22507094  0.73588291  0.26772003  1
  O  O257  1  0.22979780  0.74404757  0.77579578  1
  O  O258  1  0.55977735  0.07096433  0.27362389  1
  O  O259  1  0.57070382  0.06966966  0.77181794  1
  O  O260  1  0.57249600  0.40174083  0.27318524  1
  O  O261  1  0.57329188  0.40409541  0.77247202  1
  O  O262  1  0.58330780  0.73770843  0.26870438  1
  O  O263  1  0.56338877  0.73658240  0.77035164  1
  O  O264  1  0.90327914  0.06252186  0.26430237  1
  O  O265  1  0.91207900  0.08448097  0.78333305  1
  O  O266  1  0.90574270  0.40055804  0.27062785  1
  O  O267  1  0.90903445  0.39141070  0.77542294  1
  O  O268  1  0.91384953  0.73508066  0.26154004  1
  O  O269  1  0.90939979  0.74737482  0.77600476  1
  O  O270  1  0.25955870  0.23987449  0.26265316  1
  O  O271  1  0.24573358  0.23871601  0.77077419  1
  O  O272  1  0.25362071  0.57027127  0.27344525  1
  O  O273  1  0.26198496  0.57460916  0.77652334  1
  O  O274  1  0.26314685  0.90517329  0.26652420  1
  O  O275  1  0.25918156  0.91216258  0.77237831  1
  O  O276  1  0.58906099  0.23953869  0.27115722  1
  O  O277  1  0.58891804  0.23921568  0.76588962  1
  O  O278  1  0.60450895  0.57102555  0.27340777  1
  O  O279  1  0.58982912  0.57964280  0.77496721  1
  O  O280  1  0.60014710  0.90395579  0.28071656  1
  O  O281  1  0.58993578  0.91428390  0.77519643  1
  O  O282  1  0.93411989  0.24089506  0.24438974  1
  O  O283  1  0.93117665  0.23528040  0.78219522  1
  O  O284  1  0.94154195  0.57121699  0.27318438  1
  O  O285  1  0.92678535  0.57369654  0.76663752  1
  O  O286  1  0.93321708  0.90682833  0.26548153  1
  O  O287  1  0.92687274  0.90005265  0.77941376  1
  O  O288  1  0.25828977  0.23247310  0.48820677  1
  O  O289  1  0.24922759  0.24614955  0.97433693  1
  O  O290  1  0.26673672  0.56743929  0.47347891  1
  O  O291  1  0.25414165  0.57499779  0.97823411  1
  O  O292  1  0.26398419  0.90836289  0.48800039  1
  O  O293  1  0.25647420  0.90813944  0.97722348  1
  O  O294  1  0.58207063  0.23831280  0.47965326  1
  O  O295  1  0.59260257  0.23698284  0.98512476  1
  O  O296  1  0.60147605  0.57035405  0.47370940  1
  O  O297  1  0.59106921  0.57771670  0.97817986  1
  O  O298  1  0.59856131  0.90571912  0.47363457  1
  O  O299  1  0.59193697  0.91005695  0.97929847  1
  O  O300  1  0.94175675  0.22556059  0.50607251  1
  O  O301  1  0.93570966  0.23616650  0.98015260  1
  O  O302  1  0.93760217  0.56144922  0.47076531  1
  O  O303  1  0.93218407  0.58018331  0.98595301  1
  O  O304  1  0.92674198  0.90865496  0.47563288  1
  O  O305  1  0.93348592  0.89668035  0.97669085  1
  O  O306  1  0.23352253  0.06814523  0.49300358  1
  O  O307  1  0.23138086  0.06521314  0.96911260  1
  O  O308  1  0.24381929  0.40915347  0.46530585  1
  O  O309  1  0.22845921  0.41062062  0.98117950  1
  O  O310  1  0.23200999  0.74083071  0.48353981  1
  O  O311  1  0.23494185  0.72975639  0.97701265  1
  O  O312  1  0.56257346  0.07217049  0.47107601  1
  O  O313  1  0.56191774  0.07217339  0.98289449  1
  O  O314  1  0.56700625  0.40351820  0.46702099  1
  O  O315  1  0.56951760  0.40068254  0.98577751  1
  O  O316  1  0.57808002  0.73656265  0.48379419  1
  O  O317  1  0.56921424  0.73085393  0.98140672  1
  O  O318  1  0.90015705  0.06742313  0.47146619  1
  O  O319  1  0.90797866  0.08058328  0.97810573  1
  O  O320  1  0.90224921  0.39753005  0.46952464  1
  O  O321  1  0.90376112  0.39348187  0.97980056  1
  O  O322  1  0.91034643  0.74015114  0.48543678  1
  O  O323  1  0.91025290  0.73816690  0.97543721  1
  O  O324  1  0.08566688  0.25859113  0.22375159  1
  O  O325  1  0.09467227  0.25637968  0.72143112  1
  O  O326  1  0.10055714  0.60348831  0.22484186  1
  O  O327  1  0.10539643  0.59976645  0.73324624  1
  O  O328  1  0.09675504  0.93212105  0.22146269  1
  O  O329  1  0.10363368  0.93228128  0.72413102  1
  O  O330  1  0.43436504  0.25777607  0.22393580  1
  O  O331  1  0.41991584  0.24754729  0.72813774  1
  O  O332  1  0.43130654  0.59973413  0.21822000  1
  O  O333  1  0.43525384  0.59422762  0.72756990  1
  O  O334  1  0.43120769  0.94267625  0.23148448  1
  O  O335  1  0.43224628  0.93425695  0.73390002  1
  O  O336  1  0.75796144  0.26863059  0.22129225  1
  O  O337  1  0.75846935  0.25773619  0.73963828  1
  O  O338  1  0.76321349  0.60166657  0.22028448  1
  O  O339  1  0.75059895  0.59368089  0.73821051  1
  O  O340  1  0.77056440  0.93188554  0.21585959  1
  O  O341  1  0.76393207  0.93226148  0.73284856  1
  O  O342  1  0.06709367  0.09068938  0.21711122  1
  O  O343  1  0.07802608  0.09437358  0.71843695  1
  O  O344  1  0.06489665  0.43308123  0.24143841  1
  O  O345  1  0.07202822  0.41508657  0.73074252  1
  O  O346  1  0.07068865  0.76534134  0.22141840  1
  O  O347  1  0.07737335  0.76827558  0.73395296  1
  O  O348  1  0.40058119  0.09818903  0.22398240  1
  O  O349  1  0.40247672  0.09522321  0.72396062  1
  O  O350  1  0.41250592  0.42164106  0.22303261  1
  O  O351  1  0.40780363  0.43529419  0.72877086  1
  O  O352  1  0.40930379  0.75854889  0.23083433  1
  O  O353  1  0.41352123  0.76058392  0.73013202  1
  O  O354  1  0.74616638  0.09244146  0.21967479  1
  O  O355  1  0.74809237  0.08853725  0.73118557  1
  O  O356  1  0.73504947  0.41866776  0.23034873  1
  O  O357  1  0.73934768  0.41286491  0.74545157  1
  O  O358  1  0.74189612  0.75235627  0.22512972  1
  O  O359  1  0.73666793  0.75752521  0.73653839  1
