# generated using pymatgen
data_BaLaInIrO6
_symmetry_space_group_name_H-M   'P 1'
_cell_length_a   17.53068382
_cell_length_b   17.56627477
_cell_length_c   16.50457870
_cell_angle_alpha   90.03636574
_cell_angle_beta   90.00463590
_cell_angle_gamma   89.98488472
_symmetry_Int_Tables_number   1
_chemical_formula_structural   BaLaInIrO6
_chemical_formula_sum   'Ba36 La36 In36 Ir36 O216'
_cell_volume   5082.56413577
_cell_formula_units_Z   36
loop_
 _symmetry_equiv_pos_site_id
 _symmetry_equiv_pos_as_xyz
  1  'x, y, z'
loop_
 _atom_site_type_symbol
 _atom_site_label
 _atom_site_symmetry_multiplicity
 _atom_site_fract_x
 _atom_site_fract_y
 _atom_site_fract_z
 _atom_site_occupancy
  Ba  Ba0  1  0.16463701  0.65824239  0.87407352  1
  Ba  Ba1  1  0.66853924  0.15800761  0.87496845  1
  Ba  Ba2  1  0.83208503  0.00201220  0.12199966  1
  Ba  Ba3  1  0.33214388  0.50323681  0.12663485  1
  Ba  Ba4  1  0.32994386  0.16190617  0.37670896  1
  Ba  Ba5  1  0.49714949  0.01252932  0.12309194  1
  Ba  Ba6  1  0.33751625  0.17779145  0.62416114  1
  Ba  Ba7  1  0.16476629  0.65858696  0.37351898  1
  Ba  Ba8  1  0.33577089  0.50739759  0.62133123  1
  Ba  Ba9  1  0.66473816  0.49303598  0.37427795  1
  Ba  Ba10  1  0.83174372  0.33905839  0.12610470  1
  Ba  Ba11  1  0.50322653  0.66996911  0.62449698  1
  Ba  Ba12  1  0.66845325  0.83015378  0.37204854  1
  Ba  Ba13  1  0.33813596  0.17447142  0.12324937  1
  Ba  Ba14  1  0.16583167  0.67750348  0.62227396  1
  Ba  Ba15  1  0.83523805  0.65256862  0.87743515  1
  Ba  Ba16  1  1.00378390  0.50572184  0.12653435  1
  Ba  Ba17  1  0.33083774  0.49011409  0.37537978  1
  Ba  Ba18  1  0.33243851  0.84032093  0.12472434  1
  Ba  Ba19  1  1.00388787  0.83717373  0.11816024  1
  Ba  Ba20  1  -0.00379573  0.15272099  0.37937874  1
  Ba  Ba21  1  0.49958648  0.32353254  0.37560590  1
  Ba  Ba22  1  1.00065599  0.51222717  0.62490484  1
  Ba  Ba23  1  0.50208218  0.67539786  0.12809004  1
  Ba  Ba24  1  0.66631730  0.17248945  0.12121844  1
  Ba  Ba25  1  0.66796913  0.50803271  0.12888584  1
  Ba  Ba26  1  0.50039037  0.34152747  0.62262141  1
  Ba  Ba27  1  0.66117207  0.49184830  0.87989387  1
  Ba  Ba28  1  0.16628509  0.32652493  0.37975148  1
  Ba  Ba29  1  0.66195669  0.16064598  0.37279613  1
  Ba  Ba30  1  0.50059424  0.99464829  0.87555092  1
  Ba  Ba31  1  0.66794589  0.83968411  0.12284842  1
  Ba  Ba32  1  0.33391500  0.83748486  0.62497881  1
  Ba  Ba33  1  -0.00380860  0.15663731  0.87469893  1
  Ba  Ba34  1  0.83382785  0.98667047  0.87297356  1
  Ba  Ba35  1  0.50101934  0.66105614  0.87564454  1
  La  La36  1  0.33297891  0.14881567  0.87356099  1
  La  La37  1  0.49874414  0.34166251  0.12495662  1
  La  La38  1  0.16979732  0.35116812  0.62082851  1
  La  La39  1  0.17487386  0.98195113  0.87319210  1
  La  La40  1  1.00670494  0.18041957  0.12361694  1
  La  La41  1  0.49935268  0.99583360  0.37454564  1
  La  La42  1  0.17160441  0.67480437  0.13002931  1
  La  La43  1  0.50103749  0.31793243  0.87619582  1
  La  La44  1  0.33482147  0.48987749  0.87046582  1
  La  La45  1  0.83406471  0.01626900  0.62496489  1
  La  La46  1  0.83858234  0.31370126  0.37645464  1
  La  La47  1  0.33411097  0.82030073  0.37399004  1
  La  La48  1  0.67400539  0.52021353  0.62740736  1
  La  La49  1  0.82601018  0.68642659  0.63013490  1
  La  La50  1  0.84183934  0.64650424  0.37303781  1
  La  La51  1  -0.00226055  0.48328013  0.37642081  1
  La  La52  1  0.49878050  0.01568348  0.62289721  1
  La  La53  1  -0.00374808  0.81127492  0.87200682  1
  La  La54  1  0.67128802  0.85360297  0.62887287  1
  La  La55  1  0.50061038  0.65241285  0.37520709  1
  La  La56  1  0.66463220  0.18172697  0.62514119  1
  La  La57  1  1.00603630  0.18506692  0.63184661  1
  La  La58  1  0.66350863  0.82221787  0.87615030  1
  La  La59  1  0.16257036  0.02015906  0.62545939  1
  La  La60  1  1.00813405  0.84901854  0.62426646  1
  La  La61  1  -0.00892112  0.48359104  0.87362791  1
  La  La62  1  -0.00753082  0.81559835  0.37411541  1
  La  La63  1  0.82526930  0.35127394  0.62857866  1
  La  La64  1  0.83249854  0.32129600  0.88176557  1
  La  La65  1  0.17383711  0.33239718  0.13944400  1
  La  La66  1  0.82599847  0.99548998  0.37489444  1
  La  La67  1  0.16834676  0.32248882  0.87005620  1
  La  La68  1  0.82449793  0.68090545  0.12399524  1
  La  La69  1  0.33539925  0.81323120  0.87681333  1
  La  La70  1  0.17183568  0.98556162  0.37801064  1
  La  La71  1  0.15859926  0.01700885  0.12309928  1
  In  In72  1  0.83551965  0.83555700  0.24995841  1
  In  In73  1  0.67000784  0.67286356  0.49823141  1
  In  In74  1  0.33296928  0.66747983  0.49837091  1
  In  In75  1  0.66792369  0.66931862  0.25304414  1
  In  In76  1  0.50157120  0.49917691  0.74985795  1
  In  In77  1  0.66644749  0.33615468  0.75241681  1
  In  In78  1  0.50287170  0.83568171  0.74717166  1
  In  In79  1  0.66982513  0.33548277  0.49951582  1
  In  In80  1  0.16686581  0.83183699  -0.00287167  1
  In  In81  1  0.33306796  -0.00093535  0.50152665  1
  In  In82  1  0.83744974  0.16309993  0.00139895  1
  In  In83  1  0.66616535  0.66471236  -0.00052267  1
  In  In84  1  -0.00334647  0.33299513  0.50674933  1
  In  In85  1  -0.00386389  0.66507005  0.50231826  1
  In  In86  1  0.50288696  0.83481038  0.49918741  1
  In  In87  1  0.16379334  0.49928686  0.25015208  1
  In  In88  1  0.33307098  0.33249924  -0.00394980  1
  In  In89  1  -0.00256815  0.33239072  0.25351143  1
  In  In90  1  0.83429154  0.16820859  0.74763340  1
  In  In91  1  0.16958360  0.16703675  -0.00417193  1
  In  In92  1  0.16444989  0.16389404  0.25564667  1
  In  In93  1  0.33251896  -0.00347965  0.74670789  1
  In  In94  1  0.66500249  -0.00127126  -0.00132176  1
  In  In95  1  0.00082308  -0.00099385  0.75274147  1
  In  In96  1  0.00396781  0.33490257  0.00005084  1
  In  In97  1  0.33166130  -0.00069589  0.25086622  1
  In  In98  1  0.33165005  0.66457448  0.74869492  1
  In  In99  1  0.00031978  0.66124054  0.00383249  1
  In  In100  1  0.16501781  0.83479177  0.25241923  1
  In  In101  1  0.66897833  0.33308004  0.24928405  1
  In  In102  1  0.83601685  0.83787396  0.50310499  1
  In  In103  1  0.16518082  0.49786733  -0.00314726  1
  In  In104  1  0.33505240  0.66556214  0.24845594  1
  In  In105  1  0.33452457  0.33242515  0.74908544  1
  In  In106  1  0.83388633  0.16048355  0.24956253  1
  In  In107  1  0.00156477  -0.00299015  0.25183923  1
  Ir  Ir108  1  0.16313795  0.83481743  0.74650959  1
  Ir  Ir109  1  0.33561146  0.66284874  -0.00152276  1
  Ir  Ir110  1  0.66653474  0.00505236  0.50286499  1
  Ir  Ir111  1  0.49842816  0.17050390  -0.00142361  1
  Ir  Ir112  1  0.83244231  0.49597931  -0.00059531  1
  Ir  Ir113  1  0.16466959  0.50025303  0.50367255  1
  Ir  Ir114  1  0.50144530  0.16497877  0.49935071  1
  Ir  Ir115  1  0.16526706  0.17097008  0.74921387  1
  Ir  Ir116  1  0.33507602  0.33160889  0.25117991  1
  Ir  Ir117  1  0.50235187  0.16411979  0.74940288  1
  Ir  Ir118  1  0.00069923  0.33545537  0.74805074  1
  Ir  Ir119  1  -0.00440922  0.66499887  0.25039236  1
  Ir  Ir120  1  0.66366430  0.33556148  -0.00100085  1
  Ir  Ir121  1  0.16326499  0.16717005  0.50796410  1
  Ir  Ir122  1  -0.00450253  0.66552144  0.74790022  1
  Ir  Ir123  1  0.49568645  0.49940648  0.00342659  1
  Ir  Ir124  1  0.49815865  0.83866753  0.24922669  1
  Ir  Ir125  1  0.83661059  0.83263418  0.74940981  1
  Ir  Ir126  1  0.00252239  -0.00112933  0.50315755  1
  Ir  Ir127  1  0.15873116  0.49925870  0.75014491  1
  Ir  Ir128  1  0.83298225  0.50005475  0.50179293  1
  Ir  Ir129  1  0.00528406  -0.00187546  -0.00270017  1
  Ir  Ir130  1  0.66777136  0.00044686  0.74416920  1
  Ir  Ir131  1  0.83587064  0.83223634  -0.00670219  1
  Ir  Ir132  1  0.16136126  0.83839256  0.50084745  1
  Ir  Ir133  1  0.83593231  0.50028470  0.25084687  1
  Ir  Ir134  1  0.49817248  0.16744508  0.24963792  1
  Ir  Ir135  1  0.33201896  0.33206276  0.49905353  1
  Ir  Ir136  1  0.66195131  0.00099136  0.25276494  1
  Ir  Ir137  1  0.49652146  0.83514622  0.00019959  1
  Ir  Ir138  1  0.83542917  0.16158975  0.50517691  1
  Ir  Ir139  1  0.67281513  0.66920774  0.74956840  1
  Ir  Ir140  1  0.50391873  0.49857005  0.49752179  1
  Ir  Ir141  1  0.83513038  0.49977089  0.75041072  1
  Ir  Ir142  1  0.33125829  -0.00311919  -0.00433159  1
  Ir  Ir143  1  0.49941112  0.49684634  0.25052246  1
  O  O144  1  0.30941006  0.33206329  0.12741677  1
  O  O145  1  0.30667857  0.33182335  0.62079838  1
  O  O146  1  0.30894693  0.66522553  0.11807947  1
  O  O147  1  0.31660485  0.66790556  0.62312377  1
  O  O148  1  0.29912436  0.99648830  0.11669444  1
  O  O149  1  0.29684497  0.99905222  0.62522016  1
  O  O150  1  0.63634837  0.33383484  0.11847632  1
  O  O151  1  0.65379837  0.32224617  0.62498210  1
  O  O152  1  0.65574198  0.66827852  0.12568710  1
  O  O153  1  0.65720906  0.65896548  0.62882151  1
  O  O154  1  0.64639835  0.99564092  0.13189210  1
  O  O155  1  0.63600013  0.99262278  0.62315231  1
  O  O156  1  0.98317360  0.32338240  0.12620551  1
  O  O157  1  0.96317561  0.33015736  0.63013549  1
  O  O158  1  0.96291433  0.66524040  0.13110204  1
  O  O159  1  0.96330803  0.66618017  0.62914629  1
  O  O160  1  0.98466571  0.99099884  0.11541495  1
  O  O161  1  0.97109461  0.98753052  0.62173029  1
  O  O162  1  0.18641716  0.15521642  0.12376987  1
  O  O163  1  0.18910052  0.15710917  0.62882021  1
  O  O164  1  0.17748196  0.46782444  0.12265637  1
  O  O165  1  0.18645868  0.48978553  0.62829224  1
  O  O166  1  0.17732942  0.81204760  0.12395363  1
  O  O167  1  0.18537242  0.83317866  0.62307357  1
  O  O168  1  0.51903201  0.17422129  0.12532941  1
  O  O169  1  0.53026062  0.15615706  0.62409101  1
  O  O170  1  0.51950568  0.48163093  0.12669129  1
  O  O171  1  0.53361459  0.49625621  0.61847429  1
  O  O172  1  0.51964721  0.83076065  0.12505290  1
  O  O173  1  0.53892545  0.82388346  0.62359090  1
  O  O174  1  0.87280727  0.15979031  0.12565678  1
  O  O175  1  0.86851855  0.15356505  0.62139501  1
  O  O176  1  0.85789718  0.49136964  0.12601699  1
  O  O177  1  0.85623658  0.48563697  0.62592257  1
  O  O178  1  0.85340585  0.82782758  0.11572501  1
  O  O179  1  0.87008609  0.82690377  0.63013514  1
  O  O180  1  0.14389885  0.17253571  0.38809643  1
  O  O181  1  0.14136129  0.18435138  0.86757649  1
  O  O182  1  0.13716141  0.50049639  0.38390105  1
  O  O183  1  0.12853108  0.50619581  0.86559398  1
  O  O184  1  0.12682588  0.84646981  0.38347813  1
  O  O185  1  0.13323750  0.84392894  0.86506611  1
  O  O186  1  0.47830145  0.16054426  0.37498817  1
  O  O187  1  0.47113303  0.17515434  0.87427499  1
  O  O188  1  0.47936768  0.51138300  0.37360631  1
  O  O189  1  0.47081914  0.50644980  0.88399943  1
  O  O190  1  0.47142452  0.85342372  0.36796232  1
  O  O191  1  0.47234960  0.83867864  0.88070634  1
  O  O192  1  0.81339542  0.16572217  0.38667734  1
  O  O193  1  0.81987059  0.18128080  0.87335157  1
  O  O194  1  0.81137371  0.51357677  0.37572370  1
  O  O195  1  0.80881490  0.49871224  0.87488292  1
  O  O196  1  0.81987185  0.85767466  0.37876239  1
  O  O197  1  0.80285948  0.83241428  0.87032534  1
  O  O198  1  0.03566280  0.00300402  0.38556501  1
  O  O199  1  0.03781985  0.00358751  0.87773290  1
  O  O200  1  0.01268489  0.34297444  0.38325391  1
  O  O201  1  0.03250280  0.33928233  0.86570196  1
  O  O202  1  0.01454789  0.67067803  0.37115353  1
  O  O203  1  0.01320929  0.66988631  0.86803631  1
  O  O204  1  0.36407659  0.00535296  0.37772426  1
  O  O205  1  0.34976877  0.00754308  0.87511060  1
  O  O206  1  0.35326504  0.33063958  0.37420528  1
  O  O207  1  0.36739283  0.34817461  0.87303417  1
  O  O208  1  0.36370097  0.67280369  0.37365053  1
  O  O209  1  0.35041288  0.67049748  0.87915283  1
  O  O210  1  0.69262845  0.00815313  0.37966316  1
  O  O211  1  0.68428521  0.00254152  0.86431056  1
  O  O212  1  0.70179652  0.33253252  0.37751548  1
  O  O213  1  0.69535290  0.33576126  0.87968028  1
  O  O214  1  0.70598414  0.66740331  0.37596317  1
  O  O215  1  0.68625144  0.67801563  0.87150001  1
  O  O216  1  0.06800804  0.09482192  0.02364795  1
  O  O217  1  0.06654899  0.09880122  0.53334760  1
  O  O218  1  0.05810672  0.44043358  -0.00455912  1
  O  O219  1  0.07895310  0.42471137  0.52217460  1
  O  O220  1  0.06951312  0.76090898  -0.00421800  1
  O  O221  1  0.06530858  0.77111004  0.51973623  1
  O  O222  1  0.40059860  0.09913705  0.00582299  1
  O  O223  1  0.41347002  0.09451757  0.52072685  1
  O  O224  1  0.40966067  0.42761155  0.01803849  1
  O  O225  1  0.40668533  0.42477621  0.51202140  1
  O  O226  1  0.40124393  0.76382126  0.01022805  1
  O  O227  1  0.40079936  0.76913691  0.50130794  1
  O  O228  1  0.74471803  0.08691322  0.01268862  1
  O  O229  1  0.73747457  0.09777903  0.53215054  1
  O  O230  1  0.73589376  0.42667616  0.01906896  1
  O  O231  1  0.73961770  0.43570420  0.53047787  1
  O  O232  1  0.74959552  0.75781781  0.01243315  1
  O  O233  1  0.73827765  0.77032434  0.53397795  1
  O  O234  1  0.10924234  0.27172468  0.02175838  1
  O  O235  1  0.09459142  0.25910544  0.53743928  1
  O  O236  1  0.10642207  0.60350542  0.03016389  1
  O  O237  1  0.09320422  0.59060508  0.51646019  1
  O  O238  1  0.10577461  0.93969052  0.01499565  1
  O  O239  1  0.09919718  0.93682508  0.53017809  1
  O  O240  1  0.43657401  0.26677584  0.01557693  1
  O  O241  1  0.42935441  0.25981118  0.51552746  1
  O  O242  1  0.42769813  0.59305109  0.02393664  1
  O  O243  1  0.43400805  0.58833238  0.50833613  1
  O  O244  1  0.42346142  0.92657809  0.01767394  1
  O  O245  1  0.43492326  0.93451557  0.52698325  1
  O  O246  1  0.75363129  0.26474291  0.01245070  1
  O  O247  1  0.77263620  0.25746170  0.52811844  1
  O  O248  1  0.76837697  0.59147671  0.02243325  1
  O  O249  1  0.77181741  0.59699303  0.52746490  1
  O  O250  1  0.76022876  0.91592782  0.00686231  1
  O  O251  1  0.76195708  0.93975296  0.52731602  1
  O  O252  1  0.23099464  0.06591081  0.27568306  1
  O  O253  1  0.23080787  0.07549827  0.77564446  1
  O  O254  1  0.24465838  0.40202263  0.26501056  1
  O  O255  1  0.22418445  0.40306268  0.76650733  1
  O  O256  1  0.24461793  0.74550083  0.27098999  1
  O  O257  1  0.23457645  0.74658051  0.76877761  1
  O  O258  1  0.56522663  0.07047581  0.27292840  1
  O  O259  1  0.56915014  0.06412955  0.75599278  1
  O  O260  1  0.57347676  0.41084462  0.26443287  1
  O  O261  1  0.56649584  0.39947471  0.77811949  1
  O  O262  1  0.56680380  0.74557809  0.27538933  1
  O  O263  1  0.58579277  0.74268434  0.77244117  1
  O  O264  1  0.89810390  0.05900639  0.27653210  1
  O  O265  1  0.90274711  0.06759656  0.75730779  1
  O  O266  1  0.89747533  0.40813734  0.28288101  1
  O  O267  1  0.90203854  0.40017778  0.77732551  1
  O  O268  1  0.90271360  0.72945586  0.27503305  1
  O  O269  1  0.90066779  0.73630843  0.76979999  1
  O  O270  1  0.25945632  0.24707946  0.26005661  1
  O  O271  1  0.25987224  0.23717401  0.77689358  1
  O  O272  1  0.25155736  0.57835694  0.25711151  1
  O  O273  1  0.25528142  0.56190501  0.77291503  1
  O  O274  1  0.26241163  0.90397846  0.28562408  1
  O  O275  1  0.25661425  0.90090772  0.77752997  1
  O  O276  1  0.58564045  0.23979821  0.26271008  1
  O  O277  1  0.59552145  0.23149352  0.75916666  1
  O  O278  1  0.58263958  0.57797264  0.26958843  1
  O  O279  1  0.60655228  0.57378007  0.75774751  1
  O  O280  1  0.58629921  0.91554471  0.27477878  1
  O  O281  1  0.60965726  0.90106088  0.76705611  1
  O  O282  1  0.91921427  0.24337777  0.27915904  1
  O  O283  1  0.93656942  0.24249983  0.76061202  1
  O  O284  1  0.93332929  0.56604083  0.27668514  1
  O  O285  1  0.93223499  0.56660843  0.77119286  1
  O  O286  1  0.94024299  0.89387828  0.26848319  1
  O  O287  1  0.93406784  0.89394262  0.77148181  1
  O  O288  1  0.25760019  0.23863936  0.48747215  1
  O  O289  1  0.27023619  0.23219610  0.96768342  1
  O  O290  1  0.25209872  0.57253059  0.48402328  1
  O  O291  1  0.27140180  0.56807744  0.97816361  1
  O  O292  1  0.25483490  0.90392081  0.47097998  1
  O  O293  1  0.26538852  0.90377735  0.96867107  1
  O  O294  1  0.59445739  0.23368819  0.49343781  1
  O  O295  1  0.58901011  0.24603610  0.97232481  1
  O  O296  1  0.59296492  0.57183938  0.48722227  1
  O  O297  1  0.58437189  0.57186206  0.99032863  1
  O  O298  1  0.60028035  0.91432067  0.48186534  1
  O  O299  1  0.59094053  0.90222481  0.97717445  1
  O  O300  1  0.92468787  0.23212572  0.48827355  1
  O  O301  1  0.92639446  0.24512716  0.98095558  1
  O  O302  1  0.92753120  0.56360900  0.47408043  1
  O  O303  1  0.92803940  0.56166974  0.97792113  1
  O  O304  1  0.94562616  0.90036491  0.48377933  1
  O  O305  1  0.93752310  0.90064610  0.96969666  1
  O  O306  1  0.22592098  0.06951272  0.48550478  1
  O  O307  1  0.23726965  0.06372090  0.97152561  1
  O  O308  1  0.23490630  0.40239372  0.49242754  1
  O  O309  1  0.24044339  0.40713880  0.95823948  1
  O  O310  1  0.23236838  0.75110717  0.47640134  1
  O  O311  1  0.24801561  0.73731446  0.98016245  1
  O  O312  1  0.56686757  0.06723898  0.48110499  1
  O  O313  1  0.57075091  0.08133409  0.98565917  1
  O  O314  1  0.57310193  0.41005618  0.48152954  1
  O  O315  1  0.56302317  0.40221943  0.97916722  1
  O  O316  1  0.56912695  0.73455555  0.46833139  1
  O  O317  1  0.57510590  0.75192138  0.98197072  1
  O  O318  1  0.89825544  0.05889083  0.48372271  1
  O  O319  1  0.91443340  0.06346440  0.97950539  1
  O  O320  1  0.89243277  0.40233537  0.48021144  1
  O  O321  1  0.89742723  0.40442344  0.97175417  1
  O  O322  1  0.89856372  0.73423149  0.47482858  1
  O  O323  1  0.90748682  0.74443376  0.98113434  1
  O  O324  1  0.09479144  0.25991507  0.22890796  1
  O  O325  1  0.09814398  0.26940853  0.71982620  1
  O  O326  1  0.09141313  0.60426536  0.22392294  1
  O  O327  1  0.09194433  0.59739083  0.72866862  1
  O  O328  1  0.10865053  0.94026682  0.23011184  1
  O  O329  1  0.09937643  0.93037242  0.72149814  1
  O  O330  1  0.43106457  0.26319288  0.22698647  1
  O  O331  1  0.43543447  0.25697703  0.73951388  1
  O  O332  1  0.42754347  0.58421566  0.23563932  1
  O  O333  1  0.42889226  0.59318862  0.73896951  1
  O  O334  1  0.42862190  0.92633373  0.22974831  1
  O  O335  1  0.43525248  0.93510656  0.72252092  1
  O  O336  1  0.75755899  0.25384588  0.23655217  1
  O  O337  1  0.76795088  0.26802340  0.72901169  1
  O  O338  1  0.77563700  0.59679403  0.23034225  1
  O  O339  1  0.76973796  0.59725546  0.72275285  1
  O  O340  1  0.75411994  0.93173784  0.24306263  1
  O  O341  1  0.76712637  0.93155135  0.71952636  1
  O  O342  1  0.06182971  0.09972119  0.22285729  1
  O  O343  1  0.07234857  0.10105251  0.72288729  1
  O  O344  1  0.06530864  0.43211801  0.25185573  1
  O  O345  1  0.06790257  0.42762327  0.72858941  1
  O  O346  1  0.06261794  0.75875071  0.24250496  1
  O  O347  1  0.06122727  0.76786088  0.72810447  1
  O  O348  1  0.40894773  0.09646572  0.23479224  1
  O  O349  1  0.40852270  0.09678255  0.73894488  1
  O  O350  1  0.41361769  0.41614367  0.22787189  1
  O  O351  1  0.40038203  0.43148672  0.73679735  1
  O  O352  1  0.41073926  0.76597069  0.23876421  1
  O  O353  1  0.40347268  0.76577712  0.74957619  1
  O  O354  1  0.73372250  0.08631353  0.23695353  1
  O  O355  1  0.73337520  0.09528798  0.71747023  1
  O  O356  1  0.74522019  0.43228039  0.23634979  1
  O  O357  1  0.73932299  0.43641793  0.72557261  1
  O  O358  1  0.74788657  0.75813694  0.22935378  1
  O  O359  1  0.73940685  0.76785630  0.72444644  1
