# generated using pymatgen
data_BaLaInIrO6
_symmetry_space_group_name_H-M   'P 1'
_cell_length_a   17.51144615
_cell_length_b   17.53821164
_cell_length_c   16.48764104
_cell_angle_alpha   89.94301460
_cell_angle_beta   89.97346522
_cell_angle_gamma   89.97578012
_symmetry_Int_Tables_number   1
_chemical_formula_structural   BaLaInIrO6
_chemical_formula_sum   'Ba36 La36 In36 Ir36 O216'
_cell_volume   5063.67172661
_cell_formula_units_Z   36
loop_
 _symmetry_equiv_pos_site_id
 _symmetry_equiv_pos_as_xyz
  1  'x, y, z'
loop_
 _atom_site_type_symbol
 _atom_site_label
 _atom_site_symmetry_multiplicity
 _atom_site_fract_x
 _atom_site_fract_y
 _atom_site_fract_z
 _atom_site_occupancy
  Ba  Ba0  1  0.50366405  0.32537550  0.37694122  1
  Ba  Ba1  1  0.66785979  0.50818027  0.12170379  1
  Ba  Ba2  1  0.66353345  0.48553969  0.37842937  1
  Ba  Ba3  1  0.83494436  0.99419346  0.37323391  1
  Ba  Ba4  1  0.33397504  0.50610137  0.12247374  1
  Ba  Ba5  1  0.50354735  0.32015963  0.88008012  1
  Ba  Ba6  1  0.33487794  0.18052753  0.63154485  1
  Ba  Ba7  1  0.16497301  0.34001589  0.63003933  1
  Ba  Ba8  1  0.50209836  0.00967484  0.12190072  1
  Ba  Ba9  1  0.99904896  0.84318306  0.12157363  1
  Ba  Ba10  1  0.16566908  0.67151440  0.12677767  1
  Ba  Ba11  1  1.00279866  0.17645145  0.62491701  1
  Ba  Ba12  1  0.66931042  0.17705391  0.12446480  1
  Ba  Ba13  1  0.16740429  0.32842259  0.37456423  1
  Ba  Ba14  1  0.32976750  0.82722795  0.87489919  1
  Ba  Ba15  1  0.66067076  0.82697581  0.37470274  1
  Ba  Ba16  1  0.66642730  0.16015764  0.37470268  1
  Ba  Ba17  1  0.50037940  0.67388732  0.62515745  1
  Ba  Ba18  1  -0.00320166  0.82364361  0.37511509  1
  Ba  Ba19  1  0.50135298  0.65494205  0.37079060  1
  Ba  Ba20  1  1.00115005  0.17335639  0.12477420  1
  Ba  Ba21  1  0.16422452  0.33990833  0.12615278  1
  Ba  Ba22  1  0.99963031  0.50685409  0.12234629  1
  Ba  Ba23  1  0.66450836  0.82337484  0.87747642  1
  Ba  Ba24  1  0.66663244  0.48601996  0.87265314  1
  Ba  Ba25  1  0.33654896  0.84253680  0.12510343  1
  Ba  Ba26  1  0.83234608  0.32204764  0.87617535  1
  Ba  Ba27  1  0.33242473  0.15771550  0.87730284  1
  Ba  Ba28  1  0.16895319  0.65685042  0.37360915  1
  Ba  Ba29  1  -0.00319125  0.15791778  0.87401791  1
  Ba  Ba30  1  0.33494583  0.82674395  0.37197648  1
  Ba  Ba31  1  0.83336646  0.65621060  0.87512197  1
  Ba  Ba32  1  0.82730358  0.67716053  0.62728199  1
  Ba  Ba33  1  0.49546177  0.67371961  0.12041364  1
  Ba  Ba34  1  -0.00100778  0.82594258  0.87483833  1
  Ba  Ba35  1  0.33537418  0.49670071  0.37044852  1
  La  La36  1  0.82668438  0.68445452  0.11956198  1
  La  La37  1  0.82419977  0.01324571  0.11784357  1
  La  La38  1  0.50161499  0.98961616  0.87574844  1
  La  La39  1  0.33729831  0.85440760  0.62484695  1
  La  La40  1  0.16652480  0.68112996  0.62283544  1
  La  La41  1  0.16315296  0.99602721  0.88072498  1
  La  La42  1  0.83700409  0.98756109  0.87441469  1
  La  La43  1  0.16167112  0.01321690  0.62770616  1
  La  La44  1  0.66258197  0.15851993  0.87641809  1
  La  La45  1  0.82761915  0.34706574  0.11984771  1
  La  La46  1  0.50467946  0.99141738  0.37850618  1
  La  La47  1  0.83797429  0.65233303  0.37190306  1
  La  La48  1  0.67000574  0.85029520  0.62334587  1
  La  La49  1  0.33073590  0.48346301  0.87542574  1
  La  La50  1  1.00302420  0.84780696  0.62696494  1
  La  La51  1  0.49405012  0.34615335  0.62978637  1
  La  La52  1  0.00597857  0.49995708  0.36639418  1
  La  La53  1  0.83109154  0.01849594  0.62785241  1
  La  La54  1  0.17109328  0.99271167  0.37185756  1
  La  La55  1  0.50632286  0.65001468  0.87919499  1
  La  La56  1  0.83623258  0.32314518  0.37171261  1
  La  La57  1  0.66856993  0.51582872  0.62337782  1
  La  La58  1  -0.00929230  0.48410560  0.87900744  1
  La  La59  1  0.16698259  0.31503150  0.88220217  1
  La  La60  1  0.16453379  0.00685313  0.11735242  1
  La  La61  1  0.33622121  0.50968960  0.62141550  1
  La  La62  1  0.67073726  0.18325807  0.62618009  1
  La  La63  1  0.49984642  0.01763696  0.62515717  1
  La  La64  1  -0.00542405  0.15626737  0.38046802  1
  La  La65  1  0.67089498  0.84900501  0.12294834  1
  La  La66  1  0.34003341  0.18045319  0.12276383  1
  La  La67  1  0.16658485  0.64688839  0.87455594  1
  La  La68  1  0.83056945  0.34710388  0.62486605  1
  La  La69  1  0.49893164  0.34334488  0.12687915  1
  La  La70  1  0.33206468  0.15651342  0.37570676  1
  La  La71  1  1.00573227  0.51114005  0.62682962  1
  In  In72  1  0.16792009  0.83517416  0.50092351  1
  In  In73  1  0.16421768  0.83082567  -0.00218500  1
  In  In74  1  0.33499507  0.00209090  0.75153522  1
  In  In75  1  0.50208702  0.49810673  0.50199742  1
  In  In76  1  -0.00010485  0.66772251  0.75017879  1
  In  In77  1  -0.00145512  0.66755876  0.24679749  1
  In  In78  1  0.83627818  0.17046453  0.24852082  1
  In  In79  1  0.33320759  0.66657617  0.75117014  1
  In  In80  1  0.83530890  0.49949914  0.75077745  1
  In  In81  1  0.33334841  0.66707418  0.24722297  1
  In  In82  1  0.00175956  0.00135282  0.24674291  1
  In  In83  1  0.50033136  0.83362744  0.50399463  1
  In  In84  1  0.33353726  0.66524913  -0.00680520  1
  In  In85  1  0.50139771  0.49535677  -0.00199532  1
  In  In86  1  0.66406191  0.67058550  0.75199593  1
  In  In87  1  0.00023009  -0.00083161  0.50187842  1
  In  In88  1  0.16298038  0.49529085  -0.00265828  1
  In  In89  1  -0.00242933  0.66674413  0.50202195  1
  In  In90  1  0.16688334  0.16691757  0.24990688  1
  In  In91  1  -0.00145399  0.33259056  0.75198630  1
  In  In92  1  0.66605932  0.00161510  0.75205429  1
  In  In93  1  0.83060255  0.50105266  0.24778730  1
  In  In94  1  0.33201219  0.66859457  0.50219865  1
  In  In95  1  0.50262164  0.83509578  0.24524669  1
  In  In96  1  0.16658829  0.16474009  0.75318242  1
  In  In97  1  0.83526868  0.49750080  0.49877824  1
  In  In98  1  0.83215060  0.83456202  0.25170357  1
  In  In99  1  0.33471023  0.00523777  0.24730545  1
  In  In100  1  0.33416887  0.33343114  0.49964628  1
  In  In101  1  0.16667994  0.16826696  0.49869916  1
  In  In102  1  0.66761152  0.00162460  0.24925461  1
  In  In103  1  -0.00256709  0.33706668  0.50022147  1
  In  In104  1  0.16857626  0.83301082  0.75004170  1
  In  In105  1  0.49945211  0.16867015  0.25137922  1
  In  In106  1  0.66864849  0.66861110  0.49637785  1
  In  In107  1  0.66831840  0.00405814  0.50291644  1
  Ir  Ir108  1  0.82836683  0.16685634  0.74888131  1
  Ir  Ir109  1  0.50303398  0.16756596  0.75274590  1
  Ir  Ir110  1  0.66834050  0.33306518  0.24774080  1
  Ir  Ir111  1  0.50024817  0.83548675  0.75041277  1
  Ir  Ir112  1  0.50128097  0.16572815  -0.00248030  1
  Ir  Ir113  1  0.16773776  0.16358322  0.00274844  1
  Ir  Ir114  1  0.83439849  0.49902675  0.00070940  1
  Ir  Ir115  1  0.83408406  0.83869957  0.74671482  1
  Ir  Ir116  1  0.33484795  0.00311209  -0.00088978  1
  Ir  Ir117  1  -0.00461065  0.00243435  -0.00312876  1
  Ir  Ir118  1  0.66692445  0.66839486  0.00047051  1
  Ir  Ir119  1  0.16791574  0.49912726  0.50621904  1
  Ir  Ir120  1  0.33326771  0.32849547  -0.00021548  1
  Ir  Ir121  1  -0.00149935  0.33602688  0.25151079  1
  Ir  Ir122  1  0.50507757  0.49541670  0.24750773  1
  Ir  Ir123  1  0.66886023  0.00296090  -0.00585861  1
  Ir  Ir124  1  0.16776225  0.49782691  0.75048688  1
  Ir  Ir125  1  0.50202785  0.83765432  -0.00740771  1
  Ir  Ir126  1  0.50047523  0.16682312  0.50618616  1
  Ir  Ir127  1  0.83238271  0.16608712  -0.00425884  1
  Ir  Ir128  1  0.66858188  0.66708218  0.24220012  1
  Ir  Ir129  1  0.66899173  0.32866129  -0.00048642  1
  Ir  Ir130  1  0.66590948  0.32808956  0.50676532  1
  Ir  Ir131  1  0.66374082  0.32989532  0.74777191  1
  Ir  Ir132  1  0.33657078  0.00663504  0.50035350  1
  Ir  Ir133  1  0.49882734  0.49426655  0.75009694  1
  Ir  Ir134  1  -0.00328229  0.66643800  -0.00237196  1
  Ir  Ir135  1  0.33629103  0.33476085  0.24698971  1
  Ir  Ir136  1  0.16629489  0.49537728  0.25049639  1
  Ir  Ir137  1  0.83301896  0.83501959  0.50513932  1
  Ir  Ir138  1  0.83321952  0.17056508  0.50421056  1
  Ir  Ir139  1  -0.00222867  0.32920143  0.00379837  1
  Ir  Ir140  1  0.33283070  0.33578728  0.75563050  1
  Ir  Ir141  1  0.16638326  0.83781271  0.24764177  1
  Ir  Ir142  1  -0.00553001  -0.00011931  0.75051155  1
  Ir  Ir143  1  0.83240528  0.83500158  -0.00467587  1
  O  O144  1  0.31214228  0.31820102  0.12282522  1
  O  O145  1  0.31530743  0.33474730  0.63622095  1
  O  O146  1  0.31685947  0.66353148  0.12027645  1
  O  O147  1  0.30077629  0.64823547  0.63005424  1
  O  O148  1  0.30509300  1.00638751  0.11789034  1
  O  O149  1  0.30260490  1.00072964  0.61901040  1
  O  O150  1  0.63843025  0.33111903  0.12414599  1
  O  O151  1  0.63155999  0.31899633  0.62816477  1
  O  O152  1  0.64470917  0.66653538  0.12075870  1
  O  O153  1  0.65098930  0.65770592  0.62771220  1
  O  O154  1  0.65254460  0.99759387  0.11320234  1
  O  O155  1  0.63693886  0.99596994  0.62924852  1
  O  O156  1  0.96582340  0.32746537  0.12797600  1
  O  O157  1  0.96772796  0.33557747  0.62679188  1
  O  O158  1  0.96610909  0.66392875  0.11708155  1
  O  O159  1  0.97504477  0.64452337  0.62633421  1
  O  O160  1  0.96171564  1.00192554  0.11490520  1
  O  O161  1  0.96385396  0.99359326  0.63174499  1
  O  O162  1  0.20206391  0.15750196  0.12113888  1
  O  O163  1  0.18708079  0.15371913  0.62760935  1
  O  O164  1  0.18178637  0.49695198  0.12800664  1
  O  O165  1  0.20035785  0.49279873  0.62915015  1
  O  O166  1  0.18582283  0.83615177  0.12606814  1
  O  O167  1  0.20443221  0.82157819  0.62610087  1
  O  O168  1  0.51811004  0.16771440  0.11740534  1
  O  O169  1  0.53336762  0.15686001  0.63008481  1
  O  O170  1  0.51871049  0.48649232  0.12650509  1
  O  O171  1  0.53293527  0.48602099  0.63377179  1
  O  O172  1  0.53295907  0.83381989  0.10953573  1
  O  O173  1  0.53453745  0.82920077  0.63541566  1
  O  O174  1  0.85215986  0.15620911  0.11609336  1
  O  O175  1  0.85574450  0.15715098  0.62685973  1
  O  O176  1  0.85034852  0.48749411  0.12062713  1
  O  O177  1  0.86702339  0.48507691  0.62579014  1
  O  O178  1  0.84976080  0.82402284  0.11486916  1
  O  O179  1  0.86559500  0.83060894  0.62666971  1
  O  O180  1  0.12906911  0.16627381  0.37344735  1
  O  O181  1  0.14693290  0.16772194  0.88326595  1
  O  O182  1  0.14008547  0.49943265  0.38069883  1
  O  O183  1  0.13011003  0.50436841  0.86786155  1
  O  O184  1  0.14627298  0.85159216  0.36990398  1
  O  O185  1  0.14817111  0.86031086  0.87377344  1
  O  O186  1  0.47028650  0.17170945  0.38580461  1
  O  O187  1  0.47942840  0.16689434  0.87506096  1
  O  O188  1  0.49092013  0.49304512  0.36936886  1
  O  O189  1  0.46974014  0.50031846  0.86904595  1
  O  O190  1  0.48914643  0.85583088  0.37583975  1
  O  O191  1  0.47628389  0.85111444  0.87025087  1
  O  O192  1  0.81348583  0.18201060  0.38354079  1
  O  O193  1  0.79899775  0.16807106  0.87186479  1
  O  O194  1  0.80998989  0.51127825  0.37266289  1
  O  O195  1  0.81502439  0.49903895  0.88222728  1
  O  O196  1  0.81034488  0.84041489  0.38545801  1
  O  O197  1  0.81030685  0.85072095  0.87009760  1
  O  O198  1  0.03259675  0.01068511  0.37629179  1
  O  O199  1  0.02661363  0.00303174  0.87353009  1
  O  O200  1  0.01641633  0.35626943  0.37044075  1
  O  O201  1  0.02804207  0.33830369  0.88386236  1
  O  O202  1  0.01611344  0.66619574  0.37486018  1
  O  O203  1  0.02938925  0.67058144  0.87826399  1
  O  O204  1  0.37176278  0.01477769  0.38283877  1
  O  O205  1  0.36501795  0.00267277  0.87958680  1
  O  O206  1  0.35484723  0.34021760  0.36690668  1
  O  O207  1  0.35610498  0.34361938  0.87751004  1
  O  O208  1  0.34763302  0.66440693  0.37411189  1
  O  O209  1  0.37336404  0.67097551  0.86987046  1
  O  O210  1  0.68303057  -0.00028753  0.37744977  1
  O  O211  1  0.69951638  0.01389427  0.87532824  1
  O  O212  1  0.69797236  0.33095631  0.37762315  1
  O  O213  1  0.68625692  0.32397310  0.87343131  1
  O  O214  1  0.70131425  0.67008197  0.36192708  1
  O  O215  1  0.68335818  0.66807184  0.88100889  1
  O  O216  1  0.08004190  0.08510372  0.02482641  1
  O  O217  1  0.08060792  0.08492169  0.52722250  1
  O  O218  1  0.06821408  0.41913536  0.01518743  1
  O  O219  1  0.06822446  0.43985241  0.52123747  1
  O  O220  1  0.06606390  0.75528218  0.01591920  1
  O  O221  1  0.06556023  0.76487918  0.52991149  1
  O  O222  1  0.40321714  0.09923948  0.02088270  1
  O  O223  1  0.40666558  0.09850145  0.52717713  1
  O  O224  1  0.40849115  0.41334314  0.01758767  1
  O  O225  1  0.40920155  0.42318058  0.53049217  1
  O  O226  1  0.41391991  0.76855812  0.01022353  1
  O  O227  1  0.39832358  0.77078813  0.52753274  1
  O  O228  1  0.74281184  0.09210052  0.01800789  1
  O  O229  1  0.74076335  0.10170022  0.53009216  1
  O  O230  1  0.74460986  0.41923352  0.02342422  1
  O  O231  1  0.73060080  0.42193766  0.53377411  1
  O  O232  1  0.73926478  0.76301990  0.02363342  1
  O  O233  1  0.73676366  0.77503626  0.52632905  1
  O  O234  1  0.09464657  0.25875927  0.01744137  1
  O  O235  1  0.09040582  0.26257931  0.51464305  1
  O  O236  1  0.08678683  0.59582431  0.01074700  1
  O  O237  1  0.10309280  0.59272413  0.53038538  1
  O  O238  1  0.08847670  0.93419101  0.01824041  1
  O  O239  1  0.09477893  0.92617489  0.53739950  1
  O  O240  1  0.42762439  0.25748903  0.02700489  1
  O  O241  1  0.43840654  0.26142348  0.52886647  1
  O  O242  1  0.42783585  0.58848936  0.00548996  1
  O  O243  1  0.42053587  0.58561874  0.52342939  1
  O  O244  1  0.43436457  0.93613265  0.00955224  1
  O  O245  1  0.42748168  0.93908736  0.53106936  1
  O  O246  1  0.76493548  0.26136189  0.02279323  1
  O  O247  1  0.76359314  0.26310507  0.53131106  1
  O  O248  1  0.76699807  0.59847454  0.02263332  1
  O  O249  1  0.76119418  0.59143930  0.51728343  1
  O  O250  1  0.76173782  0.92930686  0.02036213  1
  O  O251  1  0.76969603  0.93095134  0.53367686  1
  O  O252  1  0.24417170  0.07698966  0.28827989  1
  O  O253  1  0.23284682  0.06471823  0.77599873  1
  O  O254  1  0.24369665  0.40649667  0.26358025  1
  O  O255  1  0.23482626  0.40192457  0.78406348  1
  O  O256  1  0.23696298  0.75135524  0.26369929  1
  O  O257  1  0.22721569  0.72549329  0.77611382  1
  O  O258  1  0.56507761  0.06886326  0.27298597  1
  O  O259  1  0.56897329  0.07486473  0.77727908  1
  O  O260  1  0.57262535  0.39913536  0.25880212  1
  O  O261  1  0.56969228  0.39914327  0.76816993  1
  O  O262  1  0.57960666  0.73333994  0.26201341  1
  O  O263  1  0.56008233  0.73858503  0.77724848  1
  O  O264  1  0.92161808  0.08926540  0.27649542  1
  O  O265  1  0.89314355  0.06681826  0.77060070  1
  O  O266  1  0.90405021  0.40052506  0.26633044  1
  O  O267  1  0.91093784  0.40903489  0.77953912  1
  O  O268  1  0.89172180  0.73031247  0.26456189  1
  O  O269  1  0.90221786  0.74834013  0.76621004  1
  O  O270  1  0.27008205  0.24034732  0.26819399  1
  O  O271  1  0.25903587  0.24890602  0.77653692  1
  O  O272  1  0.25125429  0.57036930  0.26034035  1
  O  O273  1  0.26163595  0.55842058  0.77894285  1
  O  O274  1  0.25184481  0.91387982  0.26766082  1
  O  O275  1  0.26953064  0.90254714  0.75333109  1
  O  O276  1  0.59659145  0.24385422  0.26445682  1
  O  O277  1  0.60174294  0.23014640  0.76961681  1
  O  O278  1  0.59804545  0.56858462  0.26509443  1
  O  O279  1  0.58159078  0.57166849  0.77184351  1
  O  O280  1  0.60371291  0.90004090  0.24435443  1
  O  O281  1  0.59013822  0.90584216  0.77134596  1
  O  O282  1  0.93102232  0.24737876  0.28261903  1
  O  O283  1  0.91787515  0.23522832  0.76536541  1
  O  O284  1  0.92775401  0.56988933  0.27128681  1
  O  O285  1  0.93612762  0.56744378  0.77630276  1
  O  O286  1  0.92674829  0.90879792  0.26463691  1
  O  O287  1  0.92466807  0.90990617  0.77053165  1
  O  O288  1  0.26908281  0.23495094  0.47661904  1
  O  O289  1  0.25494300  0.24222669  0.97813277  1
  O  O290  1  0.25981188  0.56128923  0.49214295  1
  O  O291  1  0.25684227  0.56702481  0.96391301  1
  O  O292  1  0.26595645  0.91812962  0.47893064  1
  O  O293  1  0.25942372  0.91844899  0.98303511  1
  O  O294  1  0.60003272  0.22857122  0.49228194  1
  O  O295  1  0.60080514  0.23163510  0.97831512  1
  O  O296  1  0.59980151  0.56557421  0.49668653  1
  O  O297  1  0.59398794  0.57872463  0.97962543  1
  O  O298  1  0.59598853  0.90805535  0.49781810  1
  O  O299  1  0.59136084  0.91711397  0.96964280  1
  O  O300  1  0.92595650  0.23447180  0.47664159  1
  O  O301  1  0.92479756  0.23741528  0.98259674  1
  O  O302  1  0.93740008  0.56147976  0.47490572  1
  O  O303  1  0.92883001  0.56837629  0.97489537  1
  O  O304  1  0.92772105  0.89915703  0.49131680  1
  O  O305  1  0.91912063  0.91561384  0.96969214  1
  O  O306  1  0.24584639  0.07207206  0.46845094  1
  O  O307  1  0.23540523  0.06778998  0.97957347  1
  O  O308  1  0.23465089  0.40727231  0.48974407  1
  O  O309  1  0.24168387  0.39989356  0.97344486  1
  O  O310  1  0.23029335  0.73378262  0.49014064  1
  O  O311  1  0.23185751  0.73289831  0.97063269  1
  O  O312  1  0.56047589  0.07042339  0.48566681  1
  O  O313  1  0.57577571  0.07465065  0.96579077  1
  O  O314  1  0.57353704  0.39351612  0.49566083  1
  O  O315  1  0.57977920  0.40115665  0.98708353  1
  O  O316  1  0.57170269  0.73726973  0.48193743  1
  O  O317  1  0.56754353  0.73763797  0.97393661  1
  O  O318  1  0.90441267  0.07965608  0.48465182  1
  O  O319  1  0.89864693  0.07007623  0.97183534  1
  O  O320  1  0.88701877  0.38867345  0.48250412  1
  O  O321  1  0.90689876  0.40453309  0.98213252  1
  O  O322  1  0.89042185  0.73566835  0.47975210  1
  O  O323  1  0.90181704  0.73879762  0.98059188  1
  O  O324  1  0.08599033  0.26284676  0.23508857  1
  O  O325  1  0.09321731  0.25992180  0.74845793  1
  O  O326  1  0.09070694  0.58045223  0.24032746  1
  O  O327  1  0.10792778  0.59407169  0.72557641  1
  O  O328  1  0.10080076  0.92747686  0.22532378  1
  O  O329  1  0.08727150  0.93200547  0.72283307  1
  O  O330  1  0.42784358  0.26830347  0.22437978  1
  O  O331  1  0.43286737  0.26630943  0.73156322  1
  O  O332  1  0.43046660  0.58010010  0.23541587  1
  O  O333  1  0.42525084  0.57907523  0.72590464  1
  O  O334  1  0.42801644  0.93299221  0.23568899  1
  O  O335  1  0.43753678  0.93163270  0.72298826  1
  O  O336  1  0.76563373  0.26959125  0.22818779  1
  O  O337  1  0.75976122  0.26190897  0.71958515  1
  O  O338  1  0.76356306  0.60466948  0.22123706  1
  O  O339  1  0.75099205  0.58375896  0.73465241  1
  O  O340  1  0.76352286  0.92777336  0.21510928  1
  O  O341  1  0.76649407  0.93190098  0.72315302  1
  O  O342  1  0.08871506  0.08092721  0.21318833  1
  O  O343  1  0.06877838  0.08413677  0.73292641  1
  O  O344  1  0.07012148  0.42611070  0.23325542  1
  O  O345  1  0.07279183  0.43658455  0.72816139  1
  O  O346  1  0.07755312  0.76306310  0.23299459  1
  O  O347  1  0.07006761  0.76348141  0.71949107  1
  O  O348  1  0.39480873  0.11128994  0.23197868  1
  O  O349  1  0.41523005  0.09443277  0.73080268  1
  O  O350  1  0.41382122  0.42125529  0.22199744  1
  O  O351  1  0.40472432  0.42695185  0.72665144  1
  O  O352  1  0.41300952  0.75781713  0.23373226  1
  O  O353  1  0.40424986  0.77305867  0.72383267  1
  O  O354  1  0.74885546  0.08987422  0.23234981  1
  O  O355  1  0.73578786  0.10119909  0.72549896  1
  O  O356  1  0.73961206  0.41999087  0.22956507  1
  O  O357  1  0.73338249  0.41954095  0.72101865  1
  O  O358  1  0.73184869  0.76073730  0.21721786  1
  O  O359  1  0.73812211  0.77420722  0.72858407  1
