# generated using pymatgen
data_BaLaInIrO6
_symmetry_space_group_name_H-M   'P 1'
_cell_length_a   17.53347869
_cell_length_b   17.57600358
_cell_length_c   16.51139547
_cell_angle_alpha   89.98944685
_cell_angle_beta   90.02100805
_cell_angle_gamma   90.11839538
_symmetry_Int_Tables_number   1
_chemical_formula_structural   BaLaInIrO6
_chemical_formula_sum   'Ba36 La36 In36 Ir36 O216'
_cell_volume   5088.28042501
_cell_formula_units_Z   36
loop_
 _symmetry_equiv_pos_site_id
 _symmetry_equiv_pos_as_xyz
  1  'x, y, z'
loop_
 _atom_site_type_symbol
 _atom_site_label
 _atom_site_symmetry_multiplicity
 _atom_site_fract_x
 _atom_site_fract_y
 _atom_site_fract_z
 _atom_site_occupancy
  Ba  Ba0  1  0.33807937  0.16012966  0.87687875  1
  Ba  Ba1  1  0.33716036  0.17238179  0.62745479  1
  Ba  Ba2  1  0.50353616  0.00532371  0.12729254  1
  Ba  Ba3  1  0.33224151  0.15754041  0.37344738  1
  Ba  Ba4  1  0.82676982  0.67410473  0.12420808  1
  Ba  Ba5  1  0.33128567  0.50203123  0.62918724  1
  Ba  Ba6  1  0.16975246  0.99276474  0.87362123  1
  Ba  Ba7  1  0.33229814  0.17559900  0.12360776  1
  Ba  Ba8  1  0.16312919  0.67818738  0.62544733  1
  Ba  Ba9  1  0.50231887  0.99108919  0.87538457  1
  Ba  Ba10  1  0.33656054  0.82580093  0.37261651  1
  Ba  Ba11  1  0.50077927  0.66731803  0.12414004  1
  Ba  Ba12  1  0.99998037  0.51046285  0.12507565  1
  Ba  Ba13  1  0.33433030  0.50412598  0.12417765  1
  Ba  Ba14  1  0.49757710  0.00569398  0.62373104  1
  Ba  Ba15  1  0.83615821  0.32515865  0.37187298  1
  Ba  Ba16  1  0.83238917  0.68148086  0.62891985  1
  Ba  Ba17  1  0.16421584  0.01148844  0.62340785  1
  Ba  Ba18  1  0.16626928  0.32493784  0.37574271  1
  Ba  Ba19  1  0.16905684  0.98864865  0.37273772  1
  Ba  Ba20  1  0.16459586  0.34391290  0.12711748  1
  Ba  Ba21  1  0.66579698  0.15574152  0.87459704  1
  Ba  Ba22  1  0.82985307  0.34686493  0.62467417  1
  Ba  Ba23  1  0.16851166  0.32264345  0.87512440  1
  Ba  Ba24  1  0.49901580  0.32231767  0.87175550  1
  Ba  Ba25  1  0.83943039  0.98776322  0.87118188  1
  Ba  Ba26  1  0.83343998  0.01005075  0.62590644  1
  Ba  Ba27  1  0.66312497  0.82464994  0.37613821  1
  Ba  Ba28  1  0.66876362  0.84947309  0.62561652  1
  Ba  Ba29  1  0.49851762  0.33781518  0.62681573  1
  Ba  Ba30  1  0.16679134  0.65758137  0.37753478  1
  Ba  Ba31  1  -0.00043623  0.16046794  0.37076362  1
  Ba  Ba32  1  0.83493053  0.34565544  0.12320763  1
  Ba  Ba33  1  0.66776104  0.50206019  0.12281352  1
  Ba  Ba34  1  0.16725743  0.65682334  0.87623379  1
  Ba  Ba35  1  0.49646054  0.34140088  0.11870523  1
  La  La36  1  0.16504018  0.67697099  0.12428841  1
  La  La37  1  0.33099189  0.47874133  0.88172990  1
  La  La38  1  1.00556632  0.18005020  0.62298027  1
  La  La39  1  0.67085089  0.51874950  0.62887835  1
  La  La40  1  0.66616250  0.82043155  0.86958885  1
  La  La41  1  0.33264455  0.84643276  0.62139411  1
  La  La42  1  -0.00038564  0.48602437  0.87320006  1
  La  La43  1  0.33645343  0.84102859  0.12246863  1
  La  La44  1  0.66722568  0.18082530  0.63144566  1
  La  La45  1  1.00141630  0.85337650  0.62596542  1
  La  La46  1  0.67440740  0.85301841  0.12004814  1
  La  La47  1  1.00558508  0.84549721  0.12612699  1
  La  La48  1  0.16518515  0.01946299  0.12408817  1
  La  La49  1  1.00596244  0.18400007  0.12327663  1
  La  La50  1  0.66451319  0.48394908  0.87480395  1
  La  La51  1  0.50162081  0.64924059  0.87565504  1
  La  La52  1  0.16846579  0.34114571  0.62454724  1
  La  La53  1  1.00716215  0.51409953  0.62545151  1
  La  La54  1  0.83763825  0.65048475  0.38048293  1
  La  La55  1  0.82624518  0.02239511  0.12396597  1
  La  La56  1  0.49286389  0.68003318  0.62711638  1
  La  La57  1  -0.00379657  0.48586878  0.37476801  1
  La  La58  1  -0.00512020  0.15234816  0.87555855  1
  La  La59  1  0.83469337  0.65146083  0.87056643  1
  La  La60  1  -0.00633766  0.81394583  0.86802752  1
  La  La61  1  0.32971759  0.48471631  0.37405566  1
  La  La62  1  0.49619203  0.32327007  0.37699191  1
  La  La63  1  0.83882867  0.31843288  0.88022702  1
  La  La64  1  0.66916754  0.48647943  0.37910736  1
  La  La65  1  0.33493690  0.82592190  0.86940791  1
  La  La66  1  0.67246223  0.18836490  0.11809942  1
  La  La67  1  0.65981777  0.15680563  0.37981611  1
  La  La68  1  0.83607714  0.98852432  0.37218356  1
  La  La69  1  0.50388941  0.64422004  0.37536304  1
  La  La70  1  -0.00671047  0.82021713  0.38240184  1
  La  La71  1  0.50277965  0.98601372  0.37427768  1
  In  In72  1  -0.00209739  -0.00051580  0.24657220  1
  In  In73  1  0.33390003  0.00037622  0.74913231  1
  In  In74  1  0.50183073  0.49704625  0.50421392  1
  In  In75  1  0.83221068  0.16635348  0.49729152  1
  In  In76  1  0.16427940  0.83299690  -0.00163884  1
  In  In77  1  0.50119710  0.49812969  0.75040854  1
  In  In78  1  0.50234992  0.16666557  0.25056324  1
  In  In79  1  0.16770766  0.50227358  0.75394571  1
  In  In80  1  -0.00272558  0.33447170  0.75092950  1
  In  In81  1  -0.00024231  0.66641806  0.25127199  1
  In  In82  1  0.66692677  0.66811695  0.25080619  1
  In  In83  1  0.49911256  0.16543199  0.50148343  1
  In  In84  1  0.00048180  0.00289204  0.49642383  1
  In  In85  1  0.83480053  0.16675032  0.74880296  1
  In  In86  1  0.50064090  0.83063674  0.50108492  1
  In  In87  1  0.67069941  0.00433209  0.25208591  1
  In  In88  1  0.83278174  0.50335977  0.25086073  1
  In  In89  1  0.32989384  0.66371968  0.00034742  1
  In  In90  1  0.50262730  0.82774545  0.24584832  1
  In  In91  1  0.16602145  0.50025985  0.49899840  1
  In  In92  1  0.33533854  0.66485694  0.50128269  1
  In  In93  1  0.16567595  0.16876991  0.25183804  1
  In  In94  1  0.33441616  -0.00370157  -0.00013166  1
  In  In95  1  0.83038967  0.83346997  0.50257541  1
  In  In96  1  0.83747787  0.83216998  -0.00098570  1
  In  In97  1  0.83552172  0.50182893  -0.00432623  1
  In  In98  1  -0.00091802  -0.00247745  0.00045614  1
  In  In99  1  0.16438677  0.83125268  0.74990019  1
  In  In100  1  0.33216800  0.66477181  0.25042026  1
  In  In101  1  -0.00290971  0.33439247  0.50093913  1
  In  In102  1  0.33223802  -0.00192204  0.24632969  1
  In  In103  1  0.66575397  0.33448733  0.25227445  1
  In  In104  1  0.66743248  0.66809284  -0.00242662  1
  In  In105  1  0.50298501  0.82857342  -0.00059113  1
  In  In106  1  0.50336975  0.16439326  0.00197809  1
  In  In107  1  0.83540942  0.83267052  0.24899410  1
  Ir  Ir108  1  0.16527750  0.49898258  0.24962119  1
  Ir  Ir109  1  0.33070795  0.32850294  0.75039132  1
  Ir  Ir110  1  0.66923665  0.33498511  -0.00625538  1
  Ir  Ir111  1  -0.00200049  0.66761950  0.50394798  1
  Ir  Ir112  1  0.33806319  0.66718843  0.75230941  1
  Ir  Ir113  1  0.66989944  0.33548110  0.74819964  1
  Ir  Ir114  1  0.66765695  0.33590857  0.50393020  1
  Ir  Ir115  1  0.83505449  0.16986289  0.00081107  1
  Ir  Ir116  1  0.66675851  0.66319289  0.50246942  1
  Ir  Ir117  1  0.00178804  0.00236930  0.74982887  1
  Ir  Ir118  1  0.83044015  0.50174302  0.74890978  1
  Ir  Ir119  1  0.32952743  0.33304839  0.00062450  1
  Ir  Ir120  1  0.33115136  0.33194460  0.50171535  1
  Ir  Ir121  1  0.66775769  0.00636079  0.50236886  1
  Ir  Ir122  1  0.16386241  0.49985989  0.00182934  1
  Ir  Ir123  1  0.83070390  0.16993438  0.24499505  1
  Ir  Ir124  1  0.49739651  0.49528099  0.25365038  1
  Ir  Ir125  1  0.67406576  0.00040757  -0.00367203  1
  Ir  Ir126  1  0.33406099  0.33773677  0.25090246  1
  Ir  Ir127  1  0.83192787  0.50441278  0.50667237  1
  Ir  Ir128  1  0.66676223  0.66848253  0.74963192  1
  Ir  Ir129  1  -0.00087915  0.33514533  0.24730892  1
  Ir  Ir130  1  0.16451631  0.83288333  0.49935605  1
  Ir  Ir131  1  0.50570543  0.16558770  0.74926195  1
  Ir  Ir132  1  0.16397318  0.17006055  0.74850251  1
  Ir  Ir133  1  -0.00584280  0.66589330  0.74922183  1
  Ir  Ir134  1  0.16469279  0.83112399  0.24843899  1
  Ir  Ir135  1  0.16980111  0.16939109  0.50561887  1
  Ir  Ir136  1  0.49953296  0.49668079  -0.00318367  1
  Ir  Ir137  1  0.33064775  -0.00171320  0.49949816  1
  Ir  Ir138  1  0.16109531  0.17073797  -0.00286272  1
  Ir  Ir139  1  0.83154502  0.83384109  0.75117841  1
  Ir  Ir140  1  0.00168686  0.33403369  -0.00180218  1
  Ir  Ir141  1  0.66694641  -0.00069544  0.74921192  1
  Ir  Ir142  1  -0.00047584  0.66487639  -0.00403770  1
  Ir  Ir143  1  0.50001808  0.82843134  0.74950240  1
  O  O144  1  0.31285243  0.33528900  0.12628164  1
  O  O145  1  0.30225435  0.32770424  0.62524528  1
  O  O146  1  0.29798706  0.65216458  0.12702778  1
  O  O147  1  0.31514698  0.65650591  0.63479727  1
  O  O148  1  0.29467396  0.98059326  0.12100020  1
  O  O149  1  0.31310922  0.98969898  0.62113502  1
  O  O150  1  0.65109373  0.33101287  0.11703182  1
  O  O151  1  0.64588297  0.32096957  0.62590449  1
  O  O152  1  0.65201562  0.65178296  0.12325004  1
  O  O153  1  0.63134106  0.65501951  0.62631053  1
  O  O154  1  0.65770230  0.99458649  0.11648427  1
  O  O155  1  0.64403424  1.00370660  0.62569357  1
  O  O156  1  0.98140643  0.32080302  0.12235062  1
  O  O157  1  0.97814135  0.31722842  0.62723123  1
  O  O158  1  0.97784462  0.66223892  0.11575431  1
  O  O159  1  0.97613325  0.64833886  0.62682601  1
  O  O160  1  0.95958246  0.98483374  0.12305536  1
  O  O161  1  0.98452215  0.99410004  0.62810226  1
  O  O162  1  0.17792835  0.16906512  0.11724703  1
  O  O163  1  0.18917988  0.17663528  0.62714541  1
  O  O164  1  0.18629101  0.50100826  0.12489449  1
  O  O165  1  0.18005188  0.48812258  0.62781406  1
  O  O166  1  0.19417164  0.81793575  0.13056950  1
  O  O167  1  0.19300319  0.83259792  0.62035336  1
  O  O168  1  0.53795476  0.17023077  0.12631533  1
  O  O169  1  0.52957895  0.16699561  0.62729326  1
  O  O170  1  0.52042326  0.49300152  0.12740796  1
  O  O171  1  0.53457311  0.49354690  0.62835282  1
  O  O172  1  0.54577655  0.82048964  0.12165954  1
  O  O173  1  0.52426832  0.81931415  0.63033687  1
  O  O174  1  0.86614717  0.16261768  0.12360542  1
  O  O175  1  0.86800421  0.16622247  0.62498101  1
  O  O176  1  0.84476788  0.50414692  0.12266709  1
  O  O177  1  0.86749292  0.49996712  0.62871970  1
  O  O178  1  0.87152586  0.82372039  0.12322675  1
  O  O179  1  0.86198969  0.83663359  0.63128268  1
  O  O180  1  0.15148702  0.16683757  0.38491341  1
  O  O181  1  0.13198664  0.16767988  0.87093788  1
  O  O182  1  0.13484578  0.49713438  0.36915512  1
  O  O183  1  0.13672455  0.49914552  0.88172160  1
  O  O184  1  0.13097464  0.83393533  0.37334008  1
  O  O185  1  0.12853655  0.83251720  0.87288524  1
  O  O186  1  0.48398136  0.18667693  0.37767812  1
  O  O187  1  0.49218941  0.16575126  0.87004045  1
  O  O188  1  0.46940786  0.50234156  0.37450304  1
  O  O189  1  0.47052751  0.50412467  0.87667251  1
  O  O190  1  0.48708628  0.84897781  0.37674244  1
  O  O191  1  0.47080585  0.83452808  0.86697139  1
  O  O192  1  0.79768643  0.17150737  0.36451827  1
  O  O193  1  0.81448172  0.17719250  0.88014034  1
  O  O194  1  0.80369019  0.50981271  0.38789115  1
  O  O195  1  0.80060914  0.50985822  0.86584123  1
  O  O196  1  0.81313593  0.85207991  0.37740269  1
  O  O197  1  0.80387201  0.83250819  0.86979402  1
  O  O198  1  0.02027243  0.00686452  0.37171683  1
  O  O199  1  0.02013654  0.01464372  0.87131467  1
  O  O200  1  0.01535025  0.34615179  0.36954496  1
  O  O201  1  0.01980780  0.34723345  0.87925650  1
  O  O202  1  0.02038825  0.68069553  0.38538116  1
  O  O203  1  0.02006082  0.67659175  0.87137504  1
  O  O204  1  0.35975124  -0.00202509  0.37940577  1
  O  O205  1  0.34952026  0.00159549  0.87323808  1
  O  O206  1  0.35946715  0.34492570  0.37658205  1
  O  O207  1  0.35016175  0.34092200  0.87574993  1
  O  O208  1  0.36795849  0.67043234  0.37528607  1
  O  O209  1  0.36536105  0.68301313  0.87040713  1
  O  O210  1  0.70190757  0.01631629  0.38365006  1
  O  O211  1  0.69230805  -0.00045716  0.87113138  1
  O  O212  1  0.68802613  0.34739128  0.38568044  1
  O  O213  1  0.70172283  0.34323072  0.86958421  1
  O  O214  1  0.69909414  0.66758472  0.38695126  1
  O  O215  1  0.70027778  0.68114347  0.86553455  1
  O  O216  1  0.06717299  0.10371249  0.01795293  1
  O  O217  1  0.07248294  0.10510854  0.52438285  1
  O  O218  1  0.06667116  0.43123079  0.01559791  1
  O  O219  1  0.06804908  0.42967940  0.52404099  1
  O  O220  1  0.06026166  0.76052003  0.02126028  1
  O  O221  1  0.06382464  0.76681164  0.52578718  1
  O  O222  1  0.41065366  0.09033652  0.01903553  1
  O  O223  1  0.40424183  0.08539905  0.51390337  1
  O  O224  1  0.40040837  0.42797444  0.00794633  1
  O  O225  1  0.39961032  0.42420064  0.51280219  1
  O  O226  1  0.40021120  0.76085113  0.02134802  1
  O  O227  1  0.40438369  0.76148819  0.53350335  1
  O  O228  1  0.74007200  0.10138295  0.02596422  1
  O  O229  1  0.72661230  0.10412696  0.52346789  1
  O  O230  1  0.73807261  0.42572185  0.00182746  1
  O  O231  1  0.73091943  0.43782688  0.52668760  1
  O  O232  1  0.73034791  0.77507621  0.01612349  1
  O  O233  1  0.73393963  0.75511188  0.52110653  1
  O  O234  1  0.09017918  0.26103120  0.01928728  1
  O  O235  1  0.10186482  0.26203926  0.52587766  1
  O  O236  1  0.09825862  0.59853642  0.02218091  1
  O  O237  1  0.08572882  0.59445709  0.52039818  1
  O  O238  1  0.09828193  0.93180585  0.03288201  1
  O  O239  1  0.09389624  0.91996878  0.51794799  1
  O  O240  1  0.41889857  0.26088963  0.00992228  1
  O  O241  1  0.42454807  0.26513769  0.51139669  1
  O  O242  1  0.43049394  0.58800503  0.00729796  1
  O  O243  1  0.44067193  0.60022406  0.52292859  1
  O  O244  1  0.42736394  0.91836786  0.02361304  1
  O  O245  1  0.41588447  0.92348568  0.51786848  1
  O  O246  1  0.76291686  0.26356055  0.01619557  1
  O  O247  1  0.75468213  0.26375302  0.52013934  1
  O  O248  1  0.76859874  0.60230649  -0.00568906  1
  O  O249  1  0.75787210  0.59302823  0.53019438  1
  O  O250  1  0.77000281  0.93856541  0.02068431  1
  O  O251  1  0.75762131  0.93668506  0.51475982  1
  O  O252  1  0.23459948  0.07154429  0.25161859  1
  O  O253  1  0.23381017  0.07990400  0.76049857  1
  O  O254  1  0.23997607  0.40973146  0.27297844  1
  O  O255  1  0.24238432  0.40220598  0.76320893  1
  O  O256  1  0.22902003  0.73844624  0.26654690  1
  O  O257  1  0.24784007  0.73695080  0.76963876  1
  O  O258  1  0.57579964  0.07273381  0.28806224  1
  O  O259  1  0.57447813  0.06969670  0.76477547  1
  O  O260  1  0.56116203  0.40151824  0.27577446  1
  O  O261  1  0.58467886  0.40910791  0.77417789  1
  O  O262  1  0.56415455  0.72492974  0.28118659  1
  O  O263  1  0.56990818  0.73390226  0.77591895  1
  O  O264  1  0.89138131  0.07294264  0.26536505  1
  O  O265  1  0.91516411  0.07522151  0.76868117  1
  O  O266  1  0.91332477  0.40983910  0.26496761  1
  O  O267  1  0.89492172  0.40934214  0.77914982  1
  O  O268  1  0.90225720  0.73317159  0.28463672  1
  O  O269  1  0.89938629  0.73812473  0.77495853  1
  O  O270  1  0.26190346  0.24892915  0.26297538  1
  O  O271  1  0.25916625  0.23699258  0.76781715  1
  O  O272  1  0.25860482  0.56219166  0.27706389  1
  O  O273  1  0.27393113  0.57088462  0.77934647  1
  O  O274  1  0.25317376  0.89804288  0.26643902  1
  O  O275  1  0.26527533  0.89798032  0.76532164  1
  O  O276  1  0.60367295  0.23623480  0.27555474  1
  O  O277  1  0.60274652  0.23721590  0.76076069  1
  O  O278  1  0.59190802  0.55944944  0.28014305  1
  O  O279  1  0.60102138  0.57572960  0.77881664  1
  O  O280  1  0.59335391  0.91285339  0.26409534  1
  O  O281  1  0.59643615  0.89745601  0.77272976  1
  O  O282  1  0.92849659  0.23838557  0.25929530  1
  O  O283  1  0.92708770  0.24143859  0.78570287  1
  O  O284  1  0.93263185  0.56946742  0.28468802  1
  O  O285  1  0.92618526  0.56858015  0.77690030  1
  O  O286  1  0.94034727  0.89496796  0.27451208  1
  O  O287  1  0.93461636  0.89895091  0.76769877  1
  O  O288  1  0.26384969  0.23816848  0.48526801  1
  O  O289  1  0.25712670  0.23994756  0.98202633  1
  O  O290  1  0.26638580  0.56586023  0.47728812  1
  O  O291  1  0.25971426  0.56094842  0.97428616  1
  O  O292  1  0.25987316  0.90154474  0.48338229  1
  O  O293  1  0.26651044  0.89335951  0.96979899  1
  O  O294  1  0.60263856  0.24183554  0.48305568  1
  O  O295  1  0.59934662  0.24479567  0.98642205  1
  O  O296  1  0.60286244  0.56904362  0.47566638  1
  O  O297  1  0.59061724  0.56660922  0.96897018  1
  O  O298  1  0.59285800  0.91859340  0.48353883  1
  O  O299  1  0.61180470  0.90340854  0.97804413  1
  O  O300  1  0.92673948  0.23993580  0.48024583  1
  O  O301  1  0.93266761  0.23831108  0.97547862  1
  O  O302  1  0.92990697  0.57147688  0.47763521  1
  O  O303  1  0.93766887  0.56999872  0.96741473  1
  O  O304  1  0.93541224  0.89743825  0.48909558  1
  O  O305  1  0.93859350  0.89471552  0.96930501  1
  O  O306  1  0.23966338  0.07276691  0.48483053  1
  O  O307  1  0.22736357  0.07799127  0.99191267  1
  O  O308  1  0.23986247  0.40029435  0.48916510  1
  O  O309  1  0.23717428  0.40907949  0.97981343  1
  O  O310  1  0.23636961  0.74464629  0.48641273  1
  O  O311  1  0.22871731  0.73041366  0.99359968  1
  O  O312  1  0.57449543  0.07099484  0.47229175  1
  O  O313  1  0.58406807  0.06803334  0.98531716  1
  O  O314  1  0.57362962  0.40073748  0.47664117  1
  O  O315  1  0.57899198  0.40888224  0.97183456  1
  O  O316  1  0.57085542  0.72532466  0.48124144  1
  O  O317  1  0.57138762  0.73448848  0.95967187  1
  O  O318  1  0.89541024  0.06446733  0.47445586  1
  O  O319  1  0.90532041  0.08067704  0.98285383  1
  O  O320  1  0.90455853  0.41898800  0.48111192  1
  O  O321  1  0.90819934  0.40260065  0.97318340  1
  O  O322  1  0.90560920  0.73418468  0.48079590  1
  O  O323  1  0.90499833  0.72719454  0.96780803  1
  O  O324  1  0.08421450  0.25886655  0.23526087  1
  O  O325  1  0.09846063  0.26272342  0.72618871  1
  O  O326  1  0.10053841  0.59403753  0.22963547  1
  O  O327  1  0.08514227  0.59539195  0.73323355  1
  O  O328  1  0.10025633  0.92447347  0.21737289  1
  O  O329  1  0.08667658  0.92740539  0.73039263  1
  O  O330  1  0.42723738  0.27163426  0.24164026  1
  O  O331  1  0.43084303  0.25553758  0.73496671  1
  O  O332  1  0.43348156  0.58768230  0.24021803  1
  O  O333  1  0.43666996  0.60435528  0.73665323  1
  O  O334  1  0.42009712  0.91773333  0.22565035  1
  O  O335  1  0.42655064  0.91321860  0.72573935  1
  O  O336  1  0.76327459  0.25896048  0.22390553  1
  O  O337  1  0.75696193  0.26202106  0.73241869  1
  O  O338  1  0.76949647  0.60548767  0.25479366  1
  O  O339  1  0.75765624  0.59415336  0.72515944  1
  O  O340  1  0.77448752  0.94279615  0.23052520  1
  O  O341  1  0.76198099  0.92916750  0.73298123  1
  O  O342  1  0.06872500  0.09556944  0.21609079  1
  O  O343  1  0.06413435  0.10590681  0.72983667  1
  O  O344  1  0.06850239  0.42996137  0.23371941  1
  O  O345  1  0.06121400  0.43644402  0.73641827  1
  O  O346  1  0.07113494  0.76479533  0.22453712  1
  O  O347  1  0.05844023  0.76194975  0.72468535  1
  O  O348  1  0.40982643  0.09153506  0.23293850  1
  O  O349  1  0.41698751  0.09313549  0.73518161  1
  O  O350  1  0.39917382  0.43256206  0.24324519  1
  O  O351  1  0.40409931  0.41875904  0.74039721  1
  O  O352  1  0.40055040  0.76087814  0.21784839  1
  O  O353  1  0.40346498  0.76232496  0.72194347  1
  O  O354  1  0.73739664  0.10679344  0.21816702  1
  O  O355  1  0.73401095  0.09476142  0.72823419  1
  O  O356  1  0.73444813  0.43176234  0.25064241  1
  O  O357  1  0.73208712  0.43630908  0.72702778  1
  O  O358  1  0.72889314  0.77492619  0.22574984  1
  O  O359  1  0.73456400  0.76635156  0.73226870  1
