# generated using pymatgen
data_BaLaInIrO6
_symmetry_space_group_name_H-M   'P 1'
_cell_length_a   17.50378788
_cell_length_b   17.53280770
_cell_length_c   16.48564637
_cell_angle_alpha   90.05585723
_cell_angle_beta   90.00699646
_cell_angle_gamma   90.01101260
_symmetry_Int_Tables_number   1
_chemical_formula_structural   BaLaInIrO6
_chemical_formula_sum   'Ba36 La36 In36 Ir36 O216'
_cell_volume   5059.28649429
_cell_formula_units_Z   36
loop_
 _symmetry_equiv_pos_site_id
 _symmetry_equiv_pos_as_xyz
  1  'x, y, z'
loop_
 _atom_site_type_symbol
 _atom_site_label
 _atom_site_symmetry_multiplicity
 _atom_site_fract_x
 _atom_site_fract_y
 _atom_site_fract_z
 _atom_site_occupancy
  Ba  Ba0  1  0.49911172  0.32637370  0.38116073  1
  Ba  Ba1  1  0.66407564  0.48958654  0.87247586  1
  Ba  Ba2  1  0.66781761  0.82140628  0.87888318  1
  Ba  Ba3  1  0.83043498  0.98932609  0.87913868  1
  Ba  Ba4  1  0.66368472  0.50774102  0.62146816  1
  Ba  Ba5  1  0.16874449  0.32486547  0.87124862  1
  Ba  Ba6  1  -0.00476821  0.82172253  0.87508292  1
  Ba  Ba7  1  0.50394426  0.99323325  0.87810783  1
  Ba  Ba8  1  -0.00333539  0.15958008  0.37668850  1
  Ba  Ba9  1  0.67142657  0.82548207  0.37451628  1
  Ba  Ba10  1  0.16955900  0.65456925  0.37634965  1
  Ba  Ba11  1  0.66362493  0.15490540  0.87167655  1
  Ba  Ba12  1  0.83659308  0.99205836  0.37808743  1
  Ba  Ba13  1  0.32812427  0.48833920  0.86972566  1
  Ba  Ba14  1  0.33047938  0.84279676  0.12814318  1
  Ba  Ba15  1  0.50008431  0.65708368  0.37039432  1
  Ba  Ba16  1  0.83752132  0.32710974  0.37456385  1
  Ba  Ba17  1  0.50151026  0.34276363  0.62581493  1
  Ba  Ba18  1  0.17011648  0.33874249  0.12484975  1
  Ba  Ba19  1  0.83600436  0.00661396  0.12678308  1
  Ba  Ba20  1  0.66771410  0.17888241  0.12083630  1
  Ba  Ba21  1  -0.00036249  0.49415476  0.87532843  1
  Ba  Ba22  1  0.33386562  0.15869880  0.37988571  1
  Ba  Ba23  1  0.83338919  0.67262703  0.12684079  1
  Ba  Ba24  1  0.33877526  0.50717514  0.62178799  1
  Ba  Ba25  1  0.83521545  0.65709312  0.87459440  1
  Ba  Ba26  1  0.16670589  0.32204123  0.37630438  1
  Ba  Ba27  1  -0.00266338  0.49300901  0.37194704  1
  Ba  Ba28  1  0.33236357  0.83915088  0.62628946  1
  Ba  Ba29  1  0.16205473  0.67348333  0.12265902  1
  Ba  Ba30  1  0.66583705  0.48438038  0.36816403  1
  Ba  Ba31  1  0.33484056  0.15953734  0.87400771  1
  Ba  Ba32  1  0.16527876  0.67836313  0.62662508  1
  Ba  Ba33  1  0.16296269  0.65680610  0.87052973  1
  Ba  Ba34  1  0.15890977  0.00709940  0.12514355  1
  Ba  Ba35  1  0.99586911  0.17748957  0.62321654  1
  La  La36  1  0.83210050  0.01756375  0.63010277  1
  La  La37  1  0.49462007  0.67957730  0.62520776  1
  La  La38  1  1.00067152  0.51252449  0.12268647  1
  La  La39  1  0.66529374  0.51018179  0.12453732  1
  La  La40  1  -0.00747894  0.82098158  0.37610423  1
  La  La41  1  0.50499606  0.65291963  0.87139976  1
  La  La42  1  0.66286238  0.16130373  0.37018240  1
  La  La43  1  0.83853197  0.32016118  0.87329647  1
  La  La44  1  1.00652473  0.17921231  0.12752560  1
  La  La45  1  0.49239240  0.01772526  0.12549254  1
  La  La46  1  0.17251167  0.98355228  0.86992088  1
  La  La47  1  0.16730498  0.35008870  0.62434627  1
  La  La48  1  0.33699021  0.18158843  0.62844788  1
  La  La49  1  0.67008521  0.84421011  0.12347640  1
  La  La50  1  1.00889913  0.85255133  0.63007167  1
  La  La51  1  0.32685155  0.82115422  0.37834051  1
  La  La52  1  0.33471383  0.51479327  0.12079127  1
  La  La53  1  0.49467078  0.33708290  0.12649506  1
  La  La54  1  0.83353578  0.68231622  0.62622160  1
  La  La55  1  1.00560534  0.84662113  0.12016007  1
  La  La56  1  0.67689186  0.18661791  0.62680180  1
  La  La57  1  0.82911747  0.35095387  0.62309170  1
  La  La58  1  0.16609521  0.98819102  0.37925806  1
  La  La59  1  0.50730049  0.98871390  0.37734634  1
  La  La60  1  0.66952504  0.84581911  0.62688006  1
  La  La61  1  0.82911640  0.34741416  0.12516684  1
  La  La62  1  -0.00855127  0.15497148  0.87439601  1
  La  La63  1  0.16529738  0.01628038  0.62499587  1
  La  La64  1  0.32616878  0.48103905  0.37264285  1
  La  La65  1  1.00329923  0.51395949  0.62262587  1
  La  La66  1  0.50057536  0.01698439  0.62791111  1
  La  La67  1  0.32743615  0.81869616  0.87425525  1
  La  La68  1  0.49779652  0.68007000  0.12409326  1
  La  La69  1  0.32558321  0.17104678  0.13092052  1
  La  La70  1  0.50570375  0.31816787  0.86930097  1
  La  La71  1  0.84097839  0.65381315  0.37825495  1
  In  In72  1  0.83163200  0.16654586  0.49665201  1
  In  In73  1  0.33251759  0.33123595  0.50127897  1
  In  In74  1  0.83575623  0.83711328  0.74985963  1
  In  In75  1  0.00011387  0.33408965  0.50147710  1
  In  In76  1  0.49968380  0.83444693  0.00105817  1
  In  In77  1  0.16390840  0.16456547  -0.00506589  1
  In  In78  1  0.50117124  0.50183298  0.49562893  1
  In  In79  1  -0.00132246  0.33472508  -0.00050194  1
  In  In80  1  0.49936927  0.49601106  0.00000555  1
  In  In81  1  0.49967520  0.17221545  0.00103266  1
  In  In82  1  0.00043317  0.33362491  0.74790776  1
  In  In83  1  0.33372816  0.00080140  0.25432631  1
  In  In84  1  0.33356362  0.66494893  0.24927467  1
  In  In85  1  0.33144140  0.00118136  0.00042212  1
  In  In86  1  -0.00050641  0.66769975  0.25081509  1
  In  In87  1  0.33358242  0.66502608  0.49994010  1
  In  In88  1  0.16288892  0.83391605  0.25437873  1
  In  In89  1  0.00017478  0.00150754  -0.00266165  1
  In  In90  1  0.83418803  0.83397497  0.25133856  1
  In  In91  1  0.33295767  0.66474391  0.75010141  1
  In  In92  1  0.50212792  0.83546737  0.25025826  1
  In  In93  1  0.66784459  0.66733488  0.24991162  1
  In  In94  1  0.83286769  0.16794363  0.00157817  1
  In  In95  1  0.66751481  0.66846749  0.49866479  1
  In  In96  1  0.66536759  -0.00072966  0.00369977  1
  In  In97  1  0.66883137  0.00193064  0.50177239  1
  In  In98  1  0.16600454  0.49946789  -0.00096816  1
  In  In99  1  0.33510655  0.00111434  0.74793438  1
  In  In100  1  0.49965124  0.17136216  0.25315625  1
  In  In101  1  0.83265211  0.50369041  0.50070718  1
  In  In102  1  0.66623034  0.66602150  0.74742980  1
  In  In103  1  -0.00000540  0.33453905  0.24803935  1
  In  In104  1  0.50004727  0.83547552  0.75117483  1
  In  In105  1  0.16665420  0.83000943  -0.00217756  1
  In  In106  1  0.33477802  0.33265212  -0.00197253  1
  In  In107  1  0.33605533  -0.00099068  0.50214932  1
  Ir  Ir108  1  0.33321277  0.33090238  0.74780161  1
  Ir  Ir109  1  0.50289834  0.83626090  0.50075987  1
  Ir  Ir110  1  0.00042484  0.67048761  0.50299050  1
  Ir  Ir111  1  0.00289448  0.00497349  0.74682059  1
  Ir  Ir112  1  -0.00558638  0.66413091  -0.00100278  1
  Ir  Ir113  1  0.00177861  -0.00082701  0.50374033  1
  Ir  Ir114  1  0.67147942  0.33499440  0.75045946  1
  Ir  Ir115  1  0.83450589  0.49908072  0.75122402  1
  Ir  Ir116  1  0.49937673  0.49700162  0.75067035  1
  Ir  Ir117  1  -0.00393343  0.66287479  0.74694034  1
  Ir  Ir118  1  0.50460637  0.16947558  0.74363659  1
  Ir  Ir119  1  0.84151041  0.83556753  0.50621798  1
  Ir  Ir120  1  0.83211452  0.16665043  0.75036981  1
  Ir  Ir121  1  0.83588268  0.82748880  0.00459932  1
  Ir  Ir122  1  0.66802385  0.33727497  -0.00229118  1
  Ir  Ir123  1  0.49800789  0.49259046  0.24366070  1
  Ir  Ir124  1  0.66841801  0.32973890  0.49987506  1
  Ir  Ir125  1  0.66668683  0.33231101  0.24599447  1
  Ir  Ir126  1  0.16897228  0.49788040  0.25031687  1
  Ir  Ir127  1  0.16518272  0.50050566  0.49884362  1
  Ir  Ir128  1  0.33092809  0.33323301  0.24802011  1
  Ir  Ir129  1  0.16104682  0.83609227  0.50314146  1
  Ir  Ir130  1  0.33693939  0.66588847  0.00026152  1
  Ir  Ir131  1  0.16507949  0.49986788  0.74220433  1
  Ir  Ir132  1  0.66609947  0.00337413  0.25322712  1
  Ir  Ir133  1  0.66474472  0.66131456  0.00054036  1
  Ir  Ir134  1  0.82866107  0.49887237  -0.00108862  1
  Ir  Ir135  1  0.16346099  0.83458350  0.74738563  1
  Ir  Ir136  1  0.16728611  0.16322530  0.50306256  1
  Ir  Ir137  1  0.16546493  0.16421530  0.25626991  1
  Ir  Ir138  1  0.00119152  0.00326150  0.25705804  1
  Ir  Ir139  1  0.50374689  0.16571928  0.50487202  1
  Ir  Ir140  1  0.83213908  0.16538000  0.24750038  1
  Ir  Ir141  1  0.16497789  0.16641930  0.74478846  1
  Ir  Ir142  1  0.66525166  0.00098027  0.74586107  1
  Ir  Ir143  1  0.82981311  0.49892142  0.24356662  1
  O  O144  1  0.32303343  0.31298429  0.12956648  1
  O  O145  1  0.30542994  0.32337695  0.62784313  1
  O  O146  1  0.31170699  0.65576514  0.12006129  1
  O  O147  1  0.31492026  0.66697473  0.62386252  1
  O  O148  1  0.30675569  1.00502127  0.12844070  1
  O  O149  1  0.30012275  0.99854243  0.62447447  1
  O  O150  1  0.63510705  0.33838459  0.12110161  1
  O  O151  1  0.64808118  0.32548001  0.62577157  1
  O  O152  1  0.63607158  0.65480855  0.11961945  1
  O  O153  1  0.63098932  0.66788061  0.62320947  1
  O  O154  1  0.63492430  0.98739709  0.13614162  1
  O  O155  1  0.63835002  0.98909370  0.62704396  1
  O  O156  1  0.96473709  0.31945275  0.12537254  1
  O  O157  1  0.96385061  0.33279185  0.62747561  1
  O  O158  1  0.98485659  0.65312731  0.12103809  1
  O  O159  1  0.96991047  0.65408913  0.62418318  1
  O  O160  1  0.98761089  0.98639920  0.13565637  1
  O  O161  1  0.96905593  0.99154709  0.62523995  1
  O  O162  1  0.19044357  0.15917562  0.13707766  1
  O  O163  1  0.20000586  0.15314709  0.62404205  1
  O  O164  1  0.19599937  0.50456900  0.13143847  1
  O  O165  1  0.18919743  0.50163735  0.61922890  1
  O  O166  1  0.17441076  0.83722358  0.12607237  1
  O  O167  1  0.18253347  0.83787303  0.62527526  1
  O  O168  1  0.51689377  0.18865470  0.12816512  1
  O  O169  1  0.53842372  0.16213278  0.62344696  1
  O  O170  1  0.53086783  0.47851951  0.12690833  1
  O  O171  1  0.51450795  0.49457459  0.63125528  1
  O  O172  1  0.53674392  0.81502690  0.12437289  1
  O  O173  1  0.53517539  0.82039278  0.61950071  1
  O  O174  1  0.86605561  0.16457957  0.12920046  1
  O  O175  1  0.84689361  0.15696849  0.63081240  1
  O  O176  1  0.86028891  0.48801797  0.12043337  1
  O  O177  1  0.86239627  0.48899082  0.63277980  1
  O  O178  1  0.86931310  0.83008797  0.12432489  1
  O  O179  1  0.87272225  0.82616007  0.62355880  1
  O  O180  1  0.14316152  0.16973555  0.38191622  1
  O  O181  1  0.12969916  0.17362159  0.86198932  1
  O  O182  1  0.14610404  0.49254054  0.37631571  1
  O  O183  1  0.15053921  0.49575182  0.86365601  1
  O  O184  1  0.12897280  0.84165597  0.38585412  1
  O  O185  1  0.14375154  0.83811754  0.86594889  1
  O  O186  1  0.48554673  0.16723762  0.38461519  1
  O  O187  1  0.48687171  0.17577174  0.86606131  1
  O  O188  1  0.46440122  0.49990350  0.36093887  1
  O  O189  1  0.48038834  0.50908737  0.87092837  1
  O  O190  1  0.46670489  0.85036358  0.38211133  1
  O  O191  1  0.46364046  0.84056349  0.87713093  1
  O  O192  1  0.79945329  0.16663727  0.36823735  1
  O  O193  1  0.81082011  0.17814512  0.86857691  1
  O  O194  1  0.81428223  0.51273020  0.36640586  1
  O  O195  1  0.81043123  0.50642723  0.87544248  1
  O  O196  1  0.82208994  0.83813282  0.38626890  1
  O  O197  1  0.81870341  0.82902332  0.88072623  1
  O  O198  1  0.02978394  0.00716006  0.38216637  1
  O  O199  1  0.03527501  0.01545807  0.86517168  1
  O  O200  1  0.01645926  0.33718407  0.37347296  1
  O  O201  1  0.01926084  0.34025718  0.87172369  1
  O  O202  1  0.02071090  0.68023439  0.38261593  1
  O  O203  1  0.01380874  0.66611543  0.87159971  1
  O  O204  1  0.37192194  0.00602304  0.38032238  1
  O  O205  1  0.35498025  0.00651937  0.87216379  1
  O  O206  1  0.34225803  0.34192554  0.37025235  1
  O  O207  1  0.36322350  0.33199894  0.86662811  1
  O  O208  1  0.35086706  0.68292148  0.37604356  1
  O  O209  1  0.36614604  0.67497714  0.87954731  1
  O  O210  1  0.68766522  0.01967419  0.37381515  1
  O  O211  1  0.68017467  0.00099012  0.86644677  1
  O  O212  1  0.68994810  0.32327572  0.37579277  1
  O  O213  1  0.70214047  0.33671192  0.87491076  1
  O  O214  1  0.70768549  0.67112379  0.37427299  1
  O  O215  1  0.68491995  0.66211517  0.88037819  1
  O  O216  1  0.06311237  0.10150314  0.02590233  1
  O  O217  1  0.07449672  0.09044935  0.52668016  1
  O  O218  1  0.06493680  0.43447313  0.02803956  1
  O  O219  1  0.07562533  0.43136554  0.52928432  1
  O  O220  1  0.06216011  0.75752624  0.01762326  1
  O  O221  1  0.06386300  0.76934430  0.52700267  1
  O  O222  1  0.40060978  0.10401641  0.02845915  1
  O  O223  1  0.41147934  0.09850482  0.53473189  1
  O  O224  1  0.40078764  0.43323248  0.02982932  1
  O  O225  1  0.40592065  0.42622641  0.50178714  1
  O  O226  1  0.40551911  0.75414125  0.02366129  1
  O  O227  1  0.41488456  0.76604059  0.51766626  1
  O  O228  1  0.74376202  0.08872231  0.01395825  1
  O  O229  1  0.73697292  0.09690383  0.53038169  1
  O  O230  1  0.73370831  0.43280834  0.02503558  1
  O  O231  1  0.74079717  0.41951396  0.51720999  1
  O  O232  1  0.73435143  0.75782897  0.02535818  1
  O  O233  1  0.74749633  0.76939065  0.53223633  1
  O  O234  1  0.08822296  0.25587490  0.02480163  1
  O  O235  1  0.10398749  0.26034921  0.52713238  1
  O  O236  1  0.08513142  0.59374019  0.01045442  1
  O  O237  1  0.09012445  0.59384521  0.52199257  1
  O  O238  1  0.08740745  0.92174549  0.00630527  1
  O  O239  1  0.09674125  0.93323061  0.52795388  1
  O  O240  1  0.44439996  0.27990046  0.00325495  1
  O  O241  1  0.42740504  0.25142116  0.52276609  1
  O  O242  1  0.43063046  0.59884329  0.02362123  1
  O  O243  1  0.43552720  0.60127446  0.52332704  1
  O  O244  1  0.43423796  0.93521371  0.03284322  1
  O  O245  1  0.43982734  0.93027455  0.52804343  1
  O  O246  1  0.76361265  0.27396784  0.02101890  1
  O  O247  1  0.75877053  0.26309807  0.52780227  1
  O  O248  1  0.75646941  0.58963941  0.02497475  1
  O  O249  1  0.77094142  0.60361185  0.52588465  1
  O  O250  1  0.76193446  0.91264127  0.02423715  1
  O  O251  1  0.77199244  0.92839750  0.53215240  1
  O  O252  1  0.23091052  0.07275618  0.28342392  1
  O  O253  1  0.22662984  0.07037385  0.76710422  1
  O  O254  1  0.23885711  0.40592072  0.26775176  1
  O  O255  1  0.23380889  0.40021047  0.75234954  1
  O  O256  1  0.24134413  0.74368691  0.26902418  1
  O  O257  1  0.23934606  0.74835911  0.77029012  1
  O  O258  1  0.57424990  0.07300544  0.27234457  1
  O  O259  1  0.56876240  0.07024878  0.75890814  1
  O  O260  1  0.56812842  0.39721575  0.26546137  1
  O  O261  1  0.56995008  0.40037011  0.77241238  1
  O  O262  1  0.57602998  0.74081151  0.26925252  1
  O  O263  1  0.56835310  0.73409850  0.77704253  1
  O  O264  1  0.90266632  0.07210051  0.26750548  1
  O  O265  1  0.90487367  0.07331569  0.77082202  1
  O  O266  1  0.90152678  0.41224640  0.25758959  1
  O  O267  1  0.89421352  0.40299323  0.77223059  1
  O  O268  1  0.90117329  0.73586929  0.28093470  1
  O  O269  1  0.90499566  0.73190399  0.75616564  1
  O  O270  1  0.26469287  0.23334996  0.26624014  1
  O  O271  1  0.26366221  0.23186611  0.75981105  1
  O  O272  1  0.26562902  0.56196279  0.27239634  1
  O  O273  1  0.25383820  0.57163503  0.76250670  1
  O  O274  1  0.26020874  0.90611590  0.28772818  1
  O  O275  1  0.25687863  0.90225095  0.77410335  1
  O  O276  1  0.60298634  0.23912334  0.27149141  1
  O  O277  1  0.59746337  0.24467468  0.76765305  1
  O  O278  1  0.58831176  0.56250711  0.25768628  1
  O  O279  1  0.58727078  0.56888936  0.76613290  1
  O  O280  1  0.59441130  0.91817335  0.28114586  1
  O  O281  1  0.60487788  0.90372747  0.75872350  1
  O  O282  1  0.91879808  0.23520976  0.26623892  1
  O  O283  1  0.92599124  0.23297610  0.77512617  1
  O  O284  1  0.91685771  0.57501135  0.26105953  1
  O  O285  1  0.93268909  0.56311396  0.75822184  1
  O  O286  1  0.93697444  0.90623933  0.27433239  1
  O  O287  1  0.93313206  0.91381469  0.76384130  1
  O  O288  1  0.26056379  0.23049360  0.49387036  1
  O  O289  1  0.26559291  0.23162607  0.99551360  1
  O  O290  1  0.26160305  0.56342145  0.47277108  1
  O  O291  1  0.26664122  0.57588452  0.98542371  1
  O  O292  1  0.25498154  0.90339569  0.47317624  1
  O  O293  1  0.26426475  0.89932660  0.96974851  1
  O  O294  1  0.60429237  0.22856645  0.48358665  1
  O  O295  1  0.60241070  0.24764804  0.97516598  1
  O  O296  1  0.59691734  0.57169465  0.47477640  1
  O  O297  1  0.59673296  0.56971089  0.98758171  1
  O  O298  1  0.59291728  0.90758668  0.48100015  1
  O  O299  1  0.60170242  0.89918522  0.99151390  1
  O  O300  1  0.92301364  0.24028829  0.48649036  1
  O  O301  1  0.92457649  0.24084801  0.96677554  1
  O  O302  1  0.93024197  0.58238802  0.48124577  1
  O  O303  1  0.92683105  0.56430842  0.99146183  1
  O  O304  1  0.94080769  0.89990124  0.48351451  1
  O  O305  1  0.92343046  0.90151908  0.99067101  1
  O  O306  1  0.23003094  0.06733944  0.48173844  1
  O  O307  1  0.22474810  0.06243740  0.97072931  1
  O  O308  1  0.23397836  0.40773552  0.49094455  1
  O  O309  1  0.23955263  0.40567452  0.98646684  1
  O  O310  1  0.23592920  0.75018948  0.48125369  1
  O  O311  1  0.24769804  0.73691522  0.97642081  1
  O  O312  1  0.56615276  0.07086141  0.48348717  1
  O  O313  1  0.56774776  0.07284706  1.00221362  1
  O  O314  1  0.58098903  0.40264396  0.48647242  1
  O  O315  1  0.57170416  0.39778612  0.97239182  1
  O  O316  1  0.57136493  0.74842041  0.47643236  1
  O  O317  1  0.56875784  0.72418566  0.97938414  1
  O  O318  1  0.90695082  0.06528273  0.49479870  1
  O  O319  1  0.91116686  0.07739258  0.97274022  1
  O  O320  1  0.90757721  0.41352187  0.48919015  1
  O  O321  1  0.88959979  0.40244941  0.98095203  1
  O  O322  1  0.90478348  0.73764694  0.47939171  1
  O  O323  1  0.90374377  0.73527647  0.98803465  1
  O  O324  1  0.09231984  0.25102796  0.23043797  1
  O  O325  1  0.10402653  0.26227202  0.71873387  1
  O  O326  1  0.09448082  0.58700982  0.23687524  1
  O  O327  1  0.08948089  0.58883316  0.72459904  1
  O  O328  1  0.09469578  0.94004702  0.25217678  1
  O  O329  1  0.09573493  0.93361602  0.72173610  1
  O  O330  1  0.42751558  0.27201816  0.23953224  1
  O  O331  1  0.42751263  0.25971010  0.72704458  1
  O  O332  1  0.43099247  0.58392402  0.21446760  1
  O  O333  1  0.43607284  0.59341695  0.73414438  1
  O  O334  1  0.43623890  0.93486730  0.22650267  1
  O  O335  1  0.43487330  0.93450935  0.71939913  1
  O  O336  1  0.76545429  0.26352802  0.22275278  1
  O  O337  1  0.76730843  0.26542079  0.72440518  1
  O  O338  1  0.75227037  0.58050041  0.22250677  1
  O  O339  1  0.77033287  0.59528081  0.72454140  1
  O  O340  1  0.75303735  0.92823205  0.23559734  1
  O  O341  1  0.76072106  0.93507822  0.72288049  1
  O  O342  1  0.06660385  0.10054542  0.23292434  1
  O  O343  1  0.07543019  0.09459759  0.71994789  1
  O  O344  1  0.07410490  0.43348604  0.22232629  1
  O  O345  1  0.07509446  0.42989536  0.71457645  1
  O  O346  1  0.05760274  0.77279830  0.23383165  1
  O  O347  1  0.06373720  0.76383936  0.72644010  1
  O  O348  1  0.40582052  0.09949718  0.22567500  1
  O  O349  1  0.41188219  0.10130288  0.71874266  1
  O  O350  1  0.39729588  0.42852021  0.22178075  1
  O  O351  1  0.40435669  0.42429093  0.73200572  1
  O  O352  1  0.41383891  0.75323009  0.22710755  1
  O  O353  1  0.41069709  0.75598803  0.73073067  1
  O  O354  1  0.73791315  0.09502237  0.22895078  1
  O  O355  1  0.73412421  0.09712100  0.72310832  1
  O  O356  1  0.73790086  0.42461167  0.21731738  1
  O  O357  1  0.74326171  0.42596101  0.72576475  1
  O  O358  1  0.73784479  0.76515264  0.22090689  1
  O  O359  1  0.74040546  0.76448548  0.72029666  1
