# generated using pymatgen
data_BaLaInIrO6
_symmetry_space_group_name_H-M   'P 1'
_cell_length_a   17.55033280
_cell_length_b   17.57719400
_cell_length_c   16.49601944
_cell_angle_alpha   89.95187746
_cell_angle_beta   89.97383164
_cell_angle_gamma   89.95696408
_symmetry_Int_Tables_number   1
_chemical_formula_structural   BaLaInIrO6
_chemical_formula_sum   'Ba36 La36 In36 Ir36 O216'
_cell_volume   5088.78076678
_cell_formula_units_Z   36
loop_
 _symmetry_equiv_pos_site_id
 _symmetry_equiv_pos_as_xyz
  1  'x, y, z'
loop_
 _atom_site_type_symbol
 _atom_site_label
 _atom_site_symmetry_multiplicity
 _atom_site_fract_x
 _atom_site_fract_y
 _atom_site_fract_z
 _atom_site_occupancy
  Ba  Ba0  1  0.49996468  0.66197619  0.37202380  1
  Ba  Ba1  1  0.16635572  0.99125024  0.87304680  1
  Ba  Ba2  1  0.83164009  0.65889485  0.87439333  1
  Ba  Ba3  1  0.66896798  0.84083968  0.62307231  1
  Ba  Ba4  1  0.33134553  0.81970947  0.87607000  1
  Ba  Ba5  1  0.17054855  0.34041643  0.62307112  1
  Ba  Ba6  1  0.33230650  0.82603091  0.37328892  1
  Ba  Ba7  1  0.16941520  0.32245668  0.87916190  1
  Ba  Ba8  1  0.17126728  -0.00000648  0.12252139  1
  Ba  Ba9  1  0.33621321  0.15664795  0.37578677  1
  Ba  Ba10  1  0.50247229  0.99126384  0.37209344  1
  Ba  Ba11  1  0.66495495  0.82425354  0.37255020  1
  Ba  Ba12  1  -0.00282788  0.15252668  0.87059076  1
  Ba  Ba13  1  0.33430972  0.83969382  0.62374649  1
  Ba  Ba14  1  0.82931236  0.00825011  0.12904029  1
  Ba  Ba15  1  0.33263888  0.83753228  0.12469720  1
  Ba  Ba16  1  0.49307428  0.67877047  0.12192748  1
  Ba  Ba17  1  0.33227600  0.49494872  0.36887248  1
  Ba  Ba18  1  0.33193838  0.49379460  0.87721008  1
  Ba  Ba19  1  1.00046858  0.84528698  0.12508274  1
  Ba  Ba20  1  0.66965017  0.17571888  0.62612649  1
  Ba  Ba21  1  0.17004966  0.98996133  0.37506032  1
  Ba  Ba22  1  0.66572436  0.50752336  0.62369186  1
  Ba  Ba23  1  0.00316574  0.49435973  0.37623864  1
  Ba  Ba24  1  0.83095418  0.99465632  0.87801569  1
  Ba  Ba25  1  -0.00138960  0.82660571  0.37364702  1
  Ba  Ba26  1  0.33301717  0.17267706  0.62226321  1
  Ba  Ba27  1  0.16607736  0.67301419  0.12538047  1
  Ba  Ba28  1  0.33434132  0.51763160  0.12199817  1
  Ba  Ba29  1  0.50239159  0.65381112  0.87467625  1
  Ba  Ba30  1  -0.00238267  0.82833511  0.87876378  1
  Ba  Ba31  1  0.16607394  0.67495600  0.62724976  1
  Ba  Ba32  1  0.66838610  0.17502409  0.12684484  1
  Ba  Ba33  1  0.66327273  0.48927693  0.87116550  1
  Ba  Ba34  1  0.82975726  0.67571764  0.62463506  1
  Ba  Ba35  1  0.83199507  0.32069423  0.37643830  1
  La  La36  1  0.49425422  0.01394793  0.12497684  1
  La  La37  1  0.33017416  0.15218398  0.87289040  1
  La  La38  1  0.49634912  0.67937020  0.62623821  1
  La  La39  1  0.83513534  0.65384701  0.37954416  1
  La  La40  1  0.49600733  0.35593317  0.12626468  1
  La  La41  1  0.49125078  0.35171992  0.62691559  1
  La  La42  1  1.00551494  0.51277581  0.12262960  1
  La  La43  1  0.66626168  0.51668380  0.12236484  1
  La  La44  1  0.65816464  0.49403367  0.36869726  1
  La  La45  1  0.66031932  0.81256284  0.87639356  1
  La  La46  1  1.00520636  0.17851537  0.62566113  1
  La  La47  1  0.83148190  0.34505476  0.62719059  1
  La  La48  1  0.82592655  0.68125143  0.12561682  1
  La  La49  1  0.83301697  0.34967050  0.12502034  1
  La  La50  1  0.16586343  0.00857781  0.62592465  1
  La  La51  1  0.66185957  0.14640229  0.37374132  1
  La  La52  1  0.49808883  0.01785208  0.61920435  1
  La  La53  1  0.83516959  0.98581184  0.38023145  1
  La  La54  1  0.83121286  0.01353560  0.62796602  1
  La  La55  1  0.50494913  0.32116510  0.87581572  1
  La  La56  1  0.66309848  0.15172018  0.87762397  1
  La  La57  1  1.00193778  0.51843843  0.62276615  1
  La  La58  1  0.17489357  0.66373275  0.37018661  1
  La  La59  1  -0.00015257  0.15064041  0.37895219  1
  La  La60  1  0.33898299  0.51847488  0.62606576  1
  La  La61  1  0.99925387  0.16768446  0.12781338  1
  La  La62  1  0.51075332  0.98386168  0.87535782  1
  La  La63  1  0.83631299  0.31870194  0.87186576  1
  La  La64  1  0.17107313  0.65856668  0.87532973  1
  La  La65  1  1.00285240  0.84972753  0.62947297  1
  La  La66  1  0.66817491  0.85144645  0.12691238  1
  La  La67  1  0.16559680  0.34462799  0.12731535  1
  La  La68  1  0.34099375  0.17891388  0.12207806  1
  La  La69  1  0.51087581  0.32051614  0.38036757  1
  La  La70  1  0.17365136  0.31331726  0.37241439  1
  La  La71  1  0.00141072  0.49258636  0.87358696  1
  In  In72  1  0.17081329  0.16327397  0.24576649  1
  In  In73  1  0.83431998  0.49915652  0.75220848  1
  In  In74  1  0.83195034  0.16921744  0.00373307  1
  In  In75  1  0.66521283  0.66449031  0.74599338  1
  In  In76  1  0.82900040  0.83513476  0.00005598  1
  In  In77  1  0.00028778  0.33398412  0.49807767  1
  In  In78  1  -0.00461225  0.66612021  0.25232380  1
  In  In79  1  0.83087280  0.83268903  0.25252126  1
  In  In80  1  0.83056830  0.50030200  0.24996800  1
  In  In81  1  0.16966180  0.16551563  0.00219114  1
  In  In82  1  0.33883053  -0.00195519  -0.00405934  1
  In  In83  1  0.83226598  0.83477886  0.74937193  1
  In  In84  1  0.50354846  0.83548223  0.49774490  1
  In  In85  1  0.16364085  0.83452917  0.24897872  1
  In  In86  1  0.16356309  0.83197685  0.50153416  1
  In  In87  1  0.16831693  0.49912204  0.50000671  1
  In  In88  1  0.33435554  0.33615259  0.49647749  1
  In  In89  1  0.33530164  0.33271065  0.75362825  1
  In  In90  1  0.83199633  0.49804802  0.49888360  1
  In  In91  1  0.16709064  0.16595537  0.75200802  1
  In  In92  1  0.33737234  -0.00201699  0.74976639  1
  In  In93  1  0.16513517  0.83130197  -0.00213256  1
  In  In94  1  0.66720964  0.33220641  0.50417925  1
  In  In95  1  -0.00159213  0.33043261  0.00157207  1
  In  In96  1  0.66771477  0.33363006  0.24770245  1
  In  In97  1  0.16669192  0.49860315  0.74794226  1
  In  In98  1  -0.00130825  0.32849469  0.24922600  1
  In  In99  1  0.49896655  0.50351633  0.49855218  1
  In  In100  1  0.66663558  -0.00097354  0.74791576  1
  In  In101  1  -0.00100077  0.33609112  0.74723254  1
  In  In102  1  0.16520977  0.49836021  0.24996607  1
  In  In103  1  0.50176222  0.83448989  0.74918563  1
  In  In104  1  0.50233287  0.17057363  0.24868942  1
  In  In105  1  0.66662210  0.33463056  0.00109738  1
  In  In106  1  0.16663433  0.49795472  0.00017332  1
  In  In107  1  0.33362626  -0.00091788  0.49968552  1
  Ir  Ir108  1  0.66628231  0.00088810  0.24973958  1
  Ir  Ir109  1  0.33545018  0.66703431  -0.00334992  1
  Ir  Ir110  1  0.66378487  0.66734468  0.24533200  1
  Ir  Ir111  1  0.50272786  0.17058673  0.75243754  1
  Ir  Ir112  1  -0.00364296  -0.00065866  0.74756512  1
  Ir  Ir113  1  0.66850331  0.66739830  0.49344354  1
  Ir  Ir114  1  -0.00154779  0.67107918  0.50398410  1
  Ir  Ir115  1  -0.00475989  0.00093423  0.50261914  1
  Ir  Ir116  1  0.66450072  0.32903846  0.75056614  1
  Ir  Ir117  1  0.49814688  0.49954600  0.24774451  1
  Ir  Ir118  1  0.83300567  0.50166019  0.00173683  1
  Ir  Ir119  1  0.49983609  0.16895132  -0.00291351  1
  Ir  Ir120  1  0.16217307  0.16314019  0.49970863  1
  Ir  Ir121  1  0.50396627  0.83435817  0.24518994  1
  Ir  Ir122  1  0.50024531  0.49858003  -0.00181743  1
  Ir  Ir123  1  0.83485798  0.16154570  0.49996004  1
  Ir  Ir124  1  0.33506715  0.66609830  0.50029148  1
  Ir  Ir125  1  -0.00560324  0.66297447  -0.00171576  1
  Ir  Ir126  1  0.66345007  0.66565147  0.00631835  1
  Ir  Ir127  1  0.50762424  0.16897505  0.50209189  1
  Ir  Ir128  1  0.83560583  0.83437383  0.50051929  1
  Ir  Ir129  1  0.83172023  0.16676395  0.74625035  1
  Ir  Ir130  1  0.33678183  0.66791450  0.25007012  1
  Ir  Ir131  1  0.33745860  -0.00016789  0.24776606  1
  Ir  Ir132  1  0.34213251  0.33208986  0.00380586  1
  Ir  Ir133  1  0.65992296  0.00187493  0.00180776  1
  Ir  Ir134  1  0.67102538  0.00208814  0.49985737  1
  Ir  Ir135  1  -0.00317072  0.00304850  0.00246232  1
  Ir  Ir136  1  0.33755032  0.33338541  0.24802989  1
  Ir  Ir137  1  -0.00508387  0.00565681  0.25354026  1
  Ir  Ir138  1  0.49869030  0.49754934  0.75145347  1
  Ir  Ir139  1  0.16433244  0.83131417  0.74985773  1
  Ir  Ir140  1  0.83386880  0.16357667  0.25688411  1
  Ir  Ir141  1  0.00237964  0.66863487  0.75253894  1
  Ir  Ir142  1  0.50490662  0.83463633  0.00141735  1
  Ir  Ir143  1  0.33311976  0.66630617  0.75031042  1
  O  O144  1  0.30590493  0.32122085  0.12595949  1
  O  O145  1  0.32415330  0.32581274  0.62372466  1
  O  O146  1  0.31810946  0.67716396  0.12323304  1
  O  O147  1  0.31448027  0.66206884  0.62508266  1
  O  O148  1  0.32688044  1.00259477  0.12823806  1
  O  O149  1  0.30380683  1.00306714  0.62559354  1
  O  O150  1  0.62901470  0.32684466  0.12437264  1
  O  O151  1  0.62782536  0.32703319  0.63313561  1
  O  O152  1  0.63856391  0.65355798  0.12649058  1
  O  O153  1  0.63605072  0.66439789  0.61336095  1
  O  O154  1  0.63195922  0.99519341  0.12638115  1
  O  O155  1  0.63535817  1.00159198  0.61955863  1
  O  O156  1  0.96029923  0.30536445  0.12468483  1
  O  O157  1  0.96469073  0.31462883  0.62203523  1
  O  O158  1  0.96087328  0.65246449  0.11731867  1
  O  O159  1  0.97533653  0.65804312  0.62960511  1
  O  O160  1  0.97513732  1.01312305  0.12881124  1
  O  O161  1  0.96585437  0.99108635  0.62447517  1
  O  O162  1  0.20865058  0.15599719  0.12420171  1
  O  O163  1  0.18124679  0.15031051  0.62009431  1
  O  O164  1  0.18892104  0.48728208  0.12437913  1
  O  O165  1  0.20413651  0.49866888  0.62405717  1
  O  O166  1  0.17899001  0.83418741  0.12356875  1
  O  O167  1  0.18166156  0.83508970  0.63110852  1
  O  O168  1  0.52111970  0.15476178  0.11773481  1
  O  O169  1  0.52523845  0.15366455  0.62914472  1
  O  O170  1  0.52849898  0.49359552  0.12228687  1
  O  O171  1  0.51681602  0.49217769  0.63109286  1
  O  O172  1  0.53361344  0.83313734  0.12251162  1
  O  O173  1  0.51934240  0.81427073  0.62298104  1
  O  O174  1  0.86265244  0.15913013  0.13616074  1
  O  O175  1  0.86702315  0.15295744  0.62255739  1
  O  O176  1  0.86479345  0.49610003  0.11893998  1
  O  O177  1  0.86691930  0.48984676  0.62598157  1
  O  O178  1  0.84770646  0.82172677  0.12557557  1
  O  O179  1  0.86555139  0.82963103  0.61887501  1
  O  O180  1  0.13833901  0.17315239  0.37695903  1
  O  O181  1  0.14488732  0.17023109  0.87776700  1
  O  O182  1  0.15332304  0.52650034  0.37490043  1
  O  O183  1  0.13766398  0.51223140  0.87640817  1
  O  O184  1  0.15003047  0.82682656  0.37542959  1
  O  O185  1  0.14668171  0.82378735  0.86860655  1
  O  O186  1  0.48566816  0.17881087  0.38085926  1
  O  O187  1  0.46933659  0.18296747  0.87430283  1
  O  O188  1  0.48470644  0.50200810  0.36845930  1
  O  O189  1  0.47885469  0.49532331  0.87519366  1
  O  O190  1  0.48580977  0.83653771  0.36661735  1
  O  O191  1  0.48245982  0.84531033  0.88171369  1
  O  O192  1  0.79907495  0.16541794  0.37940339  1
  O  O193  1  0.79923819  0.17626046  0.86648981  1
  O  O194  1  0.79248603  0.51126498  0.37455526  1
  O  O195  1  0.81170081  0.50264906  0.88406402  1
  O  O196  1  0.81359530  0.84728754  0.38109223  1
  O  O197  1  0.79801562  0.83751877  0.87743072  1
  O  O198  1  0.02037971  0.01144065  0.37828224  1
  O  O199  1  0.01783945  -0.00102488  0.87393070  1
  O  O200  1  0.03819388  0.33162190  0.37397159  1
  O  O201  1  0.02025557  0.35462235  0.87500204  1
  O  O202  1  0.03301807  0.67254034  0.38674950  1
  O  O203  1  0.03173131  0.66889353  0.87530111  1
  O  O204  1  0.35294814  -0.00119685  0.36796704  1
  O  O205  1  0.37660043  0.01057510  0.87299473  1
  O  O206  1  0.37299431  0.33459215  0.36727002  1
  O  O207  1  0.37147738  0.33791095  0.88487962  1
  O  O208  1  0.35215612  0.65966407  0.37659207  1
  O  O209  1  0.35545245  0.66299176  0.87360146  1
  O  O210  1  0.69949907  0.00777926  0.37392429  1
  O  O211  1  0.67876672  0.01213334  0.88100873  1
  O  O212  1  0.68138660  0.35684720  0.37492322  1
  O  O213  1  0.69683769  0.33177595  0.87112982  1
  O  O214  1  0.69797540  0.66814691  0.36779472  1
  O  O215  1  0.68138404  0.67261152  0.88584341  1
  O  O216  1  0.06731692  0.09331292  0.02519875  1
  O  O217  1  0.06340586  0.09504402  0.52409180  1
  O  O218  1  0.06725848  0.42804990  0.02748674  1
  O  O219  1  0.06888007  0.43253657  0.52905832  1
  O  O220  1  0.06554955  0.75090109  0.01671552  1
  O  O221  1  0.06044606  0.76529164  0.52862712  1
  O  O222  1  0.40861428  0.10378804  0.02236402  1
  O  O223  1  0.41911935  0.09494128  0.51770650  1
  O  O224  1  0.41073565  0.42537031  0.02654758  1
  O  O225  1  0.39904686  0.43745571  0.52404448  1
  O  O226  1  0.41079050  0.76482620  0.01310606  1
  O  O227  1  0.40625583  0.75439931  0.51253949  1
  O  O228  1  0.72980027  0.09564376  0.00966466  1
  O  O229  1  0.74463057  0.09014654  0.52263442  1
  O  O230  1  0.73873302  0.43690278  0.02867340  1
  O  O231  1  0.74687223  0.41615283  0.53305896  1
  O  O232  1  0.72908457  0.75806471  0.02867695  1
  O  O233  1  0.74203587  0.76253426  0.51460681  1
  O  O234  1  0.09948607  0.26283706  0.03177629  1
  O  O235  1  0.09065934  0.24916833  0.52187201  1
  O  O236  1  0.08062470  0.59104304  0.01966829  1
  O  O237  1  0.08292089  0.59596811  0.52504708  1
  O  O238  1  0.08261095  0.92854753  0.01016695  1
  O  O239  1  0.08737339  0.93408672  0.53002429  1
  O  O240  1  0.43880615  0.26638128  0.02775144  1
  O  O241  1  0.44495971  0.26625611  0.51721765  1
  O  O242  1  0.42895674  0.59227498  0.01301671  1
  O  O243  1  0.43110836  0.60207726  0.52718525  1
  O  O244  1  0.44572302  0.93384203  0.01859642  1
  O  O245  1  0.43455434  0.93283174  0.52322232  1
  O  O246  1  0.76519081  0.26863956  0.02748741  1
  O  O247  1  0.77185303  0.25595706  0.52588427  1
  O  O248  1  0.76142364  0.59778338  0.03094782  1
  O  O249  1  0.75728435  0.59891421  0.51135690  1
  O  O250  1  0.74584300  0.92817829  0.02640097  1
  O  O251  1  0.77018748  0.93450748  0.52245729  1
  O  O252  1  0.24765788  0.06972352  0.26732646  1
  O  O253  1  0.24533782  0.07411364  0.76937948  1
  O  O254  1  0.24003844  0.39591363  0.27098994  1
  O  O255  1  0.24035847  0.40556100  0.77160874  1
  O  O256  1  0.24535018  0.73662363  0.26886552  1
  O  O257  1  0.23365338  0.73447101  0.77303285  1
  O  O258  1  0.57932753  0.07476525  0.26637399  1
  O  O259  1  0.56860638  0.07653187  0.77589502  1
  O  O260  1  0.56138724  0.40506833  0.26782563  1
  O  O261  1  0.56518877  0.39609153  0.77225173  1
  O  O262  1  0.57227696  0.73924167  0.26330547  1
  O  O263  1  0.57632887  0.74152853  0.77028856  1
  O  O264  1  0.89868355  0.07060278  0.28405386  1
  O  O265  1  0.89890603  0.06857493  0.76261816  1
  O  O266  1  0.89867289  0.39929492  0.25654927  1
  O  O267  1  0.89441874  0.39711058  0.77206140  1
  O  O268  1  0.89333305  0.73300047  0.27319963  1
  O  O269  1  0.91300327  0.73805030  0.76673472  1
  O  O270  1  0.26738877  0.24484089  0.26963984  1
  O  O271  1  0.26997897  0.23320261  0.77427887  1
  O  O272  1  0.25898903  0.58444052  0.26027593  1
  O  O273  1  0.25854150  0.58183304  0.76830709  1
  O  O274  1  0.26413462  0.91185207  0.25975026  1
  O  O275  1  0.25550455  0.90045629  0.76538063  1
  O  O276  1  0.59840703  0.23826057  0.28136750  1
  O  O277  1  0.59863049  0.23580641  0.78026025  1
  O  O278  1  0.59945071  0.56504467  0.26401572  1
  O  O279  1  0.58669583  0.56899073  0.76308640  1
  O  O280  1  0.59970644  0.90139948  0.25625205  1
  O  O281  1  0.60080320  0.90326622  0.78096889  1
  O  O282  1  0.93098782  0.22210287  0.27841307  1
  O  O283  1  0.91730793  0.23717332  0.76629704  1
  O  O284  1  0.91550457  0.57888926  0.28301521  1
  O  O285  1  0.93958937  0.57099489  0.77210175  1
  O  O286  1  0.92136109  0.91749854  0.26799279  1
  O  O287  1  0.93086019  0.90705735  0.76162698  1
  O  O288  1  0.25006793  0.23719782  0.47863318  1
  O  O289  1  0.28227583  0.23738274  0.98320361  1
  O  O290  1  0.27045338  0.57400044  0.49197896  1
  O  O291  1  0.25646073  0.58305107  0.98146899  1
  O  O292  1  0.25701706  0.90645955  0.48888174  1
  O  O293  1  0.25938884  0.90839366  0.98432865  1
  O  O294  1  0.60131125  0.23359794  0.47401410  1
  O  O295  1  0.59344104  0.23396947  0.96913308  1
  O  O296  1  0.60280963  0.57280511  0.47315292  1
  O  O297  1  0.59751776  0.56551820  0.98825650  1
  O  O298  1  0.60071614  0.91459023  0.48192363  1
  O  O299  1  0.59978084  0.90082929  0.97906464  1
  O  O300  1  0.92871883  0.22362959  0.47747051  1
  O  O301  1  0.91902316  0.24477265  0.96516348  1
  O  O302  1  0.92496812  0.58459344  0.48213564  1
  O  O303  1  0.93053818  0.56430366  0.97464978  1
  O  O304  1  0.92644457  0.90768023  0.48053623  1
  O  O305  1  0.92190270  0.91598746  0.98985144  1
  O  O306  1  0.23551453  0.07789743  0.48424938  1
  O  O307  1  0.25211151  0.07948942  0.97119548  1
  O  O308  1  0.23231421  0.39734395  0.46636436  1
  O  O309  1  0.24863820  0.39856344  0.98905679  1
  O  O310  1  0.23795782  0.72881370  0.47986970  1
  O  O311  1  0.24075485  0.73240924  0.97776067  1
  O  O312  1  0.58036000  0.07550612  0.47557229  1
  O  O313  1  0.56384937  0.07192118  0.97298606  1
  O  O314  1  0.56382399  0.40069027  0.48675238  1
  O  O315  1  0.56493110  0.40335373  0.98053148  1
  O  O316  1  0.58025252  0.73733060  0.48081323  1
  O  O317  1  0.57445552  0.74172386  0.97844765  1
  O  O318  1  0.90000053  0.06621786  0.47488220  1
  O  O319  1  0.90884564  0.07529827  0.98833271  1
  O  O320  1  0.90691706  0.40652547  0.47618072  1
  O  O321  1  0.89209385  0.40508349  0.98331793  1
  O  O322  1  0.90137415  0.73885233  0.47457354  1
  O  O323  1  0.90495895  0.73423306  0.98645315  1
  O  O324  1  0.10068880  0.25977307  0.22049486  1
  O  O325  1  0.08615014  0.25365116  0.72507613  1
  O  O326  1  0.07954309  0.58338166  0.22362505  1
  O  O327  1  0.09185958  0.60070327  0.73743179  1
  O  O328  1  0.08436356  0.93579134  0.23828737  1
  O  O329  1  0.09394014  0.92926229  0.72339875  1
  O  O330  1  0.42896348  0.26585999  0.21900422  1
  O  O331  1  0.44576981  0.26892086  0.73480702  1
  O  O332  1  0.42853571  0.59320807  0.23237564  1
  O  O333  1  0.42812682  0.59441974  0.72301039  1
  O  O334  1  0.43792422  0.93184164  0.22446957  1
  O  O335  1  0.44095064  0.93758487  0.72438541  1
  O  O336  1  0.77210714  0.26038995  0.22818383  1
  O  O337  1  0.76489290  0.26511537  0.72516606  1
  O  O338  1  0.75494321  0.60111180  0.22084468  1
  O  O339  1  0.75605225  0.58695921  0.73553549  1
  O  O340  1  0.75124970  0.92499538  0.23404187  1
  O  O341  1  0.76659793  0.93508240  0.72219448  1
  O  O342  1  0.06058482  0.10060935  0.23877821  1
  O  O343  1  0.06795654  0.08676118  0.72146172  1
  O  O344  1  0.07138324  0.42222958  0.21697276  1
  O  O345  1  0.06091407  0.43973091  0.72451799  1
  O  O346  1  0.07074176  0.75649163  0.23389521  1
  O  O347  1  0.06544951  0.76718031  0.72786035  1
  O  O348  1  0.40869681  0.09315807  0.22870519  1
  O  O349  1  0.41358893  0.10378635  0.73380206  1
  O  O350  1  0.40641774  0.42734567  0.22274731  1
  O  O351  1  0.40687508  0.43210874  0.72711019  1
  O  O352  1  0.41094219  0.76492464  0.23595388  1
  O  O353  1  0.40827685  0.75201970  0.73332017  1
  O  O354  1  0.73406438  0.09901554  0.24160462  1
  O  O355  1  0.74332015  0.09499627  0.73300776  1
  O  O356  1  0.73257026  0.43319574  0.21760224  1
  O  O357  1  0.73525210  0.41510606  0.72826576  1
  O  O358  1  0.72860200  0.75993439  0.22142668  1
  O  O359  1  0.73930356  0.75991445  0.73893507  1
