# generated using pymatgen
data_BaLaInIrO6
_symmetry_space_group_name_H-M   'P 1'
_cell_length_a   17.53160019
_cell_length_b   17.54571216
_cell_length_c   16.49726908
_cell_angle_alpha   90.00029706
_cell_angle_beta   89.99729157
_cell_angle_gamma   89.98066503
_symmetry_Int_Tables_number   1
_chemical_formula_structural   BaLaInIrO6
_chemical_formula_sum   'Ba36 La36 In36 Ir36 O216'
_cell_volume   5074.63243812
_cell_formula_units_Z   36
loop_
 _symmetry_equiv_pos_site_id
 _symmetry_equiv_pos_as_xyz
  1  'x, y, z'
loop_
 _atom_site_type_symbol
 _atom_site_label
 _atom_site_symmetry_multiplicity
 _atom_site_fract_x
 _atom_site_fract_y
 _atom_site_fract_z
 _atom_site_occupancy
  Ba  Ba0  1  1.00199607  0.84502208  0.12055581  1
  Ba  Ba1  1  0.66978315  0.83656163  0.12776529  1
  Ba  Ba2  1  0.17109419  0.98504647  0.37401646  1
  Ba  Ba3  1  0.83287055  0.66107961  0.87573484  1
  Ba  Ba4  1  0.83734868  0.32578144  0.87411561  1
  Ba  Ba5  1  0.49923325  0.32623345  0.37239790  1
  Ba  Ba6  1  0.49872354  0.66228737  0.37898645  1
  Ba  Ba7  1  0.83083564  0.32602139  0.37733969  1
  Ba  Ba8  1  0.33299562  0.15741081  0.87579388  1
  Ba  Ba9  1  0.49635324  0.67804743  0.12933398  1
  Ba  Ba10  1  0.49703187  0.00639404  0.12756158  1
  Ba  Ba11  1  0.66678951  0.83759892  0.62448885  1
  Ba  Ba12  1  0.49812003  0.34616934  0.62247850  1
  Ba  Ba13  1  -0.00084798  0.82351922  0.87563052  1
  Ba  Ba14  1  -0.00093625  0.15697106  0.36926201  1
  Ba  Ba15  1  0.33381787  0.17579814  0.12402624  1
  Ba  Ba16  1  0.16892821  0.67504133  0.63016544  1
  Ba  Ba17  1  0.00166417  0.82737205  0.37824845  1
  Ba  Ba18  1  0.16470016  0.32543277  0.87251319  1
  Ba  Ba19  1  0.16459448  0.66113333  0.87511968  1
  Ba  Ba20  1  0.83467632  0.00768004  0.62392330  1
  Ba  Ba21  1  0.33629877  0.17653391  0.62229477  1
  Ba  Ba22  1  0.83285592  0.99433590  0.37434718  1
  Ba  Ba23  1  0.49885575  0.67524459  0.62624651  1
  Ba  Ba24  1  0.49284324  0.34311049  0.12247783  1
  Ba  Ba25  1  0.83362851  0.67518040  0.12445064  1
  Ba  Ba26  1  0.66895306  0.50863460  0.61979967  1
  Ba  Ba27  1  0.32982549  0.82026661  0.37648164  1
  Ba  Ba28  1  0.16266292  0.67730280  0.12167155  1
  Ba  Ba29  1  0.83027062  0.00223413  0.12600751  1
  Ba  Ba30  1  0.16573808  0.33937607  0.12110296  1
  Ba  Ba31  1  0.66951651  0.17645474  0.62598733  1
  Ba  Ba32  1  0.83158136  0.99172361  0.87458180  1
  Ba  Ba33  1  0.33117271  0.50793110  0.12134807  1
  Ba  Ba34  1  0.66919690  0.17033393  0.12402350  1
  Ba  Ba35  1  0.83099468  0.35010561  0.62361665  1
  La  La36  1  0.99941642  0.85058720  0.62759418  1
  La  La37  1  0.83065255  0.34650467  0.13049556  1
  La  La38  1  0.34065151  0.84551329  0.62113245  1
  La  La39  1  0.66470841  0.81709946  0.87179139  1
  La  La40  1  0.66732294  0.14645776  0.37912636  1
  La  La41  1  0.50616191  0.31274234  0.87416866  1
  La  La42  1  0.66109305  0.48719866  0.37622423  1
  La  La43  1  0.66455162  0.48778552  0.87117553  1
  La  La44  1  0.82884908  0.67727208  0.62644865  1
  La  La45  1  0.32899979  0.82144213  0.87753754  1
  La  La46  1  0.66626134  0.14744433  0.87136332  1
  La  La47  1  0.16349814  0.01150212  0.12444068  1
  La  La48  1  0.33871398  0.84787117  0.12868305  1
  La  La49  1  0.67202071  0.50981311  0.13419206  1
  La  La50  1  0.50177211  0.98211401  0.37983989  1
  La  La51  1  0.32483805  0.14804479  0.36857217  1
  La  La52  1  -0.00427288  0.14923410  0.87395056  1
  La  La53  1  0.17272498  0.31530580  0.37474328  1
  La  La54  1  0.17519085  0.65332875  0.37538926  1
  La  La55  1  -0.00420232  0.48978160  0.37497039  1
  La  La56  1  0.83423091  0.65932948  0.37779189  1
  La  La57  1  0.66385072  0.81941168  0.37419454  1
  La  La58  1  1.00607258  0.18523846  0.61831456  1
  La  La59  1  0.17052205  0.98229030  0.87980844  1
  La  La60  1  0.33230648  0.48728438  0.87194069  1
  La  La61  1  0.50565568  0.98584232  0.87110934  1
  La  La62  1  -0.00797926  0.49399393  0.88057756  1
  La  La63  1  0.16178121  0.35307748  0.62194831  1
  La  La64  1  0.34050511  0.49570149  0.37171122  1
  La  La65  1  0.33679567  0.51428103  0.62509192  1
  La  La66  1  1.00973751  0.51780906  0.12280032  1
  La  La67  1  1.00172560  0.17413319  0.12348880  1
  La  La68  1  1.00007627  0.51560555  0.62951835  1
  La  La69  1  0.50644180  0.65296532  0.87352898  1
  La  La70  1  0.49631079  0.01402556  0.62492567  1
  La  La71  1  0.16034468  0.01513534  0.62534284  1
  In  In72  1  0.66615593  -0.00586263  -0.00211831  1
  In  In73  1  0.49783365  0.16655649  0.49756437  1
  In  In74  1  0.16329525  0.49729149  0.25160607  1
  In  In75  1  0.66238792  0.32739803  0.24886721  1
  In  In76  1  0.66225201  -0.00268156  0.25034342  1
  In  In77  1  0.50171677  0.16099991  0.00119533  1
  In  In78  1  0.66821406  0.33297341  0.75117569  1
  In  In79  1  0.16591307  0.50058375  -0.00494077  1
  In  In80  1  0.00241987  0.67062210  0.25630971  1
  In  In81  1  0.83472204  0.83248935  0.25229195  1
  In  In82  1  0.83806462  0.16713686  0.74969539  1
  In  In83  1  0.83300891  0.50114396  0.00610409  1
  In  In84  1  0.49748697  0.83127038  -0.00190709  1
  In  In85  1  0.33063612  0.66740111  0.24646558  1
  In  In86  1  0.66433628  0.66420700  0.00218590  1
  In  In87  1  0.33076930  0.33682071  0.50017117  1
  In  In88  1  0.33084927  -0.00046201  0.75348417  1
  In  In89  1  0.33549600  0.33304947  -0.00523509  1
  In  In90  1  0.49977647  0.49929821  0.74923597  1
  In  In91  1  0.66617714  0.33105549  0.49941792  1
  In  In92  1  0.00024239  0.33419180  0.24991302  1
  In  In93  1  0.83450600  0.83523416  0.75116928  1
  In  In94  1  0.00110330  0.33582515  0.74967323  1
  In  In95  1  0.83277653  0.16691175  0.24764395  1
  In  In96  1  0.16426689  0.16468789  -0.00598780  1
  In  In97  1  0.33091133  0.33403825  0.25036644  1
  In  In98  1  0.33219855  0.33297233  0.74755630  1
  In  In99  1  0.00314530  0.00201739  0.49729104  1
  In  In100  1  0.33111885  -0.00160740  0.50151412  1
  In  In101  1  0.16819159  0.83247909  0.74976008  1
  In  In102  1  0.16596042  0.50393025  0.75110600  1
  In  In103  1  0.66896596  0.33056083  0.00163586  1
  In  In104  1  0.16790099  0.82928510  0.50363883  1
  In  In105  1  0.83649305  0.16842288  0.50088065  1
  In  In106  1  0.83469131  0.83190206  0.50068706  1
  In  In107  1  0.50089359  0.50353377  0.24504204  1
  Ir  Ir108  1  0.16889946  0.83420900  0.24699517  1
  Ir  Ir109  1  0.17011429  0.83395281  0.00184377  1
  Ir  Ir110  1  0.66697093  0.66628645  0.74890217  1
  Ir  Ir111  1  0.49954622  0.50416989  -0.00681117  1
  Ir  Ir112  1  0.00438886  -0.00066911  0.24470424  1
  Ir  Ir113  1  0.83307982  0.50691080  0.74981710  1
  Ir  Ir114  1  0.50182848  0.83076649  0.50375227  1
  Ir  Ir115  1  -0.00474283  0.66623957  0.74807055  1
  Ir  Ir116  1  0.16306940  0.16506484  0.74547832  1
  Ir  Ir117  1  0.83440542  0.83301274  -0.00144016  1
  Ir  Ir118  1  0.66874934  0.66474542  0.25570058  1
  Ir  Ir119  1  -0.00498748  0.33210750  0.00042506  1
  Ir  Ir120  1  0.00596717  0.00256415  0.75139871  1
  Ir  Ir121  1  0.33284937  -0.00276213  0.24821674  1
  Ir  Ir122  1  0.00151034  0.00073602  -0.00021820  1
  Ir  Ir123  1  0.16697290  0.16167847  0.25079375  1
  Ir  Ir124  1  0.66993685  0.66549470  0.50165300  1
  Ir  Ir125  1  -0.00116046  0.66955664  -0.00258559  1
  Ir  Ir126  1  0.66150788  -0.00497239  0.50301804  1
  Ir  Ir127  1  0.83431542  0.50411695  0.25597399  1
  Ir  Ir128  1  0.50127017  0.16159153  0.74987818  1
  Ir  Ir129  1  0.00561191  0.34030398  0.50006422  1
  Ir  Ir130  1  0.33068507  0.66173478  0.50242229  1
  Ir  Ir131  1  0.33200993  -0.00402917  0.00033960  1
  Ir  Ir132  1  0.16784058  0.16976088  0.49997462  1
  Ir  Ir133  1  0.83842697  0.16607210  -0.00196133  1
  Ir  Ir134  1  0.83805582  0.50653960  0.49808280  1
  Ir  Ir135  1  0.33640924  0.66973463  -0.00543464  1
  Ir  Ir136  1  0.49743605  0.83353295  0.74721854  1
  Ir  Ir137  1  0.49820578  0.50676893  0.49965387  1
  Ir  Ir138  1  0.33832775  0.67034438  0.75330210  1
  Ir  Ir139  1  0.16228226  0.50270565  0.50129472  1
  Ir  Ir140  1  0.66227155  -0.00341478  0.74627535  1
  Ir  Ir141  1  0.49849778  0.83293895  0.25482385  1
  Ir  Ir142  1  0.00191145  0.66440216  0.50456672  1
  Ir  Ir143  1  0.49447771  0.16070844  0.25569511  1
  O  O144  1  0.31891291  0.33437109  0.12293974  1
  O  O145  1  0.29728312  0.33372546  0.62316140  1
  O  O146  1  0.31327796  0.66304470  0.11353025  1
  O  O147  1  0.31572790  0.65146278  0.63007552  1
  O  O148  1  0.30029892  0.98861087  0.12313842  1
  O  O149  1  0.29757703  0.98734458  0.62914250  1
  O  O150  1  0.63858037  0.32525292  0.12378116  1
  O  O151  1  0.64692907  0.34039066  0.62513406  1
  O  O152  1  0.64467761  0.65667198  0.13459413  1
  O  O153  1  0.64701949  0.66277622  0.62457913  1
  O  O154  1  0.64691739  0.99602982  0.12282029  1
  O  O155  1  0.63191519  0.99240199  0.62513614  1
  O  O156  1  0.96769821  0.31638785  0.11921599  1
  O  O157  1  0.98063529  0.32712284  0.61854857  1
  O  O158  1  0.98356868  0.66048494  0.11971460  1
  O  O159  1  0.96534533  0.65528825  0.62564220  1
  O  O160  1  0.97931062  1.00334983  0.12186359  1
  O  O161  1  0.98739974  0.99421980  0.63265154  1
  O  O162  1  0.18398479  0.15170710  0.12914315  1
  O  O163  1  0.19015560  0.15238710  0.62386806  1
  O  O164  1  0.17813542  0.50083675  0.12123562  1
  O  O165  1  0.19792907  0.49638990  0.61991381  1
  O  O166  1  0.20038412  0.83344199  0.12400881  1
  O  O167  1  0.20510108  0.82703004  0.62839033  1
  O  O168  1  0.51759393  0.16105313  0.13514808  1
  O  O169  1  0.52021582  0.15577311  0.63014642  1
  O  O170  1  0.53364638  0.50288354  0.11282780  1
  O  O171  1  0.51702288  0.50792530  0.61926925  1
  O  O172  1  0.51797754  0.83364819  0.13218050  1
  O  O173  1  0.52126332  0.82581991  0.62617502  1
  O  O174  1  0.86728904  0.15793307  0.11614153  1
  O  O175  1  0.87121729  0.16078421  0.62597387  1
  O  O176  1  0.87169670  0.49612075  0.13692184  1
  O  O177  1  0.86519506  0.50883151  0.62370139  1
  O  O178  1  0.85055171  0.83126457  0.11993526  1
  O  O179  1  0.86270675  0.81960637  0.62657864  1
  O  O180  1  0.14509955  0.17692587  0.37639220  1
  O  O181  1  0.13119402  0.16848794  0.86465836  1
  O  O182  1  0.13082943  0.51492838  0.38427689  1
  O  O183  1  0.12609153  0.50410563  0.87342889  1
  O  O184  1  0.15139872  0.83150976  0.36938816  1
  O  O185  1  0.14712353  0.84127686  0.88075203  1
  O  O186  1  0.46091814  0.16073926  0.37170937  1
  O  O187  1  0.48240999  0.16228716  0.86745106  1
  O  O188  1  0.47526715  0.50609803  0.38062347  1
  O  O189  1  0.46691339  0.51469806  0.87590173  1
  O  O190  1  0.47639919  0.84139939  0.38145340  1
  O  O191  1  0.46640813  0.84519419  0.86559581  1
  O  O192  1  0.80319926  0.16884657  0.37579956  1
  O  O193  1  0.80616544  0.16877969  0.87942917  1
  O  O194  1  0.80036316  0.51681343  0.37642472  1
  O  O195  1  0.80499320  0.50556106  0.87214458  1
  O  O196  1  0.80333980  0.82765606  0.37904470  1
  O  O197  1  0.80620801  0.83258118  0.87676176  1
  O  O198  1  0.02436159  -0.00205543  0.36455794  1
  O  O199  1  0.03542378  0.00745763  0.87637501  1
  O  O200  1  0.03721812  0.34978047  0.38095909  1
  O  O201  1  0.01655209  0.35310741  0.87981761  1
  O  O202  1  0.03824115  0.67029475  0.38823020  1
  O  O203  1  0.01786882  0.66653595  0.87088341  1
  O  O204  1  0.36167470  0.00423748  0.37003839  1
  O  O205  1  0.36596558  -0.00108242  0.88114744  1
  O  O206  1  0.34607842  0.35711821  0.37681746  1
  O  O207  1  0.37125075  0.34694692  0.86927375  1
  O  O208  1  0.34572613  0.66368017  0.38224375  1
  O  O209  1  0.36990807  0.68629630  0.87339770  1
  O  O210  1  0.67898501  0.00483667  0.38367263  1
  O  O211  1  0.68048051  0.00637673  0.86607277  1
  O  O212  1  0.68245680  0.35021839  0.37385550  1
  O  O213  1  0.69066329  0.35371308  0.87828620  1
  O  O214  1  0.69858154  0.67510378  0.37941559  1
  O  O215  1  0.68292678  0.67426649  0.86897123  1
  O  O216  1  0.06850804  0.09244481  0.02202452  1
  O  O217  1  0.07673358  0.10060330  0.52631039  1
  O  O218  1  0.06053435  0.42546410  0.02397375  1
  O  O219  1  0.06864131  0.43744525  0.53005182  1
  O  O220  1  0.07581836  0.76262495  0.01541521  1
  O  O221  1  0.06182456  0.76137953  0.53141360  1
  O  O222  1  0.40038580  0.08555959  0.01826463  1
  O  O223  1  0.41164952  0.08335216  0.52445295  1
  O  O224  1  0.41046910  0.43837930  0.01096467  1
  O  O225  1  0.40036191  0.44372058  0.51800839  1
  O  O226  1  0.39600404  0.76623900  0.01894451  1
  O  O227  1  0.39987111  0.76140439  0.52485942  1
  O  O228  1  0.74610869  0.09601128  0.00760846  1
  O  O229  1  0.72888748  0.08734213  0.51469474  1
  O  O230  1  0.74358885  0.42430267  0.04052703  1
  O  O231  1  0.74805672  0.43710736  0.50651828  1
  O  O232  1  0.74355679  0.76101748  0.00844553  1
  O  O233  1  0.74506517  0.74913865  0.52502644  1
  O  O234  1  0.08045371  0.25658636  0.01868772  1
  O  O235  1  0.09975184  0.26901506  0.52583314  1
  O  O236  1  0.08341656  0.59424212  0.01358500  1
  O  O237  1  0.09154045  0.59290380  0.53054122  1
  O  O238  1  0.10338724  0.93429203  0.02086172  1
  O  O239  1  0.09809564  0.92874796  0.52784125  1
  O  O240  1  0.43434764  0.25999948  -0.00049633  1
  O  O241  1  0.42600950  0.26317648  0.51472943  1
  O  O242  1  0.43518384  0.60583169  0.00745619  1
  O  O243  1  0.42315224  0.59424232  0.52174590  1
  O  O244  1  0.41927893  0.92473103  0.02136800  1
  O  O245  1  0.43289512  0.92186140  0.52809321  1
  O  O246  1  0.77708930  0.26058294  0.02489841  1
  O  O247  1  0.76354331  0.26131244  0.51922699  1
  O  O248  1  0.74925869  0.58412754  0.02745360  1
  O  O249  1  0.77048401  0.60055438  0.52068270  1
  O  O250  1  0.76256823  0.91915066  0.01036998  1
  O  O251  1  0.75262581  0.92697129  0.51700897  1
  O  O252  1  0.24190967  0.07064116  0.27114104  1
  O  O253  1  0.22413637  0.06778506  0.77148623  1
  O  O254  1  0.22335264  0.39514076  0.27219729  1
  O  O255  1  0.24196396  0.41305226  0.77192603  1
  O  O256  1  0.23036162  0.73629827  0.26758892  1
  O  O257  1  0.24962470  0.74004659  0.77298603  1
  O  O258  1  0.55897778  0.06625674  0.28087962  1
  O  O259  1  0.56467803  0.06130213  0.76651863  1
  O  O260  1  0.58074278  0.41639290  0.26565172  1
  O  O261  1  0.56889362  0.40387977  0.77964203  1
  O  O262  1  0.58086304  0.74522360  0.28085071  1
  O  O263  1  0.57111805  0.73957526  0.77740268  1
  O  O264  1  0.91474553  0.06951936  0.26025141  1
  O  O265  1  0.91712129  0.07160762  0.77492017  1
  O  O266  1  0.90368969  0.41650190  0.27759368  1
  O  O267  1  0.90843297  0.42042307  0.76732170  1
  O  O268  1  0.90411216  0.73536509  0.27705361  1
  O  O269  1  0.90583052  0.73430658  0.76143558  1
  O  O270  1  0.25865318  0.23104959  0.27629858  1
  O  O271  1  0.25417491  0.23259173  0.76551196  1
  O  O272  1  0.25835994  0.57063903  0.27910410  1
  O  O273  1  0.27126603  0.57578855  0.77254162  1
  O  O274  1  0.26642462  0.89986539  0.25928785  1
  O  O275  1  0.26070145  0.90623906  0.78711804  1
  O  O276  1  0.59106121  0.22259089  0.27921396  1
  O  O277  1  0.59447354  0.22958867  0.77731300  1
  O  O278  1  0.60281520  0.57285276  0.27441352  1
  O  O279  1  0.59788782  0.57393670  0.77405301  1
  O  O280  1  0.58693804  0.90281737  0.28360307  1
  O  O281  1  0.59261166  0.90064723  0.77535442  1
  O  O282  1  0.92773632  0.24176975  0.26209022  1
  O  O283  1  0.94072132  0.23422431  0.77261369  1
  O  O284  1  0.92161990  0.57510293  0.28688114  1
  O  O285  1  0.93192033  0.56930394  0.77079405  1
  O  O286  1  0.93326788  0.91066841  0.26247612  1
  O  O287  1  0.93669792  0.90900304  0.76047269  1
  O  O288  1  0.25858005  0.23688449  0.46940982  1
  O  O289  1  0.25367890  0.24113542  0.98226924  1
  O  O290  1  0.26140769  0.56524724  0.47530632  1
  O  O291  1  0.27123275  0.57740002  0.96881811  1
  O  O292  1  0.26516318  0.90068095  0.48724983  1
  O  O293  1  0.26430915  0.90166428  0.97717305  1
  O  O294  1  0.59815221  0.22952237  0.47360477  1
  O  O295  1  0.60132265  0.23216962  0.96717378  1
  O  O296  1  0.59746824  0.57314743  0.47425720  1
  O  O297  1  0.59044280  0.56953094  0.96451332  1
  O  O298  1  0.59415315  0.89973239  0.47508552  1
  O  O299  1  0.59218531  0.90025046  0.96411829  1
  O  O300  1  0.94099176  0.24799773  0.48231354  1
  O  O301  1  0.93410666  0.23206595  0.97430091  1
  O  O302  1  0.93673197  0.56980959  0.47814033  1
  O  O303  1  0.93022825  0.57498266  0.98234919  1
  O  O304  1  0.93286146  0.90240775  0.49904824  1
  O  O305  1  0.92767761  0.90905031  0.98031949  1
  O  O306  1  0.23885132  0.08003723  0.47938679  1
  O  O307  1  0.23562271  0.06057914  0.97843610  1
  O  O308  1  0.21979610  0.40550182  0.47999674  1
  O  O309  1  0.24807136  0.41573783  0.96903039  1
  O  O310  1  0.23385218  0.72417505  0.48237141  1
  O  O311  1  0.24391944  0.74246316  0.97404611  1
  O  O312  1  0.56638694  0.05855797  0.48364615  1
  O  O313  1  0.57051934  0.06631484  0.97019070  1
  O  O314  1  0.57188810  0.41981818  0.48053980  1
  O  O315  1  0.56495977  0.41140575  0.96797271  1
  O  O316  1  0.58402288  0.74413796  0.47657962  1
  O  O317  1  0.57059715  0.73700037  0.97349341  1
  O  O318  1  0.91053396  0.07498496  0.48195174  1
  O  O319  1  0.91345694  0.07555314  0.97042588  1
  O  O320  1  0.91539989  0.41493726  0.47210478  1
  O  O321  1  0.90935094  0.40720889  0.98597877  1
  O  O322  1  0.90693781  0.72547220  0.47980447  1
  O  O323  1  0.90789636  0.74368700  0.98335338  1
  O  O324  1  0.09583857  0.25172663  0.23349522  1
  O  O325  1  0.10060209  0.25993251  0.71695983  1
  O  O326  1  0.08845017  0.59269444  0.23537392  1
  O  O327  1  0.08274596  0.59375908  0.72771891  1
  O  O328  1  0.10432410  0.93322323  0.22423633  1
  O  O329  1  0.09945536  0.93541853  0.72934478  1
  O  O330  1  0.42829838  0.25315969  0.23937445  1
  O  O331  1  0.43606447  0.25722879  0.73809918  1
  O  O332  1  0.42585511  0.59631401  0.23822016  1
  O  O333  1  0.42876116  0.60268373  0.74331741  1
  O  O334  1  0.42282272  0.92211299  0.22889249  1
  O  O335  1  0.43121296  0.92585533  0.72002725  1
  O  O336  1  0.76596662  0.26788393  0.22267766  1
  O  O337  1  0.76310699  0.25988000  0.73594160  1
  O  O338  1  0.75748248  0.59029162  0.22914166  1
  O  O339  1  0.76412890  0.60108289  0.72539329  1
  O  O340  1  0.75355571  0.91913420  0.24100961  1
  O  O341  1  0.75328292  0.92726661  0.73191793  1
  O  O342  1  0.07395883  0.09199548  0.22014158  1
  O  O343  1  0.06846684  0.09977372  0.72147679  1
  O  O344  1  0.05768072  0.43569908  0.22836932  1
  O  O345  1  0.07523872  0.42665259  0.71538849  1
  O  O346  1  0.07682317  0.76938742  0.23325327  1
  O  O347  1  0.06336673  0.76244767  0.72704262  1
  O  O348  1  0.39690785  0.09454998  0.23540768  1
  O  O349  1  0.41129508  0.08930287  0.72826391  1
  O  O350  1  0.40294360  0.43272134  0.24184884  1
  O  O351  1  0.39912042  0.43720141  0.72234258  1
  O  O352  1  0.40320131  0.76752082  0.23037873  1
  O  O353  1  0.39914109  0.76956459  0.72749141  1
  O  O354  1  0.73406389  0.09504644  0.24599362  1
  O  O355  1  0.73333467  0.08795284  0.73692248  1
  O  O356  1  0.74677908  0.43342042  0.22732024  1
  O  O357  1  0.74188544  0.44006173  0.73844868  1
  O  O358  1  0.73844815  0.75171740  0.23906543  1
  O  O359  1  0.73845744  0.75600786  0.73556797  1
