# generated using pymatgen
data_BaLaInIrO6
_symmetry_space_group_name_H-M   'P 1'
_cell_length_a   17.53768359
_cell_length_b   17.56322424
_cell_length_c   16.49484359
_cell_angle_alpha   89.97993757
_cell_angle_beta   90.00751804
_cell_angle_gamma   89.96786198
_symmetry_Int_Tables_number   1
_chemical_formula_structural   BaLaInIrO6
_chemical_formula_sum   'Ba36 La36 In36 Ir36 O216'
_cell_volume   5080.71202271
_cell_formula_units_Z   36
loop_
 _symmetry_equiv_pos_site_id
 _symmetry_equiv_pos_as_xyz
  1  'x, y, z'
loop_
 _atom_site_type_symbol
 _atom_site_label
 _atom_site_symmetry_multiplicity
 _atom_site_fract_x
 _atom_site_fract_y
 _atom_site_fract_z
 _atom_site_occupancy
  Ba  Ba0  1  -0.00194797  0.48955681  0.37660479  1
  Ba  Ba1  1  0.66502247  0.81994166  0.87435231  1
  Ba  Ba2  1  0.99609420  0.83966352  0.62554144  1
  Ba  Ba3  1  0.83490846  0.65713696  0.38089652  1
  Ba  Ba4  1  0.16904543  0.00456781  0.12149070  1
  Ba  Ba5  1  0.33499398  0.16003369  0.87330793  1
  Ba  Ba6  1  0.16614024  0.32803639  0.37380709  1
  Ba  Ba7  1  -0.00226000  0.49329108  0.87544387  1
  Ba  Ba8  1  0.33534993  0.83082534  0.87625946  1
  Ba  Ba9  1  0.17016659  0.34108829  0.62880737  1
  Ba  Ba10  1  0.50645563  0.32357070  0.37644629  1
  Ba  Ba11  1  0.83121803  0.67604915  0.62903681  1
  Ba  Ba12  1  0.16306376  0.32816062  0.87323743  1
  Ba  Ba13  1  0.99656832  0.50506528  0.12632635  1
  Ba  Ba14  1  0.16832736  0.00362385  0.62768465  1
  Ba  Ba15  1  0.82716670  0.35257245  0.12468264  1
  Ba  Ba16  1  0.50106077  0.00572311  0.12777158  1
  Ba  Ba17  1  0.66131582  0.14789560  0.87134134  1
  Ba  Ba18  1  0.83367068  0.32202473  0.37267397  1
  Ba  Ba19  1  1.00181476  0.50876945  0.62640399  1
  Ba  Ba20  1  0.83060001  0.98966504  0.37311156  1
  Ba  Ba21  1  0.66489123  0.81776123  0.37366682  1
  Ba  Ba22  1  0.33916076  0.84542090  0.12734351  1
  Ba  Ba23  1  0.49605306  0.67579913  0.62266506  1
  Ba  Ba24  1  0.16190145  0.99478883  0.87490476  1
  Ba  Ba25  1  0.49891190  0.67794687  0.12860473  1
  Ba  Ba26  1  0.66970444  0.51689698  0.12996076  1
  Ba  Ba27  1  0.50802230  0.98256156  0.37347305  1
  Ba  Ba28  1  0.16557646  0.67262476  0.62341450  1
  Ba  Ba29  1  0.99700357  0.17692921  0.12186550  1
  Ba  Ba30  1  0.33535795  0.49077800  0.37853928  1
  Ba  Ba31  1  0.50380934  0.65829568  0.37593103  1
  Ba  Ba32  1  0.33238431  0.51141008  0.62412836  1
  Ba  Ba33  1  0.83581865  0.65980895  0.87650165  1
  Ba  Ba34  1  0.82531151  0.01434924  0.62069218  1
  Ba  Ba35  1  0.33759209  0.82326392  0.37557774  1
  La  La36  1  0.32941608  0.17097500  0.13105629  1
  La  La37  1  0.16241755  0.98980808  0.37468305  1
  La  La38  1  0.16408724  0.34596727  0.12514602  1
  La  La39  1  -0.00676275  0.15646672  0.37608896  1
  La  La40  1  0.84057086  0.31676828  0.87571029  1
  La  La41  1  0.33409773  0.84571393  0.62063894  1
  La  La42  1  0.67880649  0.18380015  0.12379165  1
  La  La43  1  -0.00324782  0.81858194  0.37838811  1
  La  La44  1  0.83623928  0.98313406  0.87035659  1
  La  La45  1  0.16668036  0.66151738  0.87357520  1
  La  La46  1  0.82841767  0.35191095  0.62146311  1
  La  La47  1  -0.00929133  0.81975637  0.86734160  1
  La  La48  1  0.16699772  0.68147016  0.12587209  1
  La  La49  1  0.66259465  0.14683012  0.37608703  1
  La  La50  1  1.00531079  0.84311936  0.12926151  1
  La  La51  1  0.49560551  0.01088408  0.62709334  1
  La  La52  1  0.17248768  0.64993671  0.37982225  1
  La  La53  1  0.50923747  0.97984497  0.87697145  1
  La  La54  1  0.82611075  0.67565039  0.12966537  1
  La  La55  1  0.99883979  0.17329517  0.62012252  1
  La  La56  1  0.66385925  0.48946325  0.87988829  1
  La  La57  1  0.67310652  0.51891049  0.62349594  1
  La  La58  1  0.49490753  0.34850405  0.62381916  1
  La  La59  1  0.32825066  0.49339684  0.87625204  1
  La  La60  1  0.33501619  0.15380407  0.37430186  1
  La  La61  1  0.34127215  0.51522760  0.12831864  1
  La  La62  1  0.67422166  0.84920823  0.62140047  1
  La  La63  1  0.66741179  0.84215310  0.12798358  1
  La  La64  1  -0.00284335  0.15736522  0.87337376  1
  La  La65  1  0.49956277  0.34945873  0.12311617  1
  La  La66  1  0.66327481  0.49172561  0.37628572  1
  La  La67  1  0.50633178  0.31564754  0.87514822  1
  La  La68  1  0.50413777  0.65661106  0.87880298  1
  La  La69  1  0.82114340  0.01443791  0.12133782  1
  La  La70  1  0.67283181  0.18461122  0.62154341  1
  La  La71  1  0.33431996  0.17704209  0.62438965  1
  In  In72  1  0.16425003  0.16500913  0.49729429  1
  In  In73  1  0.33556862  0.33271254  0.00028642  1
  In  In74  1  0.33653081  0.32893618  0.49764878  1
  In  In75  1  0.16685902  0.16902720  -0.00212142  1
  In  In76  1  0.33666322  0.00360828  -0.00138912  1
  In  In77  1  0.16393861  0.49593737  0.50272787  1
  In  In78  1  0.83451016  0.83316813  0.00134965  1
  In  In79  1  0.16824114  0.83265780  0.50018570  1
  In  In80  1  0.33718132  0.00255975  0.75186832  1
  In  In81  1  0.33669559  0.33500861  0.75135002  1
  In  In82  1  0.83117797  0.83289853  0.49764007  1
  In  In83  1  -0.00262581  0.33174112  0.74696832  1
  In  In84  1  0.66729903  0.33515641  0.74993711  1
  In  In85  1  0.33502418  0.33007474  0.24713735  1
  In  In86  1  0.50546854  0.16595437  0.00444697  1
  In  In87  1  0.50292987  0.82959049  0.74636781  1
  In  In88  1  0.16777568  0.50161912  0.24628163  1
  In  In89  1  0.50015404  0.50110747  0.75197828  1
  In  In90  1  0.33557261  -0.00007750  0.49764168  1
  In  In91  1  0.16480802  0.16600875  0.25000949  1
  In  In92  1  -0.00159596  0.66486184  0.00434367  1
  In  In93  1  0.16687330  0.83266546  0.75195202  1
  In  In94  1  0.16416597  0.83305279  0.00068942  1
  In  In95  1  0.83044318  0.50048945  0.75335424  1
  In  In96  1  -0.00129364  0.33466652  0.00044623  1
  In  In97  1  0.33416972  0.67063898  -0.00096852  1
  In  In98  1  -0.00250682  0.00062140  0.49867463  1
  In  In99  1  -0.00121692  0.66595050  0.24899021  1
  In  In100  1  0.66845213  0.33157244  0.25292839  1
  In  In101  1  0.16694295  0.83295123  0.25325103  1
  In  In102  1  0.50199925  0.50129952  0.25128038  1
  In  In103  1  -0.00408498  0.00160689  0.74606521  1
  In  In104  1  -0.00234371  0.33252168  0.24830667  1
  In  In105  1  -0.00627222  0.00117609  0.00047573  1
  In  In106  1  0.49908303  0.50081759  -0.00007886  1
  In  In107  1  0.50577785  0.16653468  0.24727597  1
  Ir  Ir108  1  0.50657085  0.49964905  0.50309937  1
  Ir  Ir109  1  0.82411890  0.16422317  -0.00535281  1
  Ir  Ir110  1  0.16427079  0.16855719  0.74531400  1
  Ir  Ir111  1  0.83026856  0.16149759  0.24882974  1
  Ir  Ir112  1  0.83035934  0.49980788  0.50031588  1
  Ir  Ir113  1  0.67022670  0.33463027  -0.00467792  1
  Ir  Ir114  1  0.66571219  0.33469832  0.50300338  1
  Ir  Ir115  1  0.82778154  0.16971789  0.49910200  1
  Ir  Ir116  1  0.33427545  0.00119906  0.25547439  1
  Ir  Ir117  1  0.50605695  0.83273162  0.00224630  1
  Ir  Ir118  1  0.50768734  0.83145128  0.50236667  1
  Ir  Ir119  1  0.00100802  0.66632115  0.74921434  1
  Ir  Ir120  1  0.66979499  0.67022644  0.25159225  1
  Ir  Ir121  1  0.66445065  0.66543214  0.75357727  1
  Ir  Ir122  1  0.66115822  0.00161917  0.50183789  1
  Ir  Ir123  1  0.50325698  0.83111326  0.25123189  1
  Ir  Ir124  1  0.82927497  0.50429448  0.25374573  1
  Ir  Ir125  1  0.00054917  0.66596962  0.50177142  1
  Ir  Ir126  1  0.33491221  0.66978864  0.74931525  1
  Ir  Ir127  1  0.16739637  0.50541302  0.75569560  1
  Ir  Ir128  1  0.66483030  -0.00010151  0.74903809  1
  Ir  Ir129  1  0.66590165  0.66470448  0.50327570  1
  Ir  Ir130  1  0.33244009  0.66690805  0.25609532  1
  Ir  Ir131  1  0.17253183  0.50337114  -0.00280107  1
  Ir  Ir132  1  0.82685986  0.83273976  0.74870624  1
  Ir  Ir133  1  0.33484073  0.66731016  0.49992556  1
  Ir  Ir134  1  0.83702748  0.83401149  0.24937297  1
  Ir  Ir135  1  0.66728973  -0.00308059  -0.00047618  1
  Ir  Ir136  1  0.66740720  0.66829270  0.00103925  1
  Ir  Ir137  1  0.82817280  0.16672820  0.74714313  1
  Ir  Ir138  1  0.82560101  0.50218973  0.00125942  1
  Ir  Ir139  1  0.50702482  0.16530904  0.74479528  1
  Ir  Ir140  1  -0.00766170  0.33025683  0.50140557  1
  Ir  Ir141  1  0.50616870  0.16581529  0.50442941  1
  Ir  Ir142  1  -0.00705563  0.00074678  0.24750619  1
  Ir  Ir143  1  0.66877967  -0.00392460  0.24720374  1
  O  O144  1  0.29757376  0.30862863  0.12277285  1
  O  O145  1  0.32329731  0.31449191  0.62576331  1
  O  O146  1  0.30580100  0.66253747  0.13468968  1
  O  O147  1  0.31426515  0.67236062  0.62285929  1
  O  O148  1  0.31965997  1.00106687  0.13638659  1
  O  O149  1  0.32422021  0.99423937  0.62421880  1
  O  O150  1  0.64083638  0.32437282  0.11734948  1
  O  O151  1  0.63354728  0.32321304  0.62096668  1
  O  O152  1  0.64838237  0.67582867  0.12614331  1
  O  O153  1  0.64306501  0.65485383  0.62872744  1
  O  O154  1  0.64984052  0.98128229  0.12370277  1
  O  O155  1  0.63297034  0.99023107  0.62549868  1
  O  O156  1  0.97169175  0.33448678  0.12270765  1
  O  O157  1  0.96330821  0.32301710  0.62087204  1
  O  O158  1  0.95864535  0.66135676  0.12715970  1
  O  O159  1  0.97778489  0.66284011  0.62489831  1
  O  O160  1  0.95719130  0.98634134  0.12979729  1
  O  O161  1  0.97268328  1.01069193  0.62317866  1
  O  O162  1  0.19701609  0.15541391  0.12641098  1
  O  O163  1  0.19720218  0.16350129  0.62646324  1
  O  O164  1  0.20426015  0.49133667  0.11489973  1
  O  O165  1  0.18079581  0.50265494  0.63435565  1
  O  O166  1  0.19152895  0.82062673  0.13030541  1
  O  O167  1  0.19930040  0.82619131  0.62599783  1
  O  O168  1  0.54852106  0.15845381  0.12428597  1
  O  O169  1  0.53935090  0.15146548  0.62467305  1
  O  O170  1  0.52474571  0.49278991  0.12388687  1
  O  O171  1  0.53634268  0.49351910  0.62341623  1
  O  O172  1  0.53145242  0.83250804  0.12674400  1
  O  O173  1  0.53849595  0.82856271  0.62011797  1
  O  O174  1  0.84710158  0.14947975  0.12148572  1
  O  O175  1  0.85899894  0.16659657  0.62354851  1
  O  O176  1  0.84704332  0.51111594  0.12847193  1
  O  O177  1  0.84965180  0.49338732  0.62067492  1
  O  O178  1  0.86583674  0.82359833  0.13061266  1
  O  O179  1  0.84251559  0.83449623  0.62838432  1
  O  O180  1  0.12816748  0.17128263  0.37263144  1
  O  O181  1  0.13108213  0.17304748  0.86316447  1
  O  O182  1  0.15047747  0.51312255  0.37593938  1
  O  O183  1  0.14530534  0.52054959  0.87721299  1
  O  O184  1  0.13321616  0.84734681  0.37467022  1
  O  O185  1  0.12840592  0.82375557  0.87653126  1
  O  O186  1  0.47520728  0.16951085  0.38417139  1
  O  O187  1  0.48858894  0.17662333  0.86643690  1
  O  O188  1  0.48843234  0.49920368  0.38285344  1
  O  O189  1  0.46652845  0.51717834  0.87626483  1
  O  O190  1  0.48538946  0.82868406  0.37760593  1
  O  O191  1  0.49012068  0.83879258  0.87973055  1
  O  O192  1  0.79771271  0.16856201  0.37305417  1
  O  O193  1  0.80353096  0.18286782  0.87007841  1
  O  O194  1  0.79996248  0.50247733  0.37632310  1
  O  O195  1  0.79863535  0.50369792  0.88160953  1
  O  O196  1  0.81244660  0.83403819  0.36770968  1
  O  O197  1  0.81072131  0.83681488  0.86882484  1
  O  O198  1  0.02404483  0.01525094  0.36698468  1
  O  O199  1  0.00742746  0.02092591  0.87068045  1
  O  O200  1  0.01112287  0.32781556  0.38156549  1
  O  O201  1  0.00718304  0.32640142  0.87402834  1
  O  O202  1  0.02808589  0.67476410  0.38048122  1
  O  O203  1  0.02658933  0.67316611  0.87090516  1
  O  O204  1  0.36183661  0.01169975  0.37256847  1
  O  O205  1  0.37756894  0.00581406  0.87326499  1
  O  O206  1  0.35895436  0.32940398  0.37392514  1
  O  O207  1  0.37298725  0.35058590  0.87280653  1
  O  O208  1  0.35647540  0.66325758  0.37880421  1
  O  O209  1  0.36683652  0.67165668  0.86741745  1
  O  O210  1  0.68532871  0.01120219  0.37459251  1
  O  O211  1  0.69728922  -0.00176710  0.87401558  1
  O  O212  1  0.68652068  0.34964398  0.38410324  1
  O  O213  1  0.70478555  0.34581500  0.87704894  1
  O  O214  1  0.68815538  0.66140623  0.37864108  1
  O  O215  1  0.68900813  0.66554257  0.87691147  1
  O  O216  1  0.06229558  0.10037321  0.00431941  1
  O  O217  1  0.06004733  0.10497346  0.51539882  1
  O  O218  1  0.08417854  0.43156671  0.01461494  1
  O  O219  1  0.06361351  0.41883769  0.51630308  1
  O  O220  1  0.07368600  0.75373105  0.04200450  1
  O  O221  1  0.06859028  0.75697023  0.51374315  1
  O  O222  1  0.40413128  0.10393030  0.02851476  1
  O  O223  1  0.41124114  0.10095441  0.52739352  1
  O  O224  1  0.40246802  0.43009633  0.03396969  1
  O  O225  1  0.42098144  0.42411517  0.52348632  1
  O  O226  1  0.41493138  0.76528238  0.01478796  1
  O  O227  1  0.40665909  0.76753586  0.52226606  1
  O  O228  1  0.72836836  0.09560657  0.02312310  1
  O  O229  1  0.72652819  0.10420121  0.51741325  1
  O  O230  1  0.72946735  0.43398652  0.01471981  1
  O  O231  1  0.73344898  0.43073668  0.52718232  1
  O  O232  1  0.73829046  0.75983190  0.02704638  1
  O  O233  1  0.73283017  0.75907323  0.52248520  1
  O  O234  1  0.09831036  0.26839298  0.02490506  1
  O  O235  1  0.08148229  0.26207507  0.52388659  1
  O  O236  1  0.10543155  0.59568676  0.02264027  1
  O  O237  1  0.08797389  0.59457032  0.51092992  1
  O  O238  1  0.07900164  0.91886841  0.02728152  1
  O  O239  1  0.09877707  0.93406045  0.50748490  1
  O  O240  1  0.44667849  0.27340767  0.01287318  1
  O  O241  1  0.44259230  0.25638089  0.53152202  1
  O  O242  1  0.42141142  0.59319778  0.02378864  1
  O  O243  1  0.43151324  0.58799608  0.51899144  1
  O  O244  1  0.44013501  0.92605952  0.01022966  1
  O  O245  1  0.44109728  0.92373838  0.52480220  1
  O  O246  1  0.76115386  0.26268236  0.01747987  1
  O  O247  1  0.75897173  0.26516952  0.52931281  1
  O  O248  1  0.76361671  0.60263986  0.02347383  1
  O  O249  1  0.75687584  0.59053242  0.52467556  1
  O  O250  1  0.76276306  0.93225746  0.02067104  1
  O  O251  1  0.74985836  0.92793028  0.51640874  1
  O  O252  1  0.24230517  0.06621566  0.27977418  1
  O  O253  1  0.23867735  0.08383993  0.76586840  1
  O  O254  1  0.23837686  0.40372986  0.25682727  1
  O  O255  1  0.24583826  0.42239023  0.77364052  1
  O  O256  1  0.23736747  0.73087723  0.27793562  1
  O  O257  1  0.24181844  0.73131929  0.77569099  1
  O  O258  1  0.58152507  0.06789647  0.26999996  1
  O  O259  1  0.56463773  0.06247922  0.76706765  1
  O  O260  1  0.57611366  0.40620475  0.26271238  1
  O  O261  1  0.57331452  0.40501689  0.78602458  1
  O  O262  1  0.57426800  0.73783709  0.26439829  1
  O  O263  1  0.56787748  0.72781916  0.77455679  1
  O  O264  1  0.90035587  0.07022401  0.26602475  1
  O  O265  1  0.88828398  0.07381367  0.77398283  1
  O  O266  1  0.89960705  0.41377300  0.26547865  1
  O  O267  1  0.89338497  0.39658372  0.76457546  1
  O  O268  1  0.90667259  0.74759562  0.27551189  1
  O  O269  1  0.90985598  0.74488933  0.77080070  1
  O  O270  1  0.27414793  0.22253043  0.27204439  1
  O  O271  1  0.25302408  0.24232902  0.76274824  1
  O  O272  1  0.26435377  0.57852646  0.27132567  1
  O  O273  1  0.26373637  0.57720717  0.77953956  1
  O  O274  1  0.25804793  0.91577093  0.27744708  1
  O  O275  1  0.26107487  0.90955700  0.76550056  1
  O  O276  1  0.60564372  0.23064623  0.27783649  1
  O  O277  1  0.59804443  0.23397050  0.76072927  1
  O  O278  1  0.60339099  0.57539107  0.27318989  1
  O  O279  1  0.59942929  0.57149665  0.77800407  1
  O  O280  1  0.60307646  0.89810916  0.25950616  1
  O  O281  1  0.59815604  0.90914257  0.76735146  1
  O  O282  1  0.92395471  0.22818441  0.27157801  1
  O  O283  1  0.92264937  0.22853193  0.76880698  1
  O  O284  1  0.91946162  0.57211516  0.27042477  1
  O  O285  1  0.92677812  0.57785046  0.76500409  1
  O  O286  1  0.93149576  0.90062627  0.27493590  1
  O  O287  1  0.91716526  0.90355160  0.77218067  1
  O  O288  1  0.27199066  0.22354033  0.48460443  1
  O  O289  1  0.25989028  0.24442301  0.97178714  1
  O  O290  1  0.25995543  0.58071456  0.48516269  1
  O  O291  1  0.26303564  0.57003287  0.97477737  1
  O  O292  1  0.27069079  0.89906726  0.49169793  1
  O  O293  1  0.25862339  0.91020890  0.98675513  1
  O  O294  1  0.60516943  0.23255920  0.48081732  1
  O  O295  1  0.60398443  0.24518659  0.97497556  1
  O  O296  1  0.60348964  0.56567519  0.48418903  1
  O  O297  1  0.59807944  0.57610502  0.97332445  1
  O  O298  1  0.60247181  0.89933853  0.48743934  1
  O  O299  1  0.60318105  0.89913714  0.98857430  1
  O  O300  1  0.92647902  0.23249676  0.48009502  1
  O  O301  1  0.91862992  0.22988167  0.97280176  1
  O  O302  1  0.92476611  0.57006454  0.48378325  1
  O  O303  1  0.91871323  0.56833313  0.98451467  1
  O  O304  1  0.92891119  0.90203894  0.47437034  1
  O  O305  1  0.92175291  0.90941493  0.96185905  1
  O  O306  1  0.23332211  0.06476599  0.46896918  1
  O  O307  1  0.24109690  0.07498384  0.97813668  1
  O  O308  1  0.24319539  0.40661029  0.49194869  1
  O  O309  1  0.24353020  0.41768715  0.97055485  1
  O  O310  1  0.24099477  0.73148820  0.47481736  1
  O  O311  1  0.23245815  0.72988500  0.98038640  1
  O  O312  1  0.57202229  0.07389644  0.48176520  1
  O  O313  1  0.57120366  0.05947500  0.97478374  1
  O  O314  1  0.57786172  0.40998004  0.48130330  1
  O  O315  1  0.57645293  0.40222319  0.96994444  1
  O  O316  1  0.57503266  0.73573715  0.48462540  1
  O  O317  1  0.56946984  0.73240397  0.98096422  1
  O  O318  1  0.89853615  0.08302753  0.47452824  1
  O  O319  1  0.88238603  0.06691961  0.97915225  1
  O  O320  1  0.89446905  0.40019738  0.48936525  1
  O  O321  1  0.89077651  0.40694815  0.97788422  1
  O  O322  1  0.91422538  0.74031966  0.48635262  1
  O  O323  1  0.91625051  0.74906177  0.97308596  1
  O  O324  1  0.09959871  0.26652729  0.22308455  1
  O  O325  1  0.08683691  0.25137657  0.71986538  1
  O  O326  1  0.10219143  0.60368228  0.22575303  1
  O  O327  1  0.09384137  0.59683706  0.73709421  1
  O  O328  1  0.08136943  0.93109914  0.22983278  1
  O  O329  1  0.08524621  0.92177694  0.73506013  1
  O  O330  1  0.43707734  0.26148869  0.21118079  1
  O  O331  1  0.44457437  0.26065474  0.72866568  1
  O  O332  1  0.41970599  0.59360815  0.23432598  1
  O  O333  1  0.42361383  0.59951660  0.73381890  1
  O  O334  1  0.43103396  0.92400419  0.23794713  1
  O  O335  1  0.43679622  0.92852381  0.72523440  1
  O  O336  1  0.76228956  0.25252545  0.22688924  1
  O  O337  1  0.76591399  0.26268412  0.72063442  1
  O  O338  1  0.76547944  0.60461484  0.23452338  1
  O  O339  1  0.75304697  0.59506613  0.73451358  1
  O  O340  1  0.76424693  0.92432473  0.21934820  1
  O  O341  1  0.75597618  0.92572113  0.72667354  1
  O  O342  1  0.06139067  0.08918286  0.22920781  1
  O  O343  1  0.07148990  0.10211995  0.72509903  1
  O  O344  1  0.07519760  0.42533055  0.23167072  1
  O  O345  1  0.08040128  0.42779529  0.74240050  1
  O  O346  1  0.06515239  0.76683600  0.23090977  1
  O  O347  1  0.06963662  0.75413941  0.73273848  1
  O  O348  1  0.40134123  0.09686934  0.23586469  1
  O  O349  1  0.41296504  0.10278714  0.71975286  1
  O  O350  1  0.40681448  0.42808637  0.21925180  1
  O  O351  1  0.41600240  0.42230860  0.71834619  1
  O  O352  1  0.40700461  0.76043376  0.23683766  1
  O  O353  1  0.39736462  0.76540826  0.72576648  1
  O  O354  1  0.73446198  0.09235791  0.22374416  1
  O  O355  1  0.72959935  0.09993940  0.72348915  1
  O  O356  1  0.73989561  0.43359869  0.24209772  1
  O  O357  1  0.73335621  0.43179574  0.71923126  1
  O  O358  1  0.74295209  0.76415820  0.22236328  1
  O  O359  1  0.72906952  0.76318289  0.72624074  1
