# generated using pymatgen
data_BaLaInIrO6
_symmetry_space_group_name_H-M   'P 1'
_cell_length_a   17.54130006
_cell_length_b   17.57941813
_cell_length_c   16.52563894
_cell_angle_alpha   90.08148955
_cell_angle_beta   90.01110464
_cell_angle_gamma   90.00763892
_symmetry_Int_Tables_number   1
_chemical_formula_structural   BaLaInIrO6
_chemical_formula_sum   'Ba36 La36 In36 Ir36 O216'
_cell_volume   5095.93737502
_cell_formula_units_Z   36
loop_
 _symmetry_equiv_pos_site_id
 _symmetry_equiv_pos_as_xyz
  1  'x, y, z'
loop_
 _atom_site_type_symbol
 _atom_site_label
 _atom_site_symmetry_multiplicity
 _atom_site_fract_x
 _atom_site_fract_y
 _atom_site_fract_z
 _atom_site_occupancy
  Ba  Ba0  1  0.82980619  0.67581999  0.62555523  1
  Ba  Ba1  1  0.67237688  0.17491347  0.12528834  1
  Ba  Ba2  1  0.49654321  0.67889248  0.62840975  1
  Ba  Ba3  1  0.66892610  0.48984061  0.87294244  1
  Ba  Ba4  1  0.83329142  0.67655689  0.12694118  1
  Ba  Ba5  1  1.00216452  0.17576920  0.11997653  1
  Ba  Ba6  1  0.50338091  0.66084107  0.37649057  1
  Ba  Ba7  1  0.16639705  0.34292746  0.12598607  1
  Ba  Ba8  1  0.99870120  0.50625773  0.62914802  1
  Ba  Ba9  1  0.33196006  0.84141948  0.62849135  1
  Ba  Ba10  1  0.66685143  0.51234766  0.63107509  1
  Ba  Ba11  1  0.49878953  0.33807511  0.12855098  1
  Ba  Ba12  1  0.33431907  0.50298696  0.12627618  1
  Ba  Ba13  1  0.16648445  0.67201702  0.12729868  1
  Ba  Ba14  1  0.33494833  0.49309064  0.37779765  1
  Ba  Ba15  1  0.66629166  0.84382803  0.62506091  1
  Ba  Ba16  1  0.83559741  0.32494065  0.86952232  1
  Ba  Ba17  1  0.83482416  0.99014954  0.37272676  1
  Ba  Ba18  1  0.33822003  0.16271631  0.37244783  1
  Ba  Ba19  1  0.33577937  0.17672019  0.12495696  1
  Ba  Ba20  1  0.33503909  0.82658454  0.37195885  1
  Ba  Ba21  1  0.50377095  0.34519801  0.62969194  1
  Ba  Ba22  1  0.33263190  0.84143842  0.12006994  1
  Ba  Ba23  1  0.83253393  0.01479440  0.12441752  1
  Ba  Ba24  1  0.32977428  0.49430441  0.87465755  1
  Ba  Ba25  1  0.16175328  0.67449011  0.62968124  1
  Ba  Ba26  1  0.16676028  0.32532080  0.37423649  1
  Ba  Ba27  1  0.50184248  0.32819652  0.37472774  1
  Ba  Ba28  1  0.16763243  0.65618077  0.87718006  1
  Ba  Ba29  1  0.16449522  0.32675741  0.86976529  1
  Ba  Ba30  1  0.83645153  0.32236107  0.37410523  1
  Ba  Ba31  1  0.83108675  0.65656514  0.37576948  1
  Ba  Ba32  1  0.50023564  0.01043301  0.12152255  1
  Ba  Ba33  1  0.66655104  0.50282682  0.12815649  1
  Ba  Ba34  1  0.66604874  0.15741215  0.37491259  1
  Ba  Ba35  1  0.17036406  0.00314532  0.62224612  1
  La  La36  1  0.50577758  0.32183250  0.87609019  1
  La  La37  1  1.00443611  0.51476605  0.12906353  1
  La  La38  1  0.67008913  0.18502628  0.62350738  1
  La  La39  1  -0.00486790  0.14936514  0.87196050  1
  La  La40  1  -0.00809497  0.48558962  0.87892086  1
  La  La41  1  -0.00391370  0.81408232  0.87556585  1
  La  La42  1  0.16271456  0.01485934  0.12518425  1
  La  La43  1  1.00777683  0.84362653  0.62271689  1
  La  La44  1  0.83075615  0.98640258  0.87746856  1
  La  La45  1  -0.00645997  0.15255439  0.36455146  1
  La  La46  1  0.65637533  0.48727652  0.38294271  1
  La  La47  1  -0.00366170  0.48742176  0.37618928  1
  La  La48  1  1.00589674  0.84572168  0.12715810  1
  La  La49  1  0.16849001  0.98778474  0.37048257  1
  La  La50  1  0.50302025  0.65147567  0.87566066  1
  La  La51  1  0.66384600  0.82058630  0.38058674  1
  La  La52  1  0.33089620  0.81852909  0.87120454  1
  La  La53  1  0.67184118  0.84486504  0.13936296  1
  La  La54  1  0.66294256  0.81622314  0.87225930  1
  La  La55  1  0.48958450  0.67994693  0.12503598  1
  La  La56  1  0.33809499  0.18382880  0.62480729  1
  La  La57  1  0.33310139  0.15382342  0.87372136  1
  La  La58  1  0.16662270  0.34529861  0.62220210  1
  La  La59  1  0.49145136  0.01459854  0.62175438  1
  La  La60  1  -0.00723978  0.81472900  0.37789074  1
  La  La61  1  0.50745830  0.98417387  0.86968218  1
  La  La62  1  0.82653810  0.33885919  0.12194666  1
  La  La63  1  0.16965471  0.64821804  0.37795059  1
  La  La64  1  0.17263545  0.98681757  0.87265746  1
  La  La65  1  0.82804727  0.01548615  0.62577290  1
  La  La66  1  0.83331175  0.64811012  0.87231670  1
  La  La67  1  1.00131445  0.17667541  0.62265063  1
  La  La68  1  0.50662762  0.98988173  0.37280704  1
  La  La69  1  0.33809493  0.51726859  0.63110305  1
  La  La70  1  0.66588426  0.15383719  0.87159744  1
  La  La71  1  0.82361519  0.35345610  0.62367522  1
  In  In72  1  0.16554824  0.16427045  0.50106700  1
  In  In73  1  0.83416822  0.16493163  0.49974593  1
  In  In74  1  0.16496146  0.16660650  0.25099421  1
  In  In75  1  0.83456975  0.83578784  0.50135238  1
  In  In76  1  -0.00193264  0.32902419  0.74595621  1
  In  In77  1  0.50284263  0.83399666  -0.00191930  1
  In  In78  1  0.66861770  0.00061912  -0.00165297  1
  In  In79  1  0.66623169  0.33102851  -0.00127627  1
  In  In80  1  0.00097181  -0.00350549  -0.00352373  1
  In  In81  1  0.83226178  0.83287727  0.00144673  1
  In  In82  1  0.50142176  0.16562276  0.74889875  1
  In  In83  1  0.83432396  0.50095102  0.00696703  1
  In  In84  1  0.66474321  0.66823988  0.00447366  1
  In  In85  1  -0.00095581  0.32920012  0.50116694  1
  In  In86  1  0.33333055  0.33421340  0.25016849  1
  In  In87  1  0.49949840  0.83803294  0.50269037  1
  In  In88  1  0.66723526  0.66413218  0.24931683  1
  In  In89  1  0.33405653  -0.00051181  0.24649956  1
  In  In90  1  0.16585919  0.83316234  0.00010091  1
  In  In91  1  0.50195103  0.50206786  0.24990837  1
  In  In92  1  0.33203183  0.66803400  0.25084637  1
  In  In93  1  0.50432102  0.16576214  0.24805667  1
  In  In94  1  0.16428426  0.83088639  0.49706330  1
  In  In95  1  0.33126356  0.66957523  0.50102178  1
  In  In96  1  0.83412630  0.83467597  0.75038531  1
  In  In97  1  0.66693960  0.66742207  0.50241060  1
  In  In98  1  0.16557299  0.49993857  0.75087805  1
  In  In99  1  0.16551999  0.16741433  -0.00658619  1
  In  In100  1  0.33396014  0.00208260  0.49541903  1
  In  In101  1  -0.00208197  -0.00072805  0.50120835  1
  In  In102  1  0.49789549  0.49973029  0.50576153  1
  In  In103  1  0.33254520  0.66428529  -0.00006339  1
  In  In104  1  0.33374235  0.33326374  -0.00639189  1
  In  In105  1  0.16761015  0.16383818  0.74644790  1
  In  In106  1  -0.00219429  0.33342758  0.24652142  1
  In  In107  1  -0.00195077  0.66182833  0.50189964  1
  Ir  Ir108  1  0.67120696  0.33114286  0.74964938  1
  Ir  Ir109  1  0.33600022  0.00161984  -0.01002793  1
  Ir  Ir110  1  -0.00290498  0.66455645  -0.00048250  1
  Ir  Ir111  1  0.83581928  0.49822362  0.25449294  1
  Ir  Ir112  1  0.50631165  0.83782679  0.24804690  1
  Ir  Ir113  1  0.49913148  0.16511511  -0.00796246  1
  Ir  Ir114  1  0.50013647  0.83756692  0.75392557  1
  Ir  Ir115  1  0.15703482  0.49976836  0.00227974  1
  Ir  Ir116  1  0.00091209  -0.00386546  0.24833447  1
  Ir  Ir117  1  -0.00451815  0.33424977  -0.00175865  1
  Ir  Ir118  1  0.33695824  -0.00030371  0.75262143  1
  Ir  Ir119  1  0.83378270  0.50260720  0.74947377  1
  Ir  Ir120  1  0.16138300  0.83619198  0.75382730  1
  Ir  Ir121  1  -0.00389158  -0.00281224  0.75268137  1
  Ir  Ir122  1  0.49796727  0.50014487  0.75488880  1
  Ir  Ir123  1  0.67008853  0.33243758  0.50181236  1
  Ir  Ir124  1  -0.00082226  0.66759603  0.25002151  1
  Ir  Ir125  1  0.15955699  0.50302288  0.25062295  1
  Ir  Ir126  1  0.66683270  0.00301937  0.74570124  1
  Ir  Ir127  1  0.33432927  0.67028135  0.75317176  1
  Ir  Ir128  1  0.66500603  0.66883180  0.75507445  1
  Ir  Ir129  1  0.67107777  -0.00278276  0.25459807  1
  Ir  Ir130  1  0.67499707  0.33272080  0.25220741  1
  Ir  Ir131  1  -0.00285175  0.66671847  0.75639133  1
  Ir  Ir132  1  0.50098381  0.49915462  -0.00366591  1
  Ir  Ir133  1  0.83313284  0.16231170  0.75193755  1
  Ir  Ir134  1  0.15846790  0.83328823  0.25066854  1
  Ir  Ir135  1  0.66294199  0.00417348  0.50368925  1
  Ir  Ir136  1  0.82990108  0.49690843  0.49731303  1
  Ir  Ir137  1  0.50317523  0.16805129  0.50371118  1
  Ir  Ir138  1  0.83752657  0.83430574  0.25020879  1
  Ir  Ir139  1  0.16721684  0.49614855  0.50126200  1
  Ir  Ir140  1  0.33219199  0.33233483  0.50756707  1
  Ir  Ir141  1  0.83352284  0.16912744  -0.00663927  1
  Ir  Ir142  1  0.83432050  0.16339470  0.24691373  1
  Ir  Ir143  1  0.33769845  0.33401562  0.74970324  1
  O  O144  1  0.31869785  0.33394181  0.11908149  1
  O  O145  1  0.30397782  0.32062596  0.63049361  1
  O  O146  1  0.31791381  0.66827762  0.12596448  1
  O  O147  1  0.31283170  0.66597724  0.63387334  1
  O  O148  1  0.30179685  0.99696766  0.11005291  1
  O  O149  1  0.32179014  0.99549239  0.63235423  1
  O  O150  1  0.65689426  0.32974477  0.13110871  1
  O  O151  1  0.65284660  0.32251897  0.62652755  1
  O  O152  1  0.62776706  0.66472182  0.12729798  1
  O  O153  1  0.64729675  0.66609580  0.63511560  1
  O  O154  1  0.65232930  0.98623911  0.13111214  1
  O  O155  1  0.62976354  0.99931441  0.62395446  1
  O  O156  1  0.96397898  0.33186424  0.11797568  1
  O  O157  1  0.95623712  0.31662833  0.62443671  1
  O  O158  1  0.97653092  0.65222042  0.12352994  1
  O  O159  1  0.97938371  0.66212999  0.63599804  1
  O  O160  1  0.97846401  0.98284524  0.12809804  1
  O  O161  1  0.96177340  0.98137122  0.63707718  1
  O  O162  1  0.18502127  0.15149762  0.11990670  1
  O  O163  1  0.20724910  0.15353675  0.62683653  1
  O  O164  1  0.18172394  0.50423951  0.12689962  1
  O  O165  1  0.19702031  0.49277289  0.62084867  1
  O  O166  1  0.18089801  0.82737214  0.13205255  1
  O  O167  1  0.17976991  0.83049079  0.63512592  1
  O  O168  1  0.52200662  0.16421648  0.11124371  1
  O  O169  1  0.53145406  0.15673749  0.62354614  1
  O  O170  1  0.51903061  0.49341582  0.11506339  1
  O  O171  1  0.51791630  0.49946454  0.63682225  1
  O  O172  1  0.53528119  0.82753097  0.12658369  1
  O  O173  1  0.51760091  0.83807227  0.63496163  1
  O  O174  1  0.85365894  0.17206865  0.11683086  1
  O  O175  1  0.86314242  0.15335870  0.63404305  1
  O  O176  1  0.86774914  0.49171299  0.13499813  1
  O  O177  1  0.85134394  0.49257563  0.62270986  1
  O  O178  1  0.86940960  0.83180112  0.13033235  1
  O  O179  1  0.86901784  0.83263838  0.62906917  1
  O  O180  1  0.12652882  0.16904709  0.37630528  1
  O  O181  1  0.13053595  0.16818209  0.86816296  1
  O  O182  1  0.13296956  0.50461683  0.37460471  1
  O  O183  1  0.13021322  0.49764773  0.88126995  1
  O  O184  1  0.12742148  0.84793594  0.36694839  1
  O  O185  1  0.13169728  0.84757263  0.87293584  1
  O  O186  1  0.49018889  0.16776387  0.38489672  1
  O  O187  1  0.47169628  0.17525123  0.87311432  1
  O  O188  1  0.48781409  0.49441795  0.37949516  1
  O  O189  1  0.47777986  0.51060420  0.87497565  1
  O  O190  1  0.48623262  0.85005568  0.36800015  1
  O  O191  1  0.46865924  0.84758367  0.87116828  1
  O  O192  1  0.81875073  0.16052565  0.36771770  1
  O  O193  1  0.80133207  0.16954528  0.87203921  1
  O  O194  1  0.79814220  0.49836006  0.37563289  1
  O  O195  1  0.82214847  0.50679117  0.87117926  1
  O  O196  1  0.80299192  0.83631822  0.36728627  1
  O  O197  1  0.79904286  0.84637544  0.87330270  1
  O  O198  1  0.02888405  0.01285384  0.36860014  1
  O  O199  1  0.03377427  0.01103855  0.86781396  1
  O  O200  1  0.01533190  0.34911546  0.37593202  1
  O  O201  1  0.01469890  0.34620687  0.87614175  1
  O  O202  1  0.03159560  0.67448191  0.36870686  1
  O  O203  1  0.02198556  0.67697914  0.87881843  1
  O  O204  1  0.37034879  0.00028255  0.37121336  1
  O  O205  1  0.37097113  0.01181893  0.87085834  1
  O  O206  1  0.34977759  0.33799038  0.38883930  1
  O  O207  1  0.37059547  0.34161355  0.86689972  1
  O  O208  1  0.35060892  0.66347680  0.37390129  1
  O  O209  1  0.36319599  0.67209983  0.87246012  1
  O  O210  1  0.68902378  0.00523493  0.38085954  1
  O  O211  1  0.69718126  0.01542934  0.86419440  1
  O  O212  1  0.69056418  0.34729414  0.37872729  1
  O  O213  1  0.68538839  0.33081713  0.86857397  1
  O  O214  1  0.68400152  0.68363718  0.37347928  1
  O  O215  1  0.69659851  0.67639331  0.87354921  1
  O  O216  1  0.07506049  0.08834596  0.01365001  1
  O  O217  1  0.06366271  0.09762243  0.53056549  1
  O  O218  1  0.05731282  0.43383466  0.02186920  1
  O  O219  1  0.07880588  0.42586718  0.52096269  1
  O  O220  1  0.05902321  0.76360330  0.01643490  1
  O  O221  1  0.06469627  0.76254399  0.52069400  1
  O  O222  1  0.40122076  0.10010297  0.00686757  1
  O  O223  1  0.40823928  0.10435071  0.52787584  1
  O  O224  1  0.41113024  0.43178770  0.00716275  1
  O  O225  1  0.39509025  0.42523834  0.53173819  1
  O  O226  1  0.41466155  0.75584184  0.01881401  1
  O  O227  1  0.40463150  0.76509070  0.51341078  1
  O  O228  1  0.73724757  0.10486468  0.00337269  1
  O  O229  1  0.72922618  0.09762170  0.53031739  1
  O  O230  1  0.74518705  0.42137096  0.01864189  1
  O  O231  1  0.73759807  0.42688179  0.52196794  1
  O  O232  1  0.72796147  0.77461686  0.02716983  1
  O  O233  1  0.74049210  0.76434082  0.51371101  1
  O  O234  1  0.08636838  0.26780854  0.01184173  1
  O  O235  1  0.09674754  0.26205781  0.53525337  1
  O  O236  1  0.08724172  0.59174169  0.02278914  1
  O  O237  1  0.09814957  0.58822972  0.50994900  1
  O  O238  1  0.10354871  0.93186261  0.02352374  1
  O  O239  1  0.08734363  0.92234635  0.52174134  1
  O  O240  1  0.43665299  0.25944515  0.00445132  1
  O  O241  1  0.42983738  0.26207424  0.52703608  1
  O  O242  1  0.43767861  0.59570503  0.01420844  1
  O  O243  1  0.41491227  0.58523305  0.52891539  1
  O  O244  1  0.42617109  0.93412258  0.00924289  1
  O  O245  1  0.43956090  0.94236918  0.51575108  1
  O  O246  1  0.76924297  0.26269123  0.01487156  1
  O  O247  1  0.76446222  0.26356974  0.52441999  1
  O  O248  1  0.76475314  0.59890831  0.00787728  1
  O  O249  1  0.76304377  0.58684226  0.51357135  1
  O  O250  1  0.77116001  0.93928701  0.00628001  1
  O  O251  1  0.75879157  0.94090161  0.52644553  1
  O  O252  1  0.23007203  0.06200760  0.26723952  1
  O  O253  1  0.24364699  0.06556971  0.78016319  1
  O  O254  1  0.23310157  0.41802737  0.26538417  1
  O  O255  1  0.24827488  0.40403528  0.76345402  1
  O  O256  1  0.22346128  0.74145342  0.27687139  1
  O  O257  1  0.24427548  0.74819833  0.78063098  1
  O  O258  1  0.57734589  0.06508494  0.27108543  1
  O  O259  1  0.57348799  0.06786242  0.77375136  1
  O  O260  1  0.59216527  0.40871684  0.26670480  1
  O  O261  1  0.56961460  0.40318336  0.77665526  1
  O  O262  1  0.57987092  0.75492768  0.26985659  1
  O  O263  1  0.56874886  0.73934467  0.77968082  1
  O  O264  1  0.91213399  0.07223516  0.26967938  1
  O  O265  1  0.89992164  0.06596421  0.78017258  1
  O  O266  1  0.90941341  0.41586630  0.27676061  1
  O  O267  1  0.90931474  0.41614424  0.76119760  1
  O  O268  1  0.91092185  0.74332270  0.27617480  1
  O  O269  1  0.90563260  0.73504805  0.78252335  1
  O  O270  1  0.25702237  0.24312198  0.26654315  1
  O  O271  1  0.27372955  0.23785107  0.77158430  1
  O  O272  1  0.24428608  0.57790449  0.27241869  1
  O  O273  1  0.26149042  0.57848433  0.76174149  1
  O  O274  1  0.24756928  0.90437858  0.26993166  1
  O  O275  1  0.26179185  0.90634106  0.78066060  1
  O  O276  1  0.60112922  0.24591889  0.26570685  1
  O  O277  1  0.60157646  0.23734239  0.76913047  1
  O  O278  1  0.60188083  0.56647465  0.27859436  1
  O  O279  1  0.58708817  0.57847219  0.78026165  1
  O  O280  1  0.60311279  0.90484840  0.27588765  1
  O  O281  1  0.59925758  0.90503146  0.77812629  1
  O  O282  1  0.92506792  0.23227860  0.26730425  1
  O  O283  1  0.92944334  0.22503724  0.77480810  1
  O  O284  1  0.93163749  0.56906815  0.27708887  1
  O  O285  1  0.92786395  0.57329127  0.78124735  1
  O  O286  1  0.93542672  0.89961476  0.27359807  1
  O  O287  1  0.93012138  0.90856313  0.78914675  1
  O  O288  1  0.26868512  0.23863522  0.49322308  1
  O  O289  1  0.26487866  0.23497339  0.96658286  1
  O  O290  1  0.25170696  0.56851503  0.48479485  1
  O  O291  1  0.24864032  0.57117832  0.98655111  1
  O  O292  1  0.25529704  0.90879399  0.47911644  1
  O  O293  1  0.26781990  0.91090460  0.96413578  1
  O  O294  1  0.60458624  0.23371245  0.49430242  1
  O  O295  1  0.59363079  0.23183543  0.96803710  1
  O  O296  1  0.59638559  0.57065804  0.48463114  1
  O  O297  1  0.58910184  0.56954820  0.97874191  1
  O  O298  1  0.60081136  0.91240425  0.47552797  1
  O  O299  1  0.59647637  0.90755176  0.96505931  1
  O  O300  1  0.93853656  0.22356493  0.47636027  1
  O  O301  1  0.93355986  0.23433425  0.97196625  1
  O  O302  1  0.92625271  0.56156129  0.47640670  1
  O  O303  1  0.93505950  0.56903263  0.97905492  1
  O  O304  1  0.93271699  0.89930364  0.47160499  1
  O  O305  1  0.93516023  0.89758952  0.97378315  1
  O  O306  1  0.23429997  0.06765210  0.46748619  1
  O  O307  1  0.24474694  0.06788848  0.96270257  1
  O  O308  1  0.23296497  0.39504838  0.49569007  1
  O  O309  1  0.22932373  0.41285918  0.98411440  1
  O  O310  1  0.22769113  0.73054772  0.47663118  1
  O  O311  1  0.24758597  0.75008837  0.97495715  1
  O  O312  1  0.56349187  0.06719749  0.48286203  1
  O  O313  1  0.56870281  0.07254908  0.96778815  1
  O  O314  1  0.58125493  0.40471938  0.48916069  1
  O  O315  1  0.56607031  0.40232329  0.97535441  1
  O  O316  1  0.57841220  0.75055221  0.48420255  1
  O  O317  1  0.57267277  0.73827324  0.96147819  1
  O  O318  1  0.89481679  0.06171302  0.49826682  1
  O  O319  1  0.90159161  0.07441034  0.96900442  1
  O  O320  1  0.90010516  0.40737217  0.48911988  1
  O  O321  1  0.90837403  0.40510832  0.98105707  1
  O  O322  1  0.90948820  0.73914127  0.47760403  1
  O  O323  1  0.90205608  0.72948058  0.97312146  1
  O  O324  1  0.08735689  0.25808470  0.23049971  1
  O  O325  1  0.09271011  0.25590573  0.71515576  1
  O  O326  1  0.08583959  0.59303670  0.22942536  1
  O  O327  1  0.08651628  0.59496384  0.74040245  1
  O  O328  1  0.09354083  0.92894781  0.22105924  1
  O  O329  1  0.08632267  0.92542490  0.72585265  1
  O  O330  1  0.42817761  0.25647446  0.24309435  1
  O  O331  1  0.42560849  0.26194828  0.73127929  1
  O  O332  1  0.43473658  0.60122275  0.22554508  1
  O  O333  1  0.42347627  0.59215618  0.73058922  1
  O  O334  1  0.43151494  0.92088973  0.22747487  1
  O  O335  1  0.43918318  0.93846964  0.73377705  1
  O  O336  1  0.76896476  0.26010342  0.22707455  1
  O  O337  1  0.76601317  0.25883563  0.72096198  1
  O  O338  1  0.76553547  0.58483583  0.23185638  1
  O  O339  1  0.76266756  0.59941007  0.74210167  1
  O  O340  1  0.76303242  0.92156850  0.22528869  1
  O  O341  1  0.76254616  0.93979231  0.72740191  1
  O  O342  1  0.06986745  0.08253378  0.22440940  1
  O  O343  1  0.05869625  0.09066744  0.72370515  1
  O  O344  1  0.06757033  0.43608939  0.22904390  1
  O  O345  1  0.08278077  0.41580415  0.72426939  1
  O  O346  1  0.06141312  0.76659947  0.22691188  1
  O  O347  1  0.06057939  0.76875902  0.73613378  1
  O  O348  1  0.41151214  0.08995700  0.22962501  1
  O  O349  1  0.40223988  0.09409123  0.72618538  1
  O  O350  1  0.41102158  0.42508662  0.23968164  1
  O  O351  1  0.40214428  0.43220129  0.72636085  1
  O  O352  1  0.41987666  0.76382675  0.22805530  1
  O  O353  1  0.40248717  0.76985622  0.74293600  1
  O  O354  1  0.74117417  0.09008134  0.23278773  1
  O  O355  1  0.73264754  0.09936275  0.72183208  1
  O  O356  1  0.75561656  0.41782311  0.22402730  1
  O  O357  1  0.74604918  0.42309424  0.72664078  1
  O  O358  1  0.74496489  0.76583947  0.22698448  1
  O  O359  1  0.73341102  0.76086468  0.73938558  1
