# generated using pymatgen
data_BaLaInIrO6
_symmetry_space_group_name_H-M   'P 1'
_cell_length_a   17.54009390
_cell_length_b   17.56841074
_cell_length_c   16.51110337
_cell_angle_alpha   90.03346026
_cell_angle_beta   90.00748060
_cell_angle_gamma   89.93643026
_symmetry_Int_Tables_number   1
_chemical_formula_structural   BaLaInIrO6
_chemical_formula_sum   'Ba36 La36 In36 Ir36 O216'
_cell_volume   5087.91844951
_cell_formula_units_Z   36
loop_
 _symmetry_equiv_pos_site_id
 _symmetry_equiv_pos_as_xyz
  1  'x, y, z'
loop_
 _atom_site_type_symbol
 _atom_site_label
 _atom_site_symmetry_multiplicity
 _atom_site_fract_x
 _atom_site_fract_y
 _atom_site_fract_z
 _atom_site_occupancy
  Ba  Ba0  1  -0.00317205  0.82243167  0.37532849  1
  Ba  Ba1  1  0.83240755  0.33881394  0.12572556  1
  Ba  Ba2  1  1.00514287  0.84486618  0.62585121  1
  Ba  Ba3  1  0.50001309  0.00683147  0.62749507  1
  Ba  Ba4  1  0.66900391  0.17517582  0.12278390  1
  Ba  Ba5  1  0.83881050  0.65758475  0.87469765  1
  Ba  Ba6  1  0.33219924  0.84348477  0.12307055  1
  Ba  Ba7  1  -0.00061822  0.48406162  0.37270000  1
  Ba  Ba8  1  0.32950013  0.15533407  0.87482841  1
  Ba  Ba9  1  0.67125377  0.50782939  0.62440111  1
  Ba  Ba10  1  0.33097668  0.15812551  0.37441217  1
  Ba  Ba11  1  0.50077021  0.98944476  0.87629040  1
  Ba  Ba12  1  0.50235391  0.65781311  0.87305749  1
  Ba  Ba13  1  0.16181101  0.34450269  0.12854552  1
  Ba  Ba14  1  0.50360438  0.32609766  0.87429279  1
  Ba  Ba15  1  0.66308461  0.15733690  0.37300638  1
  Ba  Ba16  1  0.16016943  0.01352378  0.62405657  1
  Ba  Ba17  1  0.66386057  0.49048877  0.37421985  1
  Ba  Ba18  1  0.83660116  0.34213257  0.62490326  1
  Ba  Ba19  1  0.83109856  0.00781695  0.62219720  1
  Ba  Ba20  1  0.49331865  0.67814941  0.12921342  1
  Ba  Ba21  1  0.17286774  0.31515251  0.37014080  1
  Ba  Ba22  1  0.66735532  0.82472147  0.37628596  1
  Ba  Ba23  1  0.32951163  0.48877199  0.36954172  1
  Ba  Ba24  1  0.32976165  0.50904425  0.12875426  1
  Ba  Ba25  1  1.00297594  0.84692459  0.12870588  1
  Ba  Ba26  1  0.83283983  0.32466576  0.87100839  1
  Ba  Ba27  1  0.16791211  0.67717785  0.12653029  1
  Ba  Ba28  1  0.66323396  0.82042957  0.87259223  1
  Ba  Ba29  1  0.49878013  0.32396933  0.37226257  1
  Ba  Ba30  1  0.33538881  0.84579061  0.62986135  1
  Ba  Ba31  1  0.17115179  0.32207535  0.87488434  1
  Ba  Ba32  1  1.00450171  0.17918842  0.62375971  1
  Ba  Ba33  1  0.49995472  0.66059750  0.37800821  1
  Ba  Ba34  1  0.16880341  0.66365292  0.87684727  1
  Ba  Ba35  1  0.99918650  0.17723265  0.12744007  1
  La  La36  1  0.50293391  0.98644734  0.37269601  1
  La  La37  1  0.50284583  0.68344989  0.62619251  1
  La  La38  1  0.33109985  0.18008499  0.62530688  1
  La  La39  1  0.33778429  0.18196338  0.12563580  1
  La  La40  1  0.83689278  0.98297779  0.37504382  1
  La  La41  1  0.66970108  0.84595102  0.12887805  1
  La  La42  1  0.32911321  0.81944562  0.37056801  1
  La  La43  1  0.15782740  0.68065337  0.61917926  1
  La  La44  1  0.00188119  0.15888820  0.87316411  1
  La  La45  1  0.67342959  0.18362059  0.62436072  1
  La  La46  1  0.32894410  0.48558064  0.88101748  1
  La  La47  1  0.66322308  0.51361694  0.12599820  1
  La  La48  1  0.50169359  0.34637198  0.61989758  1
  La  La49  1  1.00627588  0.50709937  0.62446595  1
  La  La50  1  0.67401085  0.50033041  0.87322950  1
  La  La51  1  0.84073990  0.98982291  0.87535476  1
  La  La52  1  0.16054696  0.34271871  0.61969808  1
  La  La53  1  -0.00170485  0.15387176  0.37553385  1
  La  La54  1  0.16348627  0.99436630  0.37436433  1
  La  La55  1  0.82505629  0.01698749  0.13397059  1
  La  La56  1  1.00928090  0.51292474  0.12513846  1
  La  La57  1  0.49838448  0.01196510  0.12224799  1
  La  La58  1  0.33648489  0.51274270  0.62561242  1
  La  La59  1  0.83776375  0.64941673  0.37344234  1
  La  La60  1  0.33384581  0.82477742  0.87762099  1
  La  La61  1  0.82977063  0.68038986  0.13010337  1
  La  La62  1  0.17377846  0.65056356  0.36985356  1
  La  La63  1  0.83750350  0.31344667  0.37802179  1
  La  La64  1  0.49756999  0.35031088  0.12552935  1
  La  La65  1  0.16427502  0.01768450  0.12515197  1
  La  La66  1  0.66970071  0.84280505  0.62644574  1
  La  La67  1  -0.00637623  0.81883168  0.87789705  1
  La  La68  1  -0.00649209  0.48026107  0.87798068  1
  La  La69  1  0.16805186  0.99024160  0.87311193  1
  La  La70  1  0.65939685  0.15250177  0.87210018  1
  La  La71  1  0.83114957  0.67975882  0.62071540  1
  In  In72  1  0.16876456  0.50087095  0.75107891  1
  In  In73  1  0.49707381  0.83468967  0.49824911  1
  In  In74  1  0.16445867  0.50322424  -0.00146012  1
  In  In75  1  0.66754471  0.33683446  0.75154696  1
  In  In76  1  0.83586051  0.50181895  0.00643270  1
  In  In77  1  0.66509907  0.00112399  0.49621581  1
  In  In78  1  0.00170111  0.00280353  0.00136839  1
  In  In79  1  -0.00067357  0.66382074  0.49645464  1
  In  In80  1  0.66871893  -0.00226625  0.00149824  1
  In  In81  1  0.50018521  0.16526741  0.50084268  1
  In  In82  1  0.66587493  0.33576991  0.00052713  1
  In  In83  1  0.66683060  0.33399435  0.49634017  1
  In  In84  1  0.16750318  0.83496582  0.75112958  1
  In  In85  1  0.33488015  0.00053097  0.25055286  1
  In  In86  1  0.33123714  0.33397004  0.50000091  1
  In  In87  1  0.49981686  0.50030432  -0.00364792  1
  In  In88  1  0.83402571  0.83255861  0.75147091  1
  In  In89  1  0.83617062  0.49781813  0.49960599  1
  In  In90  1  0.32991283  0.66645117  0.50281206  1
  In  In91  1  0.00080204  0.66185391  0.74846682  1
  In  In92  1  0.83323634  0.83574809  0.00576640  1
  In  In93  1  0.00052241  0.33100382  0.00167989  1
  In  In94  1  0.66906347  -0.00065590  0.74892998  1
  In  In95  1  0.16703866  0.83603316  0.49676183  1
  In  In96  1  0.33327464  0.66607208  0.75207520  1
  In  In97  1  0.50047196  0.50179299  0.25456114  1
  In  In98  1  0.49902111  0.16779946  -0.00218188  1
  In  In99  1  0.66739706  0.66846055  0.00207602  1
  In  In100  1  0.00135311  0.00362917  0.75017894  1
  In  In101  1  0.66798707  0.66652259  0.49856612  1
  In  In102  1  0.83305162  0.16697017  -0.00460166  1
  In  In103  1  0.50134217  0.16772200  0.74774508  1
  In  In104  1  0.16520249  0.83700867  0.25069945  1
  In  In105  1  0.33384312  0.33428347  0.74786022  1
  In  In106  1  0.16471566  0.83720052  0.00119693  1
  In  In107  1  0.83300767  0.49381988  0.24827216  1
  Ir  Ir108  1  0.66705984  0.66261549  0.74658466  1
  Ir  Ir109  1  0.50126731  0.83567201  0.24699046  1
  Ir  Ir110  1  0.83370888  0.83245370  0.25272538  1
  Ir  Ir111  1  0.33293530  0.66958226  0.25000427  1
  Ir  Ir112  1  0.33269090  0.32946119  0.24514412  1
  Ir  Ir113  1  0.16427013  0.16325379  0.24961453  1
  Ir  Ir114  1  0.16269850  0.50016374  0.25178917  1
  Ir  Ir115  1  0.49860219  0.50193943  0.74364837  1
  Ir  Ir116  1  0.83515386  0.16515127  0.50143807  1
  Ir  Ir117  1  -0.00084750  0.32722200  0.25678854  1
  Ir  Ir118  1  0.83209711  0.16717501  0.74646067  1
  Ir  Ir119  1  -0.00237498  0.00384808  0.49570152  1
  Ir  Ir120  1  0.33028557  0.00059499  -0.00164369  1
  Ir  Ir121  1  0.16733134  0.16770159  0.74993886  1
  Ir  Ir122  1  0.50086228  0.83135097  0.75179083  1
  Ir  Ir123  1  0.16544405  0.16223964  0.49870970  1
  Ir  Ir124  1  0.00309651  0.33275732  0.74420338  1
  Ir  Ir125  1  0.49972621  0.16561570  0.24674782  1
  Ir  Ir126  1  0.33702410  0.66969989  0.00096962  1
  Ir  Ir127  1  0.49780923  0.50158258  0.50558510  1
  Ir  Ir128  1  0.49932477  0.83331381  0.00149688  1
  Ir  Ir129  1  -0.00429541  0.00456118  0.25119489  1
  Ir  Ir130  1  0.17076181  0.16681294  0.00119062  1
  Ir  Ir131  1  -0.00153777  0.66712311  0.00307213  1
  Ir  Ir132  1  0.66493045  0.33015885  0.24812462  1
  Ir  Ir133  1  -0.00048941  0.66533196  0.25035196  1
  Ir  Ir134  1  0.66469973  -0.00236636  0.25115248  1
  Ir  Ir135  1  0.83963392  0.50069212  0.74917122  1
  Ir  Ir136  1  0.00350342  0.32870814  0.49748762  1
  Ir  Ir137  1  0.33068663  0.00194827  0.75117079  1
  Ir  Ir138  1  0.16810698  0.49645237  0.49908326  1
  Ir  Ir139  1  0.33303836  0.33312191  0.00469207  1
  Ir  Ir140  1  0.33254448  0.00252698  0.50151322  1
  Ir  Ir141  1  0.83412120  0.83371845  0.49786676  1
  Ir  Ir142  1  0.66784989  0.66995150  0.24862484  1
  Ir  Ir143  1  0.83109301  0.16403820  0.25710732  1
  O  O144  1  0.31028152  0.32594416  0.12477248  1
  O  O145  1  0.29536367  0.32555796  0.62340692  1
  O  O146  1  0.31671252  0.66735004  0.12406551  1
  O  O147  1  0.29309741  0.65340277  0.62701426  1
  O  O148  1  0.30033193  0.99693789  0.11792363  1
  O  O149  1  0.30589360  0.99690606  0.62563136  1
  O  O150  1  0.63406720  0.32626491  0.13171409  1
  O  O151  1  0.63955023  0.32373268  0.62611713  1
  O  O152  1  0.64299949  0.65787598  0.13158190  1
  O  O153  1  0.63833879  0.66296281  0.62878338  1
  O  O154  1  0.63341776  0.98808106  0.13368921  1
  O  O155  1  0.64942538  0.98093284  0.62145854  1
  O  O156  1  0.98274308  0.33062449  0.13673927  1
  O  O157  1  0.98440205  0.33670106  0.61890598  1
  O  O158  1  0.96778676  0.65522042  0.12685846  1
  O  O159  1  0.96510480  0.64942518  0.62260732  1
  O  O160  1  0.96443490  1.00513229  0.13174278  1
  O  O161  1  0.98132893  1.00336597  0.61695017  1
  O  O162  1  0.19832892  0.15503386  0.12463823  1
  O  O163  1  0.19529778  0.16520165  0.62523708  1
  O  O164  1  0.17781100  0.50164911  0.13080189  1
  O  O165  1  0.19908113  0.48350414  0.61789311  1
  O  O166  1  0.18131682  0.83604598  0.12672269  1
  O  O167  1  0.18713401  0.82272353  0.62189432  1
  O  O168  1  0.51890822  0.15317158  0.12862052  1
  O  O169  1  0.53969046  0.15886317  0.62501148  1
  O  O170  1  0.52531115  0.49561537  0.12848551  1
  O  O171  1  0.52323227  0.49205042  0.62431020  1
  O  O172  1  0.53187614  0.83363289  0.12421696  1
  O  O173  1  0.52987975  0.82743211  0.63134330  1
  O  O174  1  0.85112707  0.15733664  0.13661444  1
  O  O175  1  0.85827819  0.16399673  0.62245956  1
  O  O176  1  0.87523276  0.49331125  0.13037801  1
  O  O177  1  0.86999961  0.49826326  0.62941622  1
  O  O178  1  0.85742856  0.81984173  0.13569527  1
  O  O179  1  0.85692449  0.82287308  0.61692264  1
  O  O180  1  0.13585574  0.15926924  0.37407435  1
  O  O181  1  0.13966212  0.16930487  0.87606991  1
  O  O182  1  0.14478391  0.51334826  0.37598116  1
  O  O183  1  0.12913391  0.50604033  0.87423307  1
  O  O184  1  0.14264575  0.85719997  0.37292636  1
  O  O185  1  0.12847518  0.84588134  0.87827205  1
  O  O186  1  0.47937008  0.16977220  0.36495061  1
  O  O187  1  0.47555628  0.17069460  0.87331542  1
  O  O188  1  0.48002322  0.50079822  0.38484396  1
  O  O189  1  0.46728427  0.50090862  0.86391915  1
  O  O190  1  0.46613532  0.84268475  0.36658410  1
  O  O191  1  0.47007048  0.83220988  0.87707618  1
  O  O192  1  0.81188508  0.17559516  0.38055402  1
  O  O193  1  0.79863740  0.16645131  0.86305740  1
  O  O194  1  0.81209305  0.51295784  0.37041753  1
  O  O195  1  0.80966178  0.50532252  0.87000585  1
  O  O196  1  0.81473874  0.84522533  0.37408563  1
  O  O197  1  0.81122791  0.84551042  0.87942888  1
  O  O198  1  0.02633769  0.01072095  0.37276584  1
  O  O199  1  0.03422205  0.02097775  0.87593476  1
  O  O200  1  0.02379319  0.31839890  0.37730320  1
  O  O201  1  0.02155137  0.33831726  0.86430235  1
  O  O202  1  0.03434947  0.66672060  0.36784432  1
  O  O203  1  0.01701234  0.67886624  0.88199519  1
  O  O204  1  0.36500608  0.00819906  0.38190502  1
  O  O205  1  0.35540362  0.00471377  0.87512349  1
  O  O206  1  0.34596319  0.32685521  0.36732702  1
  O  O207  1  0.35228934  0.33916322  0.88374269  1
  O  O208  1  0.35023840  0.67424758  0.37028134  1
  O  O209  1  0.35536649  0.67840324  0.88325848  1
  O  O210  1  0.69983013  0.00103843  0.36861520  1
  O  O211  1  0.70481324  0.00548207  0.87574493  1
  O  O212  1  0.69777760  0.33511605  0.36640112  1
  O  O213  1  0.68152843  0.36606840  0.87434091  1
  O  O214  1  0.69988403  0.67054344  0.36777475  1
  O  O215  1  0.68704584  0.66144874  0.86815730  1
  O  O216  1  0.08142259  0.10070695  0.02111754  1
  O  O217  1  0.06579263  0.09901303  0.50616187  1
  O  O218  1  0.06658028  0.43201590  0.01922943  1
  O  O219  1  0.07272902  0.42579253  0.52397403  1
  O  O220  1  0.06359349  0.76140765  0.01372729  1
  O  O221  1  0.07567609  0.75312395  0.51973890  1
  O  O222  1  0.39799493  0.09088819  0.02769511  1
  O  O223  1  0.39253223  0.09785345  0.52621431  1
  O  O224  1  0.40080255  0.42395257  0.01903263  1
  O  O225  1  0.40455983  0.43268347  0.52873413  1
  O  O226  1  0.40438978  0.76709279  0.01404352  1
  O  O227  1  0.40860651  0.75615981  0.52152030  1
  O  O228  1  0.74963409  0.08513483  0.02651110  1
  O  O229  1  0.73931929  0.10107646  0.52251366  1
  O  O230  1  0.73024103  0.44100749  0.02619318  1
  O  O231  1  0.74332989  0.42427583  0.51420569  1
  O  O232  1  0.73563942  0.76425439  0.03226386  1
  O  O233  1  0.74201887  0.76797338  0.52536453  1
  O  O234  1  0.10286850  0.25806900  0.01404105  1
  O  O235  1  0.10172875  0.26211255  0.52013779  1
  O  O236  1  0.08839246  0.59959557  0.02136840  1
  O  O237  1  0.09855507  0.58541279  0.52580889  1
  O  O238  1  0.10275011  0.94150457  0.02454791  1
  O  O239  1  0.08878716  0.93547590  0.50904728  1
  O  O240  1  0.42410948  0.26354016  0.03230316  1
  O  O241  1  0.42572077  0.26164320  0.52859092  1
  O  O242  1  0.42390767  0.59513539  0.01494186  1
  O  O243  1  0.42816109  0.59228900  0.53157730  1
  O  O244  1  0.42907929  0.93373730  0.02300833  1
  O  O245  1  0.42225626  0.93451015  0.51624589  1
  O  O246  1  0.76253748  0.26288437  0.01226121  1
  O  O247  1  0.76587910  0.25472582  0.51781564  1
  O  O248  1  0.76935846  0.60199791  0.02940976  1
  O  O249  1  0.76867432  0.60302763  0.52100068  1
  O  O250  1  0.76046535  0.92673381  0.04359275  1
  O  O251  1  0.76422613  0.92317240  0.50973172  1
  O  O252  1  0.22765885  0.06656797  0.26642568  1
  O  O253  1  0.23188056  0.06812602  0.77262868  1
  O  O254  1  0.23774332  0.40761309  0.26661320  1
  O  O255  1  0.24767522  0.41241572  0.77654550  1
  O  O256  1  0.24147341  0.73938094  0.27459078  1
  O  O257  1  0.25413759  0.75361175  0.77962049  1
  O  O258  1  0.56524277  0.06504119  0.27033025  1
  O  O259  1  0.58076847  0.07576674  0.77719171  1
  O  O260  1  0.57523318  0.40037300  0.26279160  1
  O  O261  1  0.56317212  0.40996362  0.75483954  1
  O  O262  1  0.57438644  0.74269663  0.26879595  1
  O  O263  1  0.57017171  0.73218141  0.76067389  1
  O  O264  1  0.89933014  0.07017428  0.28033874  1
  O  O265  1  0.89923979  0.07553279  0.77395222  1
  O  O266  1  0.90350215  0.39064312  0.27895582  1
  O  O267  1  0.91126440  0.40847743  0.77133669  1
  O  O268  1  0.90003509  0.73292572  0.27428638  1
  O  O269  1  0.91264548  0.74376071  0.76667776  1
  O  O270  1  0.26289299  0.22846073  0.25420625  1
  O  O271  1  0.26080385  0.23257944  0.76033372  1
  O  O272  1  0.25353040  0.58065439  0.27256870  1
  O  O273  1  0.27084678  0.56629899  0.77852964  1
  O  O274  1  0.26864168  0.90434382  0.27734420  1
  O  O275  1  0.26409163  0.91253518  0.78114726  1
  O  O276  1  0.59295154  0.23777550  0.26707052  1
  O  O277  1  0.60475033  0.23548739  0.77548839  1
  O  O278  1  0.59797484  0.57986246  0.26665844  1
  O  O279  1  0.59765797  0.56533978  0.77092787  1
  O  O280  1  0.59232539  0.90652227  0.27343889  1
  O  O281  1  0.58838573  0.90173756  0.76699286  1
  O  O282  1  0.92740677  0.23328253  0.28262306  1
  O  O283  1  0.93133300  0.23434026  0.77084006  1
  O  O284  1  0.92680072  0.58068992  0.27001284  1
  O  O285  1  0.93482513  0.56078773  0.77472299  1
  O  O286  1  0.92275498  0.91277233  0.27611578  1
  O  O287  1  0.92729720  0.91114875  0.78136471  1
  O  O288  1  0.25732748  0.22853384  0.49050168  1
  O  O289  1  0.26671350  0.23393222  0.99349672  1
  O  O290  1  0.25501003  0.56903513  0.47995836  1
  O  O291  1  0.26749866  0.57603398  0.97949995  1
  O  O292  1  0.26914763  0.90958829  0.47236489  1
  O  O293  1  0.26519700  0.90985064  0.96910593  1
  O  O294  1  0.59431341  0.24072759  0.48415134  1
  O  O295  1  0.60141600  0.23233531  0.97278349  1
  O  O296  1  0.58826654  0.57051563  0.48655517  1
  O  O297  1  0.60485887  0.56366944  0.98292334  1
  O  O298  1  0.58529000  0.91083488  0.47225396  1
  O  O299  1  0.59160095  0.89896249  0.98841123  1
  O  O300  1  0.93210902  0.23339316  0.47432831  1
  O  O301  1  0.93515090  0.23269954  0.97655674  1
  O  O302  1  0.92585605  0.57369135  0.47156400  1
  O  O303  1  0.93933028  0.57018748  0.98093690  1
  O  O304  1  0.92459308  0.91212846  0.47524861  1
  O  O305  1  0.93268485  0.90414038  0.97446844  1
  O  O306  1  0.23208757  0.06545697  0.47615063  1
  O  O307  1  0.23270222  0.06498495  0.97914016  1
  O  O308  1  0.23391214  0.40681392  0.47858272  1
  O  O309  1  0.24647395  0.40991307  0.98254548  1
  O  O310  1  0.23628305  0.73752123  0.46631209  1
  O  O311  1  0.24952381  0.74561657  0.98350360  1
  O  O312  1  0.56416878  0.06629295  0.46970174  1
  O  O313  1  0.57378956  0.07050815  0.99026123  1
  O  O314  1  0.56336867  0.40818199  0.49175530  1
  O  O315  1  0.55978523  0.39663280  1.00032207  1
  O  O316  1  0.57397892  0.73983367  0.49139118  1
  O  O317  1  0.56690399  0.74177106  0.98596881  1
  O  O318  1  0.90334921  0.07221083  0.47036144  1
  O  O319  1  0.90791174  0.07323311  0.96634004  1
  O  O320  1  0.90842881  0.39325794  0.47521828  1
  O  O321  1  0.90931219  0.40896132  0.97586482  1
  O  O322  1  0.89492179  0.73650459  0.47729156  1
  O  O323  1  0.90709815  0.73525040  0.99146345  1
  O  O324  1  0.09511357  0.25744766  0.23510155  1
  O  O325  1  0.10210513  0.26694672  0.72470839  1
  O  O326  1  0.08856522  0.59208023  0.22679143  1
  O  O327  1  0.09576756  0.58903474  0.70937008  1
  O  O328  1  0.09301709  0.94381031  0.22951177  1
  O  O329  1  0.09635241  0.93130453  0.73733310  1
  O  O330  1  0.42898656  0.25835339  0.21783377  1
  O  O331  1  0.42960868  0.26585366  0.71563972  1
  O  O332  1  0.41851453  0.59288650  0.23878298  1
  O  O333  1  0.43403313  0.59492135  0.71883453  1
  O  O334  1  0.43822350  0.93207244  0.22556047  1
  O  O335  1  0.42852690  0.92535261  0.73659403  1
  O  O336  1  0.76294989  0.25982962  0.23808453  1
  O  O337  1  0.76322860  0.25594494  0.72594686  1
  O  O338  1  0.75816123  0.59934292  0.22474961  1
  O  O339  1  0.77007025  0.59745900  0.72507734  1
  O  O340  1  0.76168453  0.92813298  0.22703997  1
  O  O341  1  0.75382860  0.91612539  0.72417131  1
  O  O342  1  0.06672597  0.09752566  0.23503196  1
  O  O343  1  0.07252722  0.10591748  0.73931592  1
  O  O344  1  0.06670827  0.42918718  0.23129849  1
  O  O345  1  0.07153241  0.42387710  0.71988249  1
  O  O346  1  0.06961199  0.75411828  0.23468173  1
  O  O347  1  0.08380608  0.74782972  0.72818052  1
  O  O348  1  0.40673240  0.09704238  0.22280648  1
  O  O349  1  0.39522214  0.09556520  0.72398757  1
  O  O350  1  0.40870357  0.41596540  0.23100798  1
  O  O351  1  0.40601953  0.43624015  0.71872118  1
  O  O352  1  0.40190189  0.76575468  0.23597495  1
  O  O353  1  0.41748564  0.75574621  0.72858498  1
  O  O354  1  0.74064245  0.08697707  0.22781972  1
  O  O355  1  0.73944878  0.10262934  0.72212572  1
  O  O356  1  0.72860533  0.42546823  0.22255033  1
  O  O357  1  0.74901791  0.43291971  0.73320473  1
  O  O358  1  0.73984029  0.76259989  0.22312820  1
  O  O359  1  0.73601105  0.75315897  0.72059914  1
