# generated using pymatgen
data_BaLaInIrO6
_symmetry_space_group_name_H-M   'P 1'
_cell_length_a   17.51932108
_cell_length_b   17.54451890
_cell_length_c   16.47765643
_cell_angle_alpha   90.00319984
_cell_angle_beta   89.99324736
_cell_angle_gamma   90.01843155
_symmetry_Int_Tables_number   1
_chemical_formula_structural   BaLaInIrO6
_chemical_formula_sum   'Ba36 La36 In36 Ir36 O216'
_cell_volume   5064.70498363
_cell_formula_units_Z   36
loop_
 _symmetry_equiv_pos_site_id
 _symmetry_equiv_pos_as_xyz
  1  'x, y, z'
loop_
 _atom_site_type_symbol
 _atom_site_label
 _atom_site_symmetry_multiplicity
 _atom_site_fract_x
 _atom_site_fract_y
 _atom_site_fract_z
 _atom_site_occupancy
  Ba  Ba0  1  0.17083560  0.67522429  0.12827183  1
  Ba  Ba1  1  0.33275542  0.50713727  0.61993077  1
  Ba  Ba2  1  1.00359747  0.51559135  0.62673705  1
  Ba  Ba3  1  0.83433093  0.99069346  0.87590506  1
  Ba  Ba4  1  0.16678975  0.65919056  0.87622728  1
  Ba  Ba5  1  0.83497218  0.65819449  0.87440228  1
  Ba  Ba6  1  0.33313353  0.83844738  0.12501447  1
  Ba  Ba7  1  0.66626728  0.17131214  0.12201059  1
  Ba  Ba8  1  0.33890482  0.82706975  0.37450483  1
  Ba  Ba9  1  1.00265059  0.83796985  0.12252343  1
  Ba  Ba10  1  0.49909095  0.33893620  0.12620539  1
  Ba  Ba11  1  0.17117306  0.32275902  0.38042522  1
  Ba  Ba12  1  0.16472575  0.67795527  0.62381058  1
  Ba  Ba13  1  0.33339408  0.49260418  0.37491069  1
  Ba  Ba14  1  0.83361243  0.98924759  0.37247858  1
  Ba  Ba15  1  0.16482420  0.00582424  0.12485931  1
  Ba  Ba16  1  0.66563970  0.15992622  0.87364916  1
  Ba  Ba17  1  0.16092781  0.34067161  0.12676173  1
  Ba  Ba18  1  0.50028094  0.99245598  0.37521326  1
  Ba  Ba19  1  0.82898017  0.33792096  0.12355619  1
  Ba  Ba20  1  0.33052390  0.50257584  0.13094824  1
  Ba  Ba21  1  0.83433477  0.32246602  0.87049053  1
  Ba  Ba22  1  0.49979223  0.32715091  0.87366381  1
  Ba  Ba23  1  0.67248278  0.84523552  0.12603515  1
  Ba  Ba24  1  0.16468647  0.34738371  0.62750053  1
  Ba  Ba25  1  0.83257186  0.01242784  0.62258405  1
  Ba  Ba26  1  0.33678492  0.17289082  0.12730853  1
  Ba  Ba27  1  -0.00093350  0.15771803  0.37304196  1
  Ba  Ba28  1  0.83149792  0.68233622  0.12569871  1
  Ba  Ba29  1  0.50677797  0.99496059  0.87725671  1
  Ba  Ba30  1  0.83309955  0.65810764  0.37730169  1
  Ba  Ba31  1  0.49904601  0.01283308  0.61879394  1
  Ba  Ba32  1  -0.00391740  0.15813425  0.87562195  1
  Ba  Ba33  1  0.99532825  0.83794301  0.62556014  1
  Ba  Ba34  1  0.49958833  0.32102530  0.37701329  1
  Ba  Ba35  1  0.83431036  0.67798268  0.62958076  1
  La  La36  1  0.17047027  0.98229059  0.87239313  1
  La  La37  1  -0.00666015  0.81890966  0.37568611  1
  La  La38  1  0.32696726  0.15192272  0.87290215  1
  La  La39  1  0.16655807  0.98430409  0.37316118  1
  La  La40  1  0.83128733  0.34685058  0.62399047  1
  La  La41  1  0.32733341  0.15123378  0.37755153  1
  La  La42  1  0.83686280  0.31487352  0.37626570  1
  La  La43  1  0.67186854  0.51402598  0.12522356  1
  La  La44  1  0.66587237  0.48637755  0.87747657  1
  La  La45  1  0.67704789  0.85268278  0.62738955  1
  La  La46  1  0.66230323  0.15348948  0.37349047  1
  La  La47  1  0.17034128  0.32001826  0.87578980  1
  La  La48  1  0.83302661  0.00934349  0.12521699  1
  La  La49  1  0.49458668  0.01657970  0.12680265  1
  La  La50  1  0.33212060  0.81905013  0.87284238  1
  La  La51  1  0.33577090  0.84528133  0.62436187  1
  La  La52  1  0.32946093  0.48369744  0.87673806  1
  La  La53  1  0.66628383  0.81966027  0.87653249  1
  La  La54  1  -0.00361827  0.81699132  0.87345500  1
  La  La55  1  0.49049990  0.68273448  0.62214872  1
  La  La56  1  0.49984797  0.34396332  0.62553586  1
  La  La57  1  0.15770508  0.00880938  0.62368076  1
  La  La58  1  0.66979860  0.18379957  0.62456575  1
  La  La59  1  1.00094835  0.17427453  0.62632418  1
  La  La60  1  0.50541646  0.65300014  0.87953644  1
  La  La61  1  -0.00490501  0.48825419  0.87165615  1
  La  La62  1  1.00608872  0.52152905  0.12387338  1
  La  La63  1  1.00314138  0.17974583  0.12382175  1
  La  La64  1  0.16430140  0.65549985  0.37566257  1
  La  La65  1  0.51003561  0.64926613  0.37262403  1
  La  La66  1  0.49518143  0.68112263  0.12692042  1
  La  La67  1  0.66619787  0.48292213  0.37548955  1
  La  La68  1  0.65967974  0.81696709  0.37082131  1
  La  La69  1  0.33790247  0.18211863  0.62191912  1
  La  La70  1  -0.00592575  0.48652713  0.37903764  1
  La  La71  1  0.67359028  0.51100578  0.62761040  1
  In  In72  1  0.83495839  0.50125639  -0.00039049  1
  In  In73  1  0.82932939  0.83422106  0.49792083  1
  In  In74  1  0.50177388  0.50226185  0.74832765  1
  In  In75  1  0.66796053  0.33170698  0.24924731  1
  In  In76  1  0.49896939  0.16792181  -0.00261623  1
  In  In77  1  0.33258288  0.32997051  0.25312633  1
  In  In78  1  0.33194676  -0.00493947  0.25174264  1
  In  In79  1  -0.00075484  0.33122193  0.50202147  1
  In  In80  1  0.33660169  0.66719715  0.25446541  1
  In  In81  1  0.00008690  0.33305549  0.74802569  1
  In  In82  1  0.49929258  0.16789788  0.74623964  1
  In  In83  1  -0.00104215  0.33554463  -0.00098106  1
  In  In84  1  0.66724833  -0.00331320  0.00175964  1
  In  In85  1  0.33499883  0.66460209  0.74835874  1
  In  In86  1  0.50254131  0.83589277  0.74997967  1
  In  In87  1  0.49958245  0.50122168  0.00409016  1
  In  In88  1  0.33644332  0.33298532  0.50150262  1
  In  In89  1  0.16572095  0.16484037  0.74619515  1
  In  In90  1  0.33171015  0.33208674  0.00159087  1
  In  In91  1  -0.00163586  -0.00132220  0.49637755  1
  In  In92  1  0.66431351  0.66586419  0.50376796  1
  In  In93  1  0.16399163  0.50209229  0.50035468  1
  In  In94  1  0.16502189  0.16292924  -0.00212024  1
  In  In95  1  0.16173811  0.50083007  0.25136533  1
  In  In96  1  0.83268492  0.16449210  -0.00126885  1
  In  In97  1  0.50431569  0.83562508  0.50032060  1
  In  In98  1  -0.00372838  0.33560875  0.25068771  1
  In  In99  1  0.66291063  0.66670164  0.75134426  1
  In  In100  1  0.33678714  0.66296440  -0.00082415  1
  In  In101  1  0.33337103  0.00076046  0.74584078  1
  In  In102  1  0.33560877  -0.00367585  -0.00247291  1
  In  In103  1  0.83407855  0.50076942  0.25054575  1
  In  In104  1  -0.00177841  -0.00253511  0.75032516  1
  In  In105  1  0.16531302  0.16252007  0.25127601  1
  In  In106  1  0.16710915  0.83150798  -0.00079995  1
  In  In107  1  0.33338036  0.66957399  0.49701819  1
  Ir  Ir108  1  0.00064766  0.66727882  -0.00215849  1
  Ir  Ir109  1  0.16540434  0.50154240  0.75631330  1
  Ir  Ir110  1  0.83072264  0.16631557  0.74379703  1
  Ir  Ir111  1  0.50380050  0.16686941  0.50048686  1
  Ir  Ir112  1  0.66818713  0.33420990  0.74693931  1
  Ir  Ir113  1  0.83581787  0.83274228  -0.00010391  1
  Ir  Ir114  1  0.83218743  0.50017777  0.74717943  1
  Ir  Ir115  1  0.16750128  0.83276925  0.74837232  1
  Ir  Ir116  1  0.66659604  0.66858353  0.00170132  1
  Ir  Ir117  1  0.66766002  -0.00041195  0.25332378  1
  Ir  Ir118  1  0.51138825  0.49627339  0.49937969  1
  Ir  Ir119  1  0.66973224  0.00046149  0.74772775  1
  Ir  Ir120  1  0.16159636  0.50196605  -0.00395359  1
  Ir  Ir121  1  -0.00048380  -0.00409046  0.00100555  1
  Ir  Ir122  1  0.50880460  0.50101933  0.25349500  1
  Ir  Ir123  1  0.66714520  0.00446201  0.49951666  1
  Ir  Ir124  1  0.00090703  0.66775048  0.75114539  1
  Ir  Ir125  1  0.50355689  0.83226882  0.00107030  1
  Ir  Ir126  1  0.33342621  0.33500904  0.74827203  1
  Ir  Ir127  1  0.66606672  0.66736131  0.24810287  1
  Ir  Ir128  1  0.50208103  0.16332636  0.25706102  1
  Ir  Ir129  1  0.16576216  0.83549200  0.49893604  1
  Ir  Ir130  1  0.32659829  -0.00089609  0.50157095  1
  Ir  Ir131  1  0.83205793  0.16052062  0.25328517  1
  Ir  Ir132  1  0.15901364  0.83328560  0.25656095  1
  Ir  Ir133  1  -0.00098637  0.67108590  0.25245385  1
  Ir  Ir134  1  0.83106667  0.83429035  0.75393367  1
  Ir  Ir135  1  0.50723132  0.83366628  0.24670194  1
  Ir  Ir136  1  0.16913161  0.15995051  0.50362163  1
  Ir  Ir137  1  0.66982913  0.33324578  0.50222324  1
  Ir  Ir138  1  0.83004913  0.49939264  0.50242632  1
  Ir  Ir139  1  0.66605210  0.33628252  -0.00299834  1
  Ir  Ir140  1  0.83082193  0.83474017  0.24897343  1
  Ir  Ir141  1  -0.00006543  0.66974570  0.49899505  1
  Ir  Ir142  1  -0.00371621  -0.00393633  0.24677657  1
  Ir  Ir143  1  0.82856243  0.16799363  0.50027594  1
  O  O144  1  0.31330464  0.33347535  0.12784792  1
  O  O145  1  0.31320290  0.32349673  0.62916210  1
  O  O146  1  0.32457484  0.66492694  0.12784492  1
  O  O147  1  0.31564831  0.66062792  0.62222421  1
  O  O148  1  0.31608048  0.99348108  0.12612326  1
  O  O149  1  0.29477350  0.98678267  0.61936665  1
  O  O150  1  0.64991561  0.33005691  0.11830513  1
  O  O151  1  0.63691848  0.32422945  0.62397233  1
  O  O152  1  0.63472296  0.65527972  0.12454226  1
  O  O153  1  0.62669494  0.64898737  0.62734945  1
  O  O154  1  0.63420925  0.99662767  0.13523107  1
  O  O155  1  0.64752111  0.98864706  0.62282770  1
  O  O156  1  0.97655566  0.31991399  0.12592736  1
  O  O157  1  0.96488376  0.32152114  0.62393510  1
  O  O158  1  0.97775442  0.65853481  0.12375855  1
  O  O159  1  0.98013001  0.66837658  0.62589955  1
  O  O160  1  0.96756667  0.98786336  0.12394822  1
  O  O161  1  0.98220398  0.99173050  0.62256565  1
  O  O162  1  0.18650338  0.16008216  0.12447362  1
  O  O163  1  0.20312008  0.14840239  0.62000858  1
  O  O164  1  0.17895068  0.50527534  0.11568727  1
  O  O165  1  0.18299024  0.50668163  0.63596129  1
  O  O166  1  0.17879558  0.83159985  0.13384975  1
  O  O167  1  0.19888741  0.83138173  0.62268771  1
  O  O168  1  0.51931804  0.15674651  0.13667317  1
  O  O169  1  0.53464646  0.17002630  0.61925088  1
  O  O170  1  0.53689502  0.49645969  0.13290757  1
  O  O171  1  0.53926120  0.48367267  0.61947230  1
  O  O172  1  0.52797615  0.81689358  0.12383599  1
  O  O173  1  0.54320354  0.81932989  0.62425774  1
  O  O174  1  0.86208471  0.15646545  0.13400998  1
  O  O175  1  0.86067693  0.16992679  0.62100713  1
  O  O176  1  0.86864975  0.49663118  0.12524990  1
  O  O177  1  0.85630627  0.48676474  0.62420033  1
  O  O178  1  0.85597504  0.83830352  0.12489670  1
  O  O179  1  0.84458344  0.83696903  0.63218647  1
  O  O180  1  0.14715667  0.16402392  0.38649485  1
  O  O181  1  0.14298293  0.18421061  0.87003646  1
  O  O182  1  0.12629518  0.51361827  0.37546495  1
  O  O183  1  0.13294901  0.50088125  0.87655589  1
  O  O184  1  0.13025017  0.84577123  0.37922207  1
  O  O185  1  0.13553632  0.84069967  0.86697601  1
  O  O186  1  0.46966359  0.16409124  0.38012033  1
  O  O187  1  0.46641510  0.16648689  0.86912872  1
  O  O188  1  0.48355257  0.51119112  0.37681296  1
  O  O189  1  0.46702036  0.51325585  0.87425424  1
  O  O190  1  0.49076343  0.83816833  0.36689111  1
  O  O191  1  0.47011765  0.84121335  0.88256311  1
  O  O192  1  0.79860961  0.17062748  0.37822086  1
  O  O193  1  0.81365041  0.16212372  0.86447028  1
  O  O194  1  0.80027447  0.50630644  0.38310563  1
  O  O195  1  0.80171623  0.50441910  0.86718285  1
  O  O196  1  0.79805195  0.83240414  0.36809897  1
  O  O197  1  0.80408472  0.83068257  0.87731362  1
  O  O198  1  0.02651707  0.00343450  0.36739273  1
  O  O199  1  0.02935958  0.00329814  0.88021548  1
  O  O200  1  0.01901228  0.34401964  0.37747652  1
  O  O201  1  0.03258401  0.34213021  0.87184068  1
  O  O202  1  0.02664130  0.68067327  0.37525815  1
  O  O203  1  0.02010036  0.67935839  0.87392491  1
  O  O204  1  0.35106085  0.00657582  0.38203495  1
  O  O205  1  0.35985749  0.01475876  0.87100697  1
  O  O206  1  0.35239628  0.33245389  0.37838071  1
  O  O207  1  0.34872843  0.34684033  0.86687891  1
  O  O208  1  0.37548053  0.67243338  0.37597008  1
  O  O209  1  0.36861188  0.68029223  0.87277483  1
  O  O210  1  0.68944867  0.01714593  0.37791959  1
  O  O211  1  0.68449226  0.00338270  0.86810632  1
  O  O212  1  0.70177096  0.34275933  0.38219555  1
  O  O213  1  0.68960154  0.34914742  0.87128597  1
  O  O214  1  0.68344761  0.67643257  0.36949247  1
  O  O215  1  0.68799899  0.68034754  0.88291351  1
  O  O216  1  0.05986393  0.09060017  0.02547015  1
  O  O217  1  0.07530757  0.09417960  0.52823384  1
  O  O218  1  0.06542276  0.44262757  0.01796709  1
  O  O219  1  0.06859667  0.42871708  0.51541821  1
  O  O220  1  0.07091189  0.75711492  0.00690783  1
  O  O221  1  0.06606225  0.76954272  0.50990641  1
  O  O222  1  0.41377641  0.08502252  0.02450615  1
  O  O223  1  0.39768909  0.09899317  0.52126846  1
  O  O224  1  0.39870804  0.43479796  0.00674815  1
  O  O225  1  0.42592828  0.42143466  0.52366743  1
  O  O226  1  0.41526497  0.76506427  0.01775904  1
  O  O227  1  0.40646174  0.76520214  0.52929093  1
  O  O228  1  0.75032570  0.08222222  0.02546968  1
  O  O229  1  0.73102007  0.10359355  0.52203913  1
  O  O230  1  0.73288936  0.43138190  0.01833732  1
  O  O231  1  0.73521071  0.43043241  0.52951352  1
  O  O232  1  0.73714320  0.76453904  0.01491932  1
  O  O233  1  0.73098423  0.76581853  0.52278624  1
  O  O234  1  0.09026938  0.25754162  0.01748656  1
  O  O235  1  0.09493687  0.24746207  0.52677746  1
  O  O236  1  0.09296315  0.59769025  0.01902562  1
  O  O237  1  0.09037347  0.60402187  0.51010771  1
  O  O238  1  0.09274007  0.93065588  0.00822530  1
  O  O239  1  0.10508508  0.93172432  0.51706174  1
  O  O240  1  0.42753216  0.26081709  0.01498488  1
  O  O241  1  0.43502088  0.25642111  0.53002156  1
  O  O242  1  0.44435296  0.60753819  0.01866000  1
  O  O243  1  0.44606904  0.59044214  0.51918134  1
  O  O244  1  0.44345131  0.92593118  0.02670307  1
  O  O245  1  0.41691519  0.92620770  0.52033588  1
  O  O246  1  0.75200803  0.26110379  0.00790839  1
  O  O247  1  0.76200682  0.26458625  0.52878004  1
  O  O248  1  0.75401944  0.59494160  0.02314946  1
  O  O249  1  0.75930368  0.58785661  0.52719502  1
  O  O250  1  0.76932061  0.92491888  0.01990722  1
  O  O251  1  0.75409937  0.93177413  0.51640965  1
  O  O252  1  0.23637504  0.06657314  0.28063016  1
  O  O253  1  0.23237289  0.06572679  0.77469284  1
  O  O254  1  0.23875179  0.40993856  0.26655127  1
  O  O255  1  0.23398160  0.40466919  0.77684924  1
  O  O256  1  0.22925874  0.74362235  0.27772483  1
  O  O257  1  0.23976334  0.74623938  0.77038205  1
  O  O258  1  0.57881790  0.07560417  0.27743623  1
  O  O259  1  0.57954361  0.07035605  0.75777142  1
  O  O260  1  0.57807720  0.41246811  0.27825501  1
  O  O261  1  0.58066171  0.40718338  0.76564649  1
  O  O262  1  0.57210130  0.73636038  0.27187057  1
  O  O263  1  0.56939252  0.73925166  0.78613128  1
  O  O264  1  0.89963048  0.06126555  0.25765344  1
  O  O265  1  0.90142587  0.07735473  0.75941600  1
  O  O266  1  0.89723803  0.40342313  0.28665891  1
  O  O267  1  0.90646236  0.41402726  0.76581799  1
  O  O268  1  0.90444708  0.74427194  0.27320564  1
  O  O269  1  0.90732262  0.74325842  0.77201748  1
  O  O270  1  0.26551143  0.22866225  0.27872333  1
  O  O271  1  0.26925143  0.23886260  0.76770754  1
  O  O272  1  0.25132886  0.58331382  0.27404573  1
  O  O273  1  0.26279101  0.56420490  0.77767524  1
  O  O274  1  0.24832205  0.90333238  0.27451843  1
  O  O275  1  0.26013735  0.89775656  0.77426531  1
  O  O276  1  0.59482519  0.23447739  0.27556128  1
  O  O277  1  0.59731587  0.24482960  0.76175603  1
  O  O278  1  0.60384361  0.56954640  0.27570194  1
  O  O279  1  0.59893431  0.56866695  0.78626611  1
  O  O280  1  0.60342439  0.90298424  0.27498003  1
  O  O281  1  0.60795344  0.90336466  0.76767652  1
  O  O282  1  0.91438723  0.23620790  0.27360741  1
  O  O283  1  0.92026137  0.23522639  0.76061435  1
  O  O284  1  0.93511885  0.57527369  0.27422853  1
  O  O285  1  0.92921869  0.57055828  0.77337348  1
  O  O286  1  0.92902228  0.89886182  0.27222753  1
  O  O287  1  0.92708275  0.89865043  0.77661309  1
  O  O288  1  0.26732763  0.22353892  0.48667659  1
  O  O289  1  0.26191082  0.23853321  0.96499444  1
  O  O290  1  0.25178855  0.58321315  0.47186548  1
  O  O291  1  0.26197872  0.56287673  0.97504634  1
  O  O292  1  0.25911427  0.90466841  0.47680003  1
  O  O293  1  0.26220056  0.90280172  0.96476312  1
  O  O294  1  0.60454760  0.23348703  0.47839966  1
  O  O295  1  0.59464830  0.24850051  0.98084007  1
  O  O296  1  0.60157929  0.56307241  0.47296207  1
  O  O297  1  0.60258307  0.57518746  0.97692774  1
  O  O298  1  0.60406262  0.90819103  0.47863635  1
  O  O299  1  0.59930620  0.89473860  0.97671271  1
  O  O300  1  0.91575149  0.23958737  0.47734823  1
  O  O301  1  0.92309873  0.23856052  0.98772889  1
  O  O302  1  0.92969256  0.56762854  0.47824538  1
  O  O303  1  0.93511602  0.57457556  0.97679971  1
  O  O304  1  0.92806053  0.90146010  0.47305643  1
  O  O305  1  0.93345138  0.89774956  0.97446789  1
  O  O306  1  0.23275991  0.06492632  0.47504927  1
  O  O307  1  0.23606198  0.06805276  0.96589301  1
  O  O308  1  0.24581177  0.41221505  0.49289905  1
  O  O309  1  0.22560650  0.40749059  0.97392945  1
  O  O310  1  0.23009565  0.74379080  0.47247118  1
  O  O311  1  0.24992020  0.74517402  0.97902802  1
  O  O312  1  0.57723722  0.07851916  0.47673073  1
  O  O313  1  0.57804661  0.07604068  0.99358164  1
  O  O314  1  0.58142619  0.40503688  0.47543730  1
  O  O315  1  0.58112568  0.41254468  0.97716137  1
  O  O316  1  0.56682112  0.73311979  0.47159204  1
  O  O317  1  0.56987737  0.73516971  0.97698937  1
  O  O318  1  0.90130972  0.08037422  0.48192812  1
  O  O319  1  0.90865308  0.06146993  0.99252712  1
  O  O320  1  0.89289607  0.40493246  0.48014758  1
  O  O321  1  0.91155146  0.41473351  0.96506670  1
  O  O322  1  0.90919022  0.73993164  0.48450694  1
  O  O323  1  0.90937764  0.74217009  0.97824671  1
  O  O324  1  0.08309765  0.25016813  0.23594372  1
  O  O325  1  0.08560829  0.25233774  0.71684989  1
  O  O326  1  0.08811274  0.60428948  0.23441252  1
  O  O327  1  0.09630917  0.59827174  0.73758734  1
  O  O328  1  0.09224087  0.93121445  0.23912761  1
  O  O329  1  0.10533526  0.92822742  0.73030813  1
  O  O330  1  0.43340475  0.25098001  0.23933151  1
  O  O331  1  0.42693525  0.26953550  0.72157453  1
  O  O332  1  0.44449231  0.59545324  0.23397237  1
  O  O333  1  0.44083457  0.60296773  0.72273758  1
  O  O334  1  0.43930402  0.92567147  0.22759620  1
  O  O335  1  0.42284809  0.92317904  0.71902569  1
  O  O336  1  0.76372248  0.25292040  0.24283724  1
  O  O337  1  0.76046468  0.26173548  0.71854689  1
  O  O338  1  0.75415575  0.59562036  0.22693385  1
  O  O339  1  0.75651885  0.58581976  0.72646010  1
  O  O340  1  0.76342714  0.93255244  0.22674228  1
  O  O341  1  0.76103999  0.92769699  0.73130083  1
  O  O342  1  0.05862918  0.08942376  0.22398645  1
  O  O343  1  0.07062486  0.09106625  0.71757925  1
  O  O344  1  0.05779421  0.44051217  0.22777574  1
  O  O345  1  0.07395168  0.43430377  0.73829760  1
  O  O346  1  0.06432155  0.76802291  0.24480463  1
  O  O347  1  0.07074746  0.76417515  0.73506319  1
  O  O348  1  0.41502057  0.08891191  0.24089333  1
  O  O349  1  0.39840916  0.10272967  0.71763122  1
  O  O350  1  0.41989412  0.43107434  0.23909933  1
  O  O351  1  0.40578900  0.42445314  0.72922921  1
  O  O352  1  0.41828781  0.76254907  0.22995495  1
  O  O353  1  0.40459482  0.76565769  0.72002026  1
  O  O354  1  0.74077860  0.08903236  0.23006657  1
  O  O355  1  0.73378808  0.10006521  0.72195765  1
  O  O356  1  0.73250914  0.43403815  0.22799502  1
  O  O357  1  0.74086318  0.42667259  0.71982927  1
  O  O358  1  0.73209852  0.76464731  0.23658621  1
  O  O359  1  0.73414912  0.76832701  0.73362446  1
