# generated using pymatgen
data_BaLaInIrO6
_symmetry_space_group_name_H-M   'P 1'
_cell_length_a   17.51151172
_cell_length_b   17.54282601
_cell_length_c   16.48392570
_cell_angle_alpha   90.00821323
_cell_angle_beta   89.98695465
_cell_angle_gamma   90.01060089
_symmetry_Int_Tables_number   1
_chemical_formula_structural   BaLaInIrO6
_chemical_formula_sum   'Ba36 La36 In36 Ir36 O216'
_cell_volume   5063.88483613
_cell_formula_units_Z   36
loop_
 _symmetry_equiv_pos_site_id
 _symmetry_equiv_pos_as_xyz
  1  'x, y, z'
loop_
 _atom_site_type_symbol
 _atom_site_label
 _atom_site_symmetry_multiplicity
 _atom_site_fract_x
 _atom_site_fract_y
 _atom_site_fract_z
 _atom_site_occupancy
  Ba  Ba0  1  0.66212437  0.48993515  0.37811077  1
  Ba  Ba1  1  0.66467199  0.48849541  0.86927810  1
  Ba  Ba2  1  0.83431684  0.33983982  0.62646265  1
  Ba  Ba3  1  0.33149667  0.15847498  0.87843485  1
  Ba  Ba4  1  0.33305665  0.50734463  0.11708891  1
  Ba  Ba5  1  0.16306643  0.33745338  0.62617156  1
  Ba  Ba6  1  0.33398665  0.84480586  0.62980967  1
  Ba  Ba7  1  -0.00130087  0.15577838  0.37639147  1
  Ba  Ba8  1  0.33199952  0.49344428  0.86942577  1
  Ba  Ba9  1  0.83865095  0.65602752  0.37812733  1
  Ba  Ba10  1  0.49763791  0.34228666  0.12015596  1
  Ba  Ba11  1  0.17275337  0.67562455  0.62273938  1
  Ba  Ba12  1  0.17076936  0.66988059  0.12425401  1
  Ba  Ba13  1  0.67057250  0.16035554  0.37531034  1
  Ba  Ba14  1  0.66729450  0.50866361  0.62805971  1
  Ba  Ba15  1  0.33334070  0.17020326  0.62808468  1
  Ba  Ba16  1  0.00418123  0.82300058  0.37627610  1
  Ba  Ba17  1  0.83808261  0.65541351  0.87823197  1
  Ba  Ba18  1  0.66655896  0.18217366  0.62402928  1
  Ba  Ba19  1  0.33636066  0.83157318  0.87502153  1
  Ba  Ba20  1  0.16600741  0.98802685  0.37767730  1
  Ba  Ba21  1  0.16896050  0.32276836  0.87480400  1
  Ba  Ba22  1  0.50222614  0.32671616  0.87519433  1
  Ba  Ba23  1  0.50113469  0.68148683  0.62947627  1
  Ba  Ba24  1  0.16624902  0.00878596  0.62624191  1
  Ba  Ba25  1  0.16807776  0.65795505  0.87206936  1
  Ba  Ba26  1  0.32594046  0.49045472  0.37357516  1
  Ba  Ba27  1  0.16617602  0.34322111  0.12036819  1
  Ba  Ba28  1  0.66591024  0.51042342  0.12039794  1
  Ba  Ba29  1  0.66492296  0.16079169  0.87025078  1
  Ba  Ba30  1  0.16872668  0.99304205  0.87635915  1
  Ba  Ba31  1  0.16580207  0.00525250  0.12736362  1
  Ba  Ba32  1  0.66636796  0.17850469  0.12504073  1
  Ba  Ba33  1  0.16568277  0.65712699  0.37595179  1
  Ba  Ba34  1  0.83330421  0.32042784  0.87181068  1
  Ba  Ba35  1  -0.00134384  0.49194939  0.37347570  1
  La  La36  1  0.50302946  0.32000846  0.37283598  1
  La  La37  1  0.49209343  0.01495891  0.12712743  1
  La  La38  1  0.82643091  0.33445178  0.37127890  1
  La  La39  1  0.17147422  0.31339691  0.37586845  1
  La  La40  1  0.32419292  0.14608592  0.37699513  1
  La  La41  1  0.49599750  1.00194220  0.86487410  1
  La  La42  1  1.00500742  0.51421850  0.62475425  1
  La  La43  1  -0.00287640  0.15306994  0.87135186  1
  La  La44  1  0.66912024  0.84344083  0.62715992  1
  La  La45  1  0.32444863  0.81859470  0.37810909  1
  La  La46  1  0.66236066  0.82012850  0.87484363  1
  La  La47  1  -0.00286504  0.48438026  0.87852937  1
  La  La48  1  0.66951757  0.84483942  0.12346704  1
  La  La49  1  0.82396878  0.34946806  0.12359217  1
  La  La50  1  1.00342086  0.18435593  0.12407128  1
  La  La51  1  0.49294479  0.67153378  0.12205709  1
  La  La52  1  0.49736704  0.00972827  0.62605999  1
  La  La53  1  0.33447524  0.18211142  0.12301125  1
  La  La54  1  0.33741811  0.51842714  0.62476877  1
  La  La55  1  0.66362214  0.82152271  0.37852501  1
  La  La56  1  0.83780231  0.99318063  0.87162212  1
  La  La57  1  0.82981174  0.68431149  0.62413028  1
  La  La58  1  -0.00403848  0.82440490  0.87135618  1
  La  La59  1  0.82834869  0.68198709  0.12578208  1
  La  La60  1  0.49226829  0.34989746  0.62561140  1
  La  La61  1  0.83183660  0.01737213  0.62138445  1
  La  La62  1  1.00460217  0.17943899  0.62127156  1
  La  La63  1  0.50588824  0.65161219  0.37671226  1
  La  La64  1  1.00444937  0.51529554  0.12310640  1
  La  La65  1  0.33560444  0.84264282  0.12463979  1
  La  La66  1  1.01086901  0.84820252  0.62225599  1
  La  La67  1  0.82694080  0.01286612  0.13127733  1
  La  La68  1  1.00354897  0.84212411  0.12853711  1
  La  La69  1  0.50526031  0.65242073  0.87185032  1
  La  La70  1  0.83962823  0.97876228  0.37671254  1
  La  La71  1  0.50002547  0.98478563  0.38162852  1
  In  In72  1  0.83378708  0.49835581  0.50327970  1
  In  In73  1  0.49979034  0.83248757  0.25275882  1
  In  In74  1  0.50150557  0.50188764  -0.00281654  1
  In  In75  1  0.83252075  0.50303989  0.24640206  1
  In  In76  1  0.33341076  0.33110428  0.49860364  1
  In  In77  1  0.66758903  0.66854535  0.50275295  1
  In  In78  1  -0.00036378  0.33285930  0.49610285  1
  In  In79  1  0.16492579  0.49581951  0.24863567  1
  In  In80  1  -0.00170714  -0.00119124  0.00150665  1
  In  In81  1  0.49987083  0.17106418  0.74723552  1
  In  In82  1  0.83585487  0.16823769  0.24811124  1
  In  In83  1  0.16489977  0.83574539  0.75362658  1
  In  In84  1  0.00045371  0.67013159  -0.00028754  1
  In  In85  1  0.33180568  0.33439594  -0.00336115  1
  In  In86  1  0.16612063  0.49630855  0.50155144  1
  In  In87  1  0.83413869  0.16554429  0.00001966  1
  In  In88  1  0.66570795  -0.00211265  0.00013555  1
  In  In89  1  0.50415407  0.83407952  0.00047652  1
  In  In90  1  -0.00019276  0.66733941  0.50213544  1
  In  In91  1  0.66358047  0.33350347  0.24771321  1
  In  In92  1  0.83234502  0.83711709  -0.00180273  1
  In  In93  1  0.67123297  0.66768867  0.75127143  1
  In  In94  1  0.16508744  0.16081785  0.24880597  1
  In  In95  1  0.00016620  0.33192781  0.75226101  1
  In  In96  1  0.49788502  0.49995237  0.25075167  1
  In  In97  1  0.16466996  0.16412103  0.00028331  1
  In  In98  1  0.16670218  0.83240905  0.24944370  1
  In  In99  1  0.66607426  0.66842699  0.24983860  1
  In  In100  1  0.83364317  0.16956882  0.49872654  1
  In  In101  1  0.49867504  0.16707105  0.49796415  1
  In  In102  1  0.33433655  0.66724949  0.25097913  1
  In  In103  1  0.33610890  0.67159973  0.75319778  1
  In  In104  1  -0.00133274  0.66759513  0.74961402  1
  In  In105  1  0.66300554  -0.00026072  0.25424495  1
  In  In106  1  0.50069524  0.16404582  0.00049993  1
  In  In107  1  0.66762640  -0.00019331  0.50055172  1
  Ir  Ir108  1  0.16815343  0.49871608  0.74768051  1
  Ir  Ir109  1  0.83247502  0.16125113  0.74935747  1
  Ir  Ir110  1  0.50651271  0.84067011  0.75149982  1
  Ir  Ir111  1  0.33760568  -0.00089592  0.25066050  1
  Ir  Ir112  1  0.83828897  0.49873120  0.75393240  1
  Ir  Ir113  1  0.49536999  0.50155933  0.50280372  1
  Ir  Ir114  1  0.83395037  0.84187257  0.74730581  1
  Ir  Ir115  1  -0.00407647  0.00240296  0.74587152  1
  Ir  Ir116  1  0.33379697  0.67220622  -0.00202735  1
  Ir  Ir117  1  0.32983597  0.33461898  0.74539905  1
  Ir  Ir118  1  0.49141802  0.16471977  0.25311855  1
  Ir  Ir119  1  0.83747234  0.49804468  -0.00253885  1
  Ir  Ir120  1  0.66681546  0.33557092  0.74745960  1
  Ir  Ir121  1  -0.00314900  0.33501898  0.00127626  1
  Ir  Ir122  1  0.33508837  0.32812668  0.25311458  1
  Ir  Ir123  1  0.33601604  -0.00154192  0.50064712  1
  Ir  Ir124  1  0.16755809  0.83377326  0.00362174  1
  Ir  Ir125  1  0.16997625  0.83511990  0.50179304  1
  Ir  Ir126  1  0.67015272  0.33501857  -0.00338640  1
  Ir  Ir127  1  0.33287593  -0.00359143  0.00688705  1
  Ir  Ir128  1  -0.00346098  -0.00339725  0.49919285  1
  Ir  Ir129  1  0.49862708  0.49953837  0.74534297  1
  Ir  Ir130  1  0.67146378  -0.00370527  0.74809993  1
  Ir  Ir131  1  0.34057134  0.67044754  0.50184096  1
  Ir  Ir132  1  0.66163037  0.33637727  0.50128007  1
  Ir  Ir133  1  0.16321777  0.50281518  -0.00394600  1
  Ir  Ir134  1  0.49740675  0.83514833  0.50030205  1
  Ir  Ir135  1  -0.00810586  -0.00517087  0.25152735  1
  Ir  Ir136  1  0.66555792  0.66782362  -0.00043921  1
  Ir  Ir137  1  -0.00568106  0.66746119  0.24616710  1
  Ir  Ir138  1  0.00005771  0.33151735  0.24461097  1
  Ir  Ir139  1  0.83540416  0.83711997  0.50606215  1
  Ir  Ir140  1  0.83434177  0.83299882  0.24911545  1
  Ir  Ir141  1  0.33542540  0.00133286  0.75066179  1
  Ir  Ir142  1  0.16482584  0.16368566  0.74709546  1
  Ir  Ir143  1  0.16713345  0.16074341  0.50052040  1
  O  O144  1  0.31448809  0.32157147  0.13306804  1
  O  O145  1  0.31277831  0.33174594  0.62760809  1
  O  O146  1  0.32200638  0.66869494  0.11683678  1
  O  O147  1  0.32398493  0.66535855  0.62277056  1
  O  O148  1  0.31138889  0.98106088  0.12898591  1
  O  O149  1  0.31455264  0.99982361  0.62477990  1
  O  O150  1  0.65093713  0.33775178  0.11530746  1
  O  O151  1  0.63241081  0.33792348  0.62382022  1
  O  O152  1  0.63167602  0.66791520  0.11812069  1
  O  O153  1  0.65105657  0.68387733  0.62792841  1
  O  O154  1  0.62741887  0.98101017  0.13073514  1
  O  O155  1  0.63593423  0.98532816  0.62882752  1
  O  O156  1  0.96430052  0.32449262  0.12224071  1
  O  O157  1  0.98674714  0.31647622  0.62804361  1
  O  O158  1  0.96615677  0.66015471  0.12544971  1
  O  O159  1  0.96287029  0.65709605  0.62951728  1
  O  O160  1  0.96292015  0.98144961  0.13124827  1
  O  O161  1  0.96772618  0.98754064  0.62217192  1
  O  O162  1  0.19761163  0.16268460  0.12719447  1
  O  O163  1  0.18524643  0.16687737  0.62270802  1
  O  O164  1  0.18049089  0.50122092  0.11727664  1
  O  O165  1  0.20135057  0.49335186  0.62952827  1
  O  O166  1  0.19895011  0.83234834  0.12228197  1
  O  O167  1  0.18133189  0.83959188  0.62149216  1
  O  O168  1  0.51757526  0.15274040  0.13312074  1
  O  O169  1  0.51794637  0.14645309  0.62409752  1
  O  O170  1  0.51280393  0.51397304  0.12302728  1
  O  O171  1  0.51858117  0.48784620  0.62349097  1
  O  O172  1  0.53431191  0.81498751  0.12631319  1
  O  O173  1  0.53272259  0.83522628  0.62501841  1
  O  O174  1  0.87180942  0.14903070  0.12435232  1
  O  O175  1  0.86424452  0.15673621  0.63083974  1
  O  O176  1  0.86706484  0.48798836  0.11665244  1
  O  O177  1  0.86785062  0.49303904  0.63597545  1
  O  O178  1  0.86649785  0.82402685  0.12995587  1
  O  O179  1  0.87040798  0.82854073  0.62624261  1
  O  O180  1  0.15163204  0.16411257  0.37839719  1
  O  O181  1  0.13607941  0.16034757  0.86833518  1
  O  O182  1  0.15020890  0.50201395  0.37423636  1
  O  O183  1  0.13450184  0.50265616  0.87146477  1
  O  O184  1  0.15533498  0.83275254  0.38069502  1
  O  O185  1  0.13363346  0.83622980  0.88375627  1
  O  O186  1  0.46108980  0.17908001  0.37146916  1
  O  O187  1  0.48654058  0.15752066  0.87248681  1
  O  O188  1  0.47548884  0.51122799  0.38376824  1
  O  O189  1  0.48399031  0.51153600  0.86653374  1
  O  O190  1  0.46145894  0.84742383  0.38316603  1
  O  O191  1  0.48748719  0.85991690  0.87160110  1
  O  O192  1  0.82030827  0.19308250  0.37322141  1
  O  O193  1  0.81294370  0.15814024  0.86862481  1
  O  O194  1  0.81419503  0.49772012  0.37370727  1
  O  O195  1  0.81160127  0.50224572  0.87595870  1
  O  O196  1  0.80202529  0.84230764  0.37878066  1
  O  O197  1  0.79792536  0.85202537  0.86667635  1
  O  O198  1  0.01840542  -0.00055797  0.37513790  1
  O  O199  1  0.01864983  0.01559705  0.86526500  1
  O  O200  1  0.03409649  0.33462495  0.36378271  1
  O  O201  1  0.02049088  0.34388727  0.88071095  1
  O  O202  1  0.01405719  0.66897978  0.36785979  1
  O  O203  1  0.01794128  0.68596840  0.87384504  1
  O  O204  1  0.36562428  0.00910406  0.37439555  1
  O  O205  1  0.36244199  0.00242833  0.87934218  1
  O  O206  1  0.36668974  0.33332411  0.37075527  1
  O  O207  1  0.34863774  0.33209727  0.86425976  1
  O  O208  1  0.36733923  0.67851259  0.38243961  1
  O  O209  1  0.36548546  0.67178259  0.87949223  1
  O  O210  1  0.70422602  -0.00115635  0.37712404  1
  O  O211  1  0.70035469  0.00077949  0.86809547  1
  O  O212  1  0.68932234  0.33475235  0.37947000  1
  O  O213  1  0.68741227  0.33051113  0.87255427  1
  O  O214  1  0.69233584  0.68486434  0.37899954  1
  O  O215  1  0.69148820  0.67993589  0.87870155  1
  O  O216  1  0.06488436  0.09759614  0.02391117  1
  O  O217  1  0.06675346  0.09355858  0.52356008  1
  O  O218  1  0.06278071  0.43624318  0.01751822  1
  O  O219  1  0.06406591  0.43094974  0.52791508  1
  O  O220  1  0.07526688  0.76708495  0.02922679  1
  O  O221  1  0.07480112  0.76683080  0.52288370  1
  O  O222  1  0.39986555  0.08731739  0.03333925  1
  O  O223  1  0.40192119  0.09027439  0.51135762  1
  O  O224  1  0.41062693  0.42354144  0.00642391  1
  O  O225  1  0.40236991  0.43516121  0.52528033  1
  O  O226  1  0.40317581  0.76336849  0.02169399  1
  O  O227  1  0.40538812  0.76821289  0.51804501  1
  O  O228  1  0.74204557  0.08812365  0.02619168  1
  O  O229  1  0.74471141  0.09138733  0.52442737  1
  O  O230  1  0.74686980  0.42504417  0.02005933  1
  O  O231  1  0.73185514  0.42400604  0.51882427  1
  O  O232  1  0.73489761  0.75912687  0.02607912  1
  O  O233  1  0.74136601  0.77327118  0.52703831  1
  O  O234  1  0.08303788  0.26206012  0.02149962  1
  O  O235  1  0.10104447  0.25447311  0.50596254  1
  O  O236  1  0.08997395  0.58913614  0.01579834  1
  O  O237  1  0.09289342  0.59211848  0.52469640  1
  O  O238  1  0.09099481  0.91848322  0.02546556  1
  O  O239  1  0.09076578  0.92367060  0.52182082  1
  O  O240  1  0.41836946  0.24894561  0.01902384  1
  O  O241  1  0.43464939  0.26863285  0.52276898  1
  O  O242  1  0.43063162  0.60838887  0.01040172  1
  O  O243  1  0.43016412  0.59656271  0.52571004  1
  O  O244  1  0.42645863  0.92742174  0.03081745  1
  O  O245  1  0.43651516  0.93619255  0.52186024  1
  O  O246  1  0.76412428  0.26600391  0.02027421  1
  O  O247  1  0.75294487  0.26671267  0.51484992  1
  O  O248  1  0.76728822  0.59881953  0.02348475  1
  O  O249  1  0.76627762  0.60020072  0.52953250  1
  O  O250  1  0.76370491  0.92766230  0.03762801  1
  O  O251  1  0.76737581  0.92765330  0.53065531  1
  O  O252  1  0.24654362  0.06781655  0.27147670  1
  O  O253  1  0.24183947  0.07488213  0.76705212  1
  O  O254  1  0.23819323  0.39039950  0.27269659  1
  O  O255  1  0.23789174  0.40644503  0.76805892  1
  O  O256  1  0.24311630  0.74338797  0.27182791  1
  O  O257  1  0.24367110  0.74621418  0.76496784  1
  O  O258  1  0.55568800  0.07039103  0.27762090  1
  O  O259  1  0.57786450  0.06143166  0.76715290  1
  O  O260  1  0.56513072  0.40013253  0.27305566  1
  O  O261  1  0.57076971  0.40473848  0.76085717  1
  O  O262  1  0.57173918  0.74093678  0.28733935  1
  O  O263  1  0.57369511  0.74765403  0.78094404  1
  O  O264  1  0.89765063  0.05852600  0.27339507  1
  O  O265  1  0.89786951  0.06502025  0.76675486  1
  O  O266  1  0.90392936  0.39330076  0.26399624  1
  O  O267  1  0.90840405  0.41053267  0.77478661  1
  O  O268  1  0.90040599  0.73733177  0.26346857  1
  O  O269  1  0.90132946  0.75298003  0.77132950  1
  O  O270  1  0.26698308  0.23506980  0.27813802  1
  O  O271  1  0.25937828  0.23716287  0.76687948  1
  O  O272  1  0.25873994  0.57289364  0.25643346  1
  O  O273  1  0.25720802  0.57206763  0.75798181  1
  O  O274  1  0.27404979  0.90379629  0.27039159  1
  O  O275  1  0.25862082  0.91665137  0.76659296  1
  O  O276  1  0.58234858  0.23589525  0.27171504  1
  O  O277  1  0.59539295  0.24669581  0.76010578  1
  O  O278  1  0.59195249  0.57662642  0.27550891  1
  O  O279  1  0.58465707  0.57916431  0.76410586  1
  O  O280  1  0.59286287  0.90465378  0.28989970  1
  O  O281  1  0.60833450  0.90085973  0.77025729  1
  O  O282  1  0.94005630  0.23654464  0.25623541  1
  O  O283  1  0.92871227  0.22567711  0.77196548  1
  O  O284  1  0.93025797  0.57449974  0.25810941  1
  O  O285  1  0.93150942  0.56367657  0.77692037  1
  O  O286  1  0.92469661  0.90222006  0.27547274  1
  O  O287  1  0.92758975  0.90928030  0.77642360  1
  O  O288  1  0.26163582  0.22786911  0.47526445  1
  O  O289  1  0.25405609  0.24264003  0.98885300  1
  O  O290  1  0.27131508  0.57763130  0.49449809  1
  O  O291  1  0.26011652  0.57709370  0.97776064  1
  O  O292  1  0.26826035  0.90230643  0.47893140  1
  O  O293  1  0.26109042  0.90369373  0.98514975  1
  O  O294  1  0.59203623  0.24765847  0.47715117  1
  O  O295  1  0.59681566  0.24525201  0.98656507  1
  O  O296  1  0.58533450  0.57527531  0.48541091  1
  O  O297  1  0.59501962  0.58173656  0.97295769  1
  O  O298  1  0.59368052  0.89829083  0.47827905  1
  O  O299  1  0.61284036  0.88859819  0.98521334  1
  O  O300  1  0.93726212  0.22861970  0.49830165  1
  O  O301  1  0.93674023  0.23663984  0.97857322  1
  O  O302  1  0.93258547  0.56662196  0.49392291  1
  O  O303  1  0.93159609  0.56382751  0.97919745  1
  O  O304  1  0.92810226  0.90405823  0.47968246  1
  O  O305  1  0.92794023  0.90673601  0.96338043  1
  O  O306  1  0.24196695  0.06851786  0.48038915  1
  O  O307  1  0.24431479  0.06745545  0.98806252  1
  O  O308  1  0.23218534  0.39336913  0.47378596  1
  O  O309  1  0.23691553  0.41656447  0.98314064  1
  O  O310  1  0.24739935  0.74432130  0.47756741  1
  O  O311  1  0.23973579  0.74279852  0.98045025  1
  O  O312  1  0.56752171  0.06679719  0.47577624  1
  O  O313  1  0.56038953  0.05735104  0.98397885  1
  O  O314  1  0.55936068  0.40180274  0.48036771  1
  O  O315  1  0.58288215  0.40852391  0.98188326  1
  O  O316  1  0.56525377  0.74410816  0.47358808  1
  O  O317  1  0.57062266  0.73112061  0.97051001  1
  O  O318  1  0.90009588  0.05893527  0.48093891  1
  O  O319  1  0.90416211  0.06926304  0.96946589  1
  O  O320  1  0.89578157  0.39296450  0.47503037  1
  O  O321  1  0.90581246  0.40602636  0.97604352  1
  O  O322  1  0.90062279  0.74363180  0.49195526  1
  O  O323  1  0.90746439  0.74613240  0.98322331  1
  O  O324  1  0.09180985  0.26064204  0.22817602  1
  O  O325  1  0.09169934  0.24881406  0.73555131  1
  O  O326  1  0.08101651  0.59395557  0.22671762  1
  O  O327  1  0.09492977  0.58628020  0.72582112  1
  O  O328  1  0.08266336  0.92158923  0.23103636  1
  O  O329  1  0.08267615  0.92922630  0.73147127  1
  O  O330  1  0.42577635  0.25690495  0.22600218  1
  O  O331  1  0.42539122  0.26887404  0.72583917  1
  O  O332  1  0.43826119  0.60849406  0.23951701  1
  O  O333  1  0.42462461  0.58714987  0.73132758  1
  O  O334  1  0.43348670  0.93722287  0.22959745  1
  O  O335  1  0.43702068  0.93622778  0.73028595  1
  O  O336  1  0.76362633  0.26506832  0.22429312  1
  O  O337  1  0.76178980  0.25704462  0.73192387  1
  O  O338  1  0.76528071  0.60282384  0.21975871  1
  O  O339  1  0.77287339  0.59590155  0.73019038  1
  O  O340  1  0.76623181  0.92355937  0.22580609  1
  O  O341  1  0.76646489  0.93252666  0.71748919  1
  O  O342  1  0.05944984  0.08878987  0.22579185  1
  O  O343  1  0.06331516  0.09797236  0.72428854  1
  O  O344  1  0.06117797  0.42763012  0.22081468  1
  O  O345  1  0.07424214  0.43210571  0.73170986  1
  O  O346  1  0.06444010  0.75947125  0.22543316  1
  O  O347  1  0.06472803  0.76911884  0.72793754  1
  O  O348  1  0.39717454  0.09868642  0.22620984  1
  O  O349  1  0.41296283  0.08347195  0.73693595  1
  O  O350  1  0.39987699  0.42173291  0.23337894  1
  O  O351  1  0.40166145  0.42763148  0.71981700  1
  O  O352  1  0.40018866  0.77079452  0.22586735  1
  O  O353  1  0.41833571  0.76812439  0.73970578  1
  O  O354  1  0.74182264  0.08892696  0.22689339  1
  O  O355  1  0.74097359  0.08840350  0.72118779  1
  O  O356  1  0.74359987  0.42386268  0.22742465  1
  O  O357  1  0.74347642  0.42830413  0.73352503  1
  O  O358  1  0.73985829  0.76855637  0.22216949  1
  O  O359  1  0.74355319  0.77228821  0.72496942  1
