# generated using pymatgen
data_BaLaInIrO6
_symmetry_space_group_name_H-M   'P 1'
_cell_length_a   17.53501233
_cell_length_b   17.55228472
_cell_length_c   16.49236571
_cell_angle_alpha   90.00711599
_cell_angle_beta   89.99208289
_cell_angle_gamma   89.95184895
_symmetry_Int_Tables_number   1
_chemical_formula_structural   BaLaInIrO6
_chemical_formula_sum   'Ba36 La36 In36 Ir36 O216'
_cell_volume   5076.01067026
_cell_formula_units_Z   36
loop_
 _symmetry_equiv_pos_site_id
 _symmetry_equiv_pos_as_xyz
  1  'x, y, z'
loop_
 _atom_site_type_symbol
 _atom_site_label
 _atom_site_symmetry_multiplicity
 _atom_site_fract_x
 _atom_site_fract_y
 _atom_site_fract_z
 _atom_site_occupancy
  Ba  Ba0  1  -0.00686176  0.15504665  0.87815604  1
  Ba  Ba1  1  0.16920790  0.00806999  0.12820177  1
  Ba  Ba2  1  0.66606093  0.17584945  0.12121335  1
  Ba  Ba3  1  0.16395938  0.00720824  0.62488976  1
  Ba  Ba4  1  0.33442121  0.83995102  0.62571152  1
  Ba  Ba5  1  0.66627025  0.82634064  0.37717830  1
  Ba  Ba6  1  0.33424379  0.50901624  0.62319084  1
  Ba  Ba7  1  0.66159161  0.82541675  0.87662757  1
  Ba  Ba8  1  0.49843230  0.01247381  0.12588103  1
  Ba  Ba9  1  1.00311864  0.51149586  0.62157094  1
  Ba  Ba10  1  0.33512265  0.82775948  0.37219183  1
  Ba  Ba11  1  0.66680161  0.48965384  0.88151117  1
  Ba  Ba12  1  0.50183034  0.66276311  0.37816786  1
  Ba  Ba13  1  0.83482635  0.98969890  0.37510300  1
  Ba  Ba14  1  0.83589883  0.31699707  0.87634597  1
  Ba  Ba15  1  0.33825558  0.15907306  0.37407034  1
  Ba  Ba16  1  0.33093094  0.82140291  0.88155176  1
  Ba  Ba17  1  0.33623312  0.48974011  0.37389399  1
  Ba  Ba18  1  0.83394936  0.32444284  0.37481250  1
  Ba  Ba19  1  0.83248933  0.67668378  0.11971881  1
  Ba  Ba20  1  1.00171542  0.50561457  0.12540536  1
  Ba  Ba21  1  0.16410073  0.99075729  0.87909842  1
  Ba  Ba22  1  0.33486763  0.17247003  0.12486292  1
  Ba  Ba23  1  0.50263647  0.99471818  0.87924733  1
  Ba  Ba24  1  0.50065358  0.33767321  0.62539187  1
  Ba  Ba25  1  0.16005734  0.67764799  0.62245060  1
  Ba  Ba26  1  0.16896418  0.99346828  0.37414389  1
  Ba  Ba27  1  1.00214093  0.17360885  0.12928962  1
  Ba  Ba28  1  0.50175209  0.32237533  0.37669688  1
  Ba  Ba29  1  0.50201640  0.99306954  0.37170984  1
  Ba  Ba30  1  0.66956572  0.16365243  0.87460100  1
  Ba  Ba31  1  0.83387245  0.65770679  0.37295162  1
  Ba  Ba32  1  1.00017876  0.84313049  0.62488653  1
  Ba  Ba33  1  0.83014070  0.34160763  0.62811895  1
  Ba  Ba34  1  0.33110770  0.84301955  0.12539950  1
  Ba  Ba35  1  0.66851432  0.84503193  0.62484417  1
  La  La36  1  0.17658240  0.32195183  0.37322214  1
  La  La37  1  0.15974902  0.68288731  0.12459944  1
  La  La38  1  0.50306665  0.31912267  0.87471356  1
  La  La39  1  0.16884051  0.65306869  0.87788239  1
  La  La40  1  0.66820383  0.17622387  0.62232747  1
  La  La41  1  0.66971778  0.85416705  0.12834105  1
  La  La42  1  -0.00449956  0.82069496  0.87246055  1
  La  La43  1  0.49926493  0.67992923  0.12250737  1
  La  La44  1  -0.00945284  0.81811117  0.37615250  1
  La  La45  1  0.32798540  0.15299947  0.87399201  1
  La  La46  1  0.65953435  0.15150564  0.37416298  1
  La  La47  1  0.65975946  0.48452579  0.37245073  1
  La  La48  1  0.49643432  0.67942090  0.62681530  1
  La  La49  1  0.16674849  0.32020391  0.87741520  1
  La  La50  1  0.33271564  0.48736047  0.87587647  1
  La  La51  1  0.67422750  0.51600471  0.62117105  1
  La  La52  1  0.82780197  0.33789392  0.12314155  1
  La  La53  1  0.83069075  0.68611105  0.62187116  1
  La  La54  1  0.33581160  0.51425248  0.12523427  1
  La  La55  1  -0.00754584  0.48126058  0.86956159  1
  La  La56  1  0.84230858  0.64980200  0.86695376  1
  La  La57  1  -0.00371573  0.14883588  0.37429427  1
  La  La58  1  0.16619712  0.33719000  0.12826680  1
  La  La59  1  1.00149879  0.18122871  0.62517306  1
  La  La60  1  0.50129169  0.65447591  0.87007022  1
  La  La61  1  0.67054522  0.50967315  0.12809146  1
  La  La62  1  0.82980364  0.01511727  0.62438274  1
  La  La63  1  0.16384975  0.34346464  0.62278489  1
  La  La64  1  0.49501857  0.01574442  0.62596992  1
  La  La65  1  0.00071055  0.48463331  0.37691474  1
  La  La66  1  0.17175398  0.65357091  0.37550348  1
  La  La67  1  0.49604756  0.34144331  0.12515422  1
  La  La68  1  0.82764113  0.02200976  0.12719210  1
  La  La69  1  0.83970713  0.99359564  0.87843689  1
  La  La70  1  0.33636540  0.17500932  0.62190088  1
  La  La71  1  1.00528879  0.84954940  0.12779798  1
  In  In72  1  0.16510941  0.16789941  0.74828844  1
  In  In73  1  0.33340176  -0.00209138  -0.00205075  1
  In  In74  1  0.66837920  0.00367073  0.75003006  1
  In  In75  1  0.50281881  0.49950205  0.50131285  1
  In  In76  1  0.33193122  0.66752520  0.49970393  1
  In  In77  1  0.50180879  0.83192786  0.24841355  1
  In  In78  1  -0.00110687  0.00031817  0.74795808  1
  In  In79  1  0.66810691  0.33301244  0.50011035  1
  In  In80  1  0.16691827  0.49838610  0.49792777  1
  In  In81  1  0.66657578  0.33560593  0.75279373  1
  In  In82  1  0.83518123  0.50152649  0.49795112  1
  In  In83  1  0.16477184  0.16660642  0.00015527  1
  In  In84  1  0.83395702  0.49666270  0.00035112  1
  In  In85  1  0.50210997  0.49846991  0.74955352  1
  In  In86  1  0.83580942  0.49886611  0.25083798  1
  In  In87  1  0.33158586  0.33245790  0.75134194  1
  In  In88  1  0.33159007  0.66578720  0.75264132  1
  In  In89  1  0.50014429  0.50010557  0.24593149  1
  In  In90  1  0.33465098  0.00029241  0.25076317  1
  In  In91  1  0.66799730  0.00275230  -0.00122911  1
  In  In92  1  0.66712567  0.66558721  0.24726618  1
  In  In93  1  0.16282407  0.83167246  0.25451312  1
  In  In94  1  0.66967036  0.66564106  0.75379888  1
  In  In95  1  0.33179253  0.00001869  0.50236960  1
  In  In96  1  0.00072259  0.66485423  -0.00059245  1
  In  In97  1  0.49968804  0.83551402  0.75243170  1
  In  In98  1  0.16468997  0.16705499  0.25309078  1
  In  In99  1  0.16434500  0.49788025  0.75448563  1
  In  In100  1  0.16626117  0.83312171  0.75177920  1
  In  In101  1  0.66835835  0.66856455  -0.00031042  1
  In  In102  1  0.16663218  0.49908765  0.24555529  1
  In  In103  1  0.50143301  0.83686411  0.50278504  1
  In  In104  1  0.83202966  0.83709688  0.75250128  1
  In  In105  1  0.83477779  0.83402631  0.24497565  1
  In  In106  1  0.00108158  0.33344151  0.00468281  1
  In  In107  1  0.83569688  0.16763721  0.49680733  1
  Ir  Ir108  1  0.83720081  0.50137475  0.74634571  1
  Ir  Ir109  1  0.33431775  0.33776030  0.00046903  1
  Ir  Ir110  1  0.50516490  0.17280697  0.24911370  1
  Ir  Ir111  1  0.49542631  0.49873702  0.00111620  1
  Ir  Ir112  1  0.83518736  0.83466141  0.49885127  1
  Ir  Ir113  1  0.67131952  0.66592749  0.50108841  1
  Ir  Ir114  1  0.33302887  0.66244472  0.00341229  1
  Ir  Ir115  1  0.83502855  0.83702501  0.00158538  1
  Ir  Ir116  1  0.33233112  0.33309400  0.24772121  1
  Ir  Ir117  1  -0.00216774  -0.00077132  0.49768498  1
  Ir  Ir118  1  0.83283518  0.17024662  0.25028126  1
  Ir  Ir119  1  -0.00468303  0.00012840  0.25083437  1
  Ir  Ir120  1  0.00118750  0.33170477  0.25505727  1
  Ir  Ir121  1  0.50035965  0.82890901  0.00098278  1
  Ir  Ir122  1  0.83441069  0.16618629  0.00244959  1
  Ir  Ir123  1  -0.00025735  0.66573299  0.74967617  1
  Ir  Ir124  1  0.50319282  0.16574740  0.50213665  1
  Ir  Ir125  1  0.66563567  0.33056319  0.24482109  1
  Ir  Ir126  1  0.33422818  0.00376252  0.74885615  1
  Ir  Ir127  1  0.49727740  0.17468066  -0.00047332  1
  Ir  Ir128  1  -0.00432240  -0.00476391  0.00455637  1
  Ir  Ir129  1  0.49727794  0.16675064  0.75050042  1
  Ir  Ir130  1  0.00373332  0.66630708  0.25066804  1
  Ir  Ir131  1  0.32995851  0.32683054  0.49676214  1
  Ir  Ir132  1  0.15770493  0.83382334  0.49685978  1
  Ir  Ir133  1  0.83581532  0.16504967  0.74877382  1
  Ir  Ir134  1  0.32940747  0.66344005  0.24351904  1
  Ir  Ir135  1  0.00524276  0.32967894  0.49768119  1
  Ir  Ir136  1  0.17095157  0.49927042  -0.00018998  1
  Ir  Ir137  1  0.00006887  0.66878190  0.49584953  1
  Ir  Ir138  1  0.67157238  0.00515405  0.24923376  1
  Ir  Ir139  1  0.66731011  0.00414470  0.50128791  1
  Ir  Ir140  1  -0.00099056  0.33381931  0.74528038  1
  Ir  Ir141  1  0.15965382  0.83079506  0.00155787  1
  Ir  Ir142  1  0.16315637  0.16983113  0.50180949  1
  Ir  Ir143  1  0.66063677  0.33245386  0.00260237  1
  O  O144  1  0.30109734  0.32981641  0.12453832  1
  O  O145  1  0.30057483  0.31909049  0.61807575  1
  O  O146  1  0.29585650  0.65659167  0.12251793  1
  O  O147  1  0.30731909  0.66390571  0.62641449  1
  O  O148  1  0.32064572  1.00802049  0.12255178  1
  O  O149  1  0.31338817  1.01049310  0.63069200  1
  O  O150  1  0.63275170  0.32777228  0.12399280  1
  O  O151  1  0.65018354  0.31341567  0.62832930  1
  O  O152  1  0.63379336  0.64725033  0.11993018  1
  O  O153  1  0.64111541  0.65380172  0.62186033  1
  O  O154  1  0.65222146  0.99817505  0.12795303  1
  O  O155  1  0.63625241  1.00867742  0.61921176  1
  O  O156  1  0.96746064  0.32990720  0.13569698  1
  O  O157  1  0.97653194  0.31999141  0.61973926  1
  O  O158  1  0.98172728  0.65970824  0.13064975  1
  O  O159  1  0.96790838  0.66478336  0.62338680  1
  O  O160  1  0.96389701  0.98923114  0.12870321  1
  O  O161  1  0.96605817  0.99627032  0.61705619  1
  O  O162  1  0.18114928  0.17601428  0.12565394  1
  O  O163  1  0.19751383  0.17130560  0.62014183  1
  O  O164  1  0.20095465  0.48157059  0.11882847  1
  O  O165  1  0.18274978  0.48427881  0.62589662  1
  O  O166  1  0.17902655  0.82102824  0.12145596  1
  O  O167  1  0.17872976  0.83097316  0.61720362  1
  O  O168  1  0.51957671  0.18727452  0.12284560  1
  O  O169  1  0.53089756  0.15991503  0.62633752  1
  O  O170  1  0.53074933  0.48590656  0.11735359  1
  O  O171  1  0.53991304  0.49072737  0.62535853  1
  O  O172  1  0.53213850  0.81938318  0.11804238  1
  O  O173  1  0.52090056  0.81481533  0.62696886  1
  O  O174  1  0.85571550  0.17164291  0.12645936  1
  O  O175  1  0.86402264  0.15896840  0.62822116  1
  O  O176  1  0.85617324  0.47534034  0.12644772  1
  O  O177  1  0.85640580  0.49737397  0.62801357  1
  O  O178  1  0.87053858  0.82820368  0.11739969  1
  O  O179  1  0.85205460  0.82838630  0.61939465  1
  O  O180  1  0.13016011  0.18069203  0.38243977  1
  O  O181  1  0.14036974  0.18356967  0.87475419  1
  O  O182  1  0.13655944  0.50775155  0.37086350  1
  O  O183  1  0.13230009  0.51202419  0.88338824  1
  O  O184  1  0.12641250  0.83622708  0.37862955  1
  O  O185  1  0.13121869  0.83357349  0.88334391  1
  O  O186  1  0.48651182  0.16387780  0.37542924  1
  O  O187  1  0.46556510  0.17707376  0.87301311  1
  O  O188  1  0.48569336  0.50384085  0.37199783  1
  O  O189  1  0.46362938  0.51194111  0.88403898  1
  O  O190  1  0.49074079  0.83303051  0.37584547  1
  O  O191  1  0.48061045  0.83617389  0.88387902  1
  O  O192  1  0.80193940  0.16614916  0.36865280  1
  O  O193  1  0.81862356  0.15507818  0.87710522  1
  O  O194  1  0.79840695  0.49785263  0.37373748  1
  O  O195  1  0.81834549  0.50842547  0.86624101  1
  O  O196  1  0.81933365  0.83295975  0.37724210  1
  O  O197  1  0.80897372  0.85419166  0.88481228  1
  O  O198  1  0.02050820  0.01176714  0.37441119  1
  O  O199  1  0.01086506  0.00110299  0.88428772  1
  O  O200  1  0.03858238  0.34091052  0.37593312  1
  O  O201  1  0.02655459  0.33923021  0.86728627  1
  O  O202  1  0.03432646  0.67890195  0.37311790  1
  O  O203  1  0.02989772  0.67563700  0.87048783  1
  O  O204  1  0.35126429  0.00037116  0.37880532  1
  O  O205  1  0.35500548  0.00912423  0.86856713  1
  O  O206  1  0.35470155  0.33231902  0.37183685  1
  O  O207  1  0.36708943  0.34868179  0.88336162  1
  O  O208  1  0.34895905  0.66585999  0.36321087  1
  O  O209  1  0.36504993  0.66266434  0.88643793  1
  O  O210  1  0.68920186  0.01410585  0.37553460  1
  O  O211  1  0.70163316  0.00615468  0.87650391  1
  O  O212  1  0.68610479  0.34278584  0.36445376  1
  O  O213  1  0.68622304  0.33196005  0.88316607  1
  O  O214  1  0.68675951  0.67179983  0.37981658  1
  O  O215  1  0.70952723  0.66994016  0.87897067  1
  O  O216  1  0.06818947  0.08407422  0.01931629  1
  O  O217  1  0.06580633  0.10091790  0.52288722  1
  O  O218  1  0.08320409  0.42956481  0.01904266  1
  O  O219  1  0.07630295  0.41695593  0.51782778  1
  O  O220  1  0.06702616  0.76323067  0.02413222  1
  O  O221  1  0.06323849  0.76534420  0.51129300  1
  O  O222  1  0.41274121  0.10060698  0.00616056  1
  O  O223  1  0.41226083  0.09774005  0.52956235  1
  O  O224  1  0.40140308  0.43088922  0.02993946  1
  O  O225  1  0.40287506  0.41358278  0.51603125  1
  O  O226  1  0.40964193  0.75227076  0.02884572  1
  O  O227  1  0.40953554  0.75669409  0.51413742  1
  O  O228  1  0.74889156  0.09290075  0.02185034  1
  O  O229  1  0.73815141  0.09289248  0.52536458  1
  O  O230  1  0.73392853  0.41816574  0.02824187  1
  O  O231  1  0.73741562  0.43297935  0.52331659  1
  O  O232  1  0.73831271  0.77446559  0.02752037  1
  O  O233  1  0.74457346  0.75917428  0.52431622  1
  O  O234  1  0.10232034  0.27246567  0.01769494  1
  O  O235  1  0.09473607  0.25941166  0.53157960  1
  O  O236  1  0.10824473  0.59624773  0.02322294  1
  O  O237  1  0.08951344  0.59798105  0.50806698  1
  O  O238  1  0.08781121  0.92161206  0.02953371  1
  O  O239  1  0.08874601  0.92924342  0.51585484  1
  O  O240  1  0.42926756  0.27235671  0.02096042  1
  O  O241  1  0.41913418  0.24953337  0.52619388  1
  O  O242  1  0.42503202  0.59066053  0.03419960  1
  O  O243  1  0.43339927  0.59539047  0.52550431  1
  O  O244  1  0.42903773  0.91839434  0.01719209  1
  O  O245  1  0.43257062  0.93533621  0.53024988  1
  O  O246  1  0.76321527  0.26445902  0.02212969  1
  O  O247  1  0.75945787  0.25550472  0.51794079  1
  O  O248  1  0.75176357  0.58074847  0.02316814  1
  O  O249  1  0.76557098  0.60255755  0.52746966  1
  O  O250  1  0.77053640  0.92952675  0.03267190  1
  O  O251  1  0.76513680  0.93460561  0.52327854  1
  O  O252  1  0.24301086  0.08000220  0.26736560  1
  O  O253  1  0.24452549  0.07473472  0.77113952  1
  O  O254  1  0.23852858  0.39960116  0.26928476  1
  O  O255  1  0.22903583  0.39682249  0.77636973  1
  O  O256  1  0.23087524  0.72581347  0.26418318  1
  O  O257  1  0.23001217  0.73407882  0.78088012  1
  O  O258  1  0.58118274  0.08213612  0.27149425  1
  O  O259  1  0.56960416  0.08079790  0.76678543  1
  O  O260  1  0.57352058  0.39604722  0.25805325  1
  O  O261  1  0.56638733  0.39872097  0.78079520  1
  O  O262  1  0.56495355  0.72916901  0.25176219  1
  O  O263  1  0.56913728  0.73264311  0.77439915  1
  O  O264  1  0.90327479  0.07601715  0.26821523  1
  O  O265  1  0.89430824  0.06537566  0.76440500  1
  O  O266  1  0.91894836  0.40806203  0.28032908  1
  O  O267  1  0.90716386  0.40679776  0.77191778  1
  O  O268  1  0.91492493  0.73776187  0.26869280  1
  O  O269  1  0.90716400  0.73345199  0.77355853  1
  O  O270  1  0.25740201  0.24978471  0.27176225  1
  O  O271  1  0.26255776  0.23770928  0.77964466  1
  O  O272  1  0.26470530  0.57059113  0.25922804  1
  O  O273  1  0.26091131  0.56762679  0.78499955  1
  O  O274  1  0.25367576  0.90568866  0.26157848  1
  O  O275  1  0.26646051  0.91192496  0.76630414  1
  O  O276  1  0.60259100  0.23650250  0.27251160  1
  O  O277  1  0.58367255  0.23893779  0.76971839  1
  O  O278  1  0.60715380  0.55590956  0.26233289  1
  O  O279  1  0.59637153  0.57218491  0.77592865  1
  O  O280  1  0.60583282  0.90994378  0.25596943  1
  O  O281  1  0.59353611  0.91160077  0.76614892  1
  O  O282  1  0.93112922  0.23628365  0.27973373  1
  O  O283  1  0.93397902  0.23519757  0.75919238  1
  O  O284  1  0.94187750  0.57052463  0.27621371  1
  O  O285  1  0.93300650  0.56920757  0.77495974  1
  O  O286  1  0.93412133  0.90290468  0.26828868  1
  O  O287  1  0.93059984  0.90159452  0.77824339  1
  O  O288  1  0.25091976  0.24178383  0.47151427  1
  O  O289  1  0.26812362  0.24848478  0.96950244  1
  O  O290  1  0.25338832  0.57811220  0.47380930  1
  O  O291  1  0.26558277  0.56690426  0.97613715  1
  O  O292  1  0.24886476  0.90301960  0.48639146  1
  O  O293  1  0.24846088  0.90366377  0.98672790  1
  O  O294  1  0.59873112  0.22939680  0.48174224  1
  O  O295  1  0.58436344  0.24791721  0.97503946  1
  O  O296  1  0.61324454  0.56858266  0.48115618  1
  O  O297  1  0.57774195  0.57299563  0.97501938  1
  O  O298  1  0.59967978  0.91534865  0.48566254  1
  O  O299  1  0.59169130  0.90235286  0.99361258  1
  O  O300  1  0.93940626  0.23592875  0.47729741  1
  O  O301  1  0.92359728  0.23825022  0.98873724  1
  O  O302  1  0.93578841  0.57299705  0.47163577  1
  O  O303  1  0.92821186  0.57408305  0.97070132  1
  O  O304  1  0.93198010  0.90327204  0.47289378  1
  O  O305  1  0.93105038  0.89981283  0.97721230  1
  O  O306  1  0.23559936  0.08372425  0.48511348  1
  O  O307  1  0.24839438  0.08376534  0.97455528  1
  O  O308  1  0.23893262  0.39740273  0.47597268  1
  O  O309  1  0.23960514  0.40526130  0.96907958  1
  O  O310  1  0.22463246  0.74215395  0.47198501  1
  O  O311  1  0.23014075  0.73093688  0.98037726  1
  O  O312  1  0.57741919  0.07634665  0.47729104  1
  O  O313  1  0.57351850  0.08671631  0.98760785  1
  O  O314  1  0.57951916  0.40900525  0.47513280  1
  O  O315  1  0.56075705  0.40077776  0.97767240  1
  O  O316  1  0.58261600  0.73452956  0.49186224  1
  O  O317  1  0.56407372  0.73359195  0.97760737  1
  O  O318  1  0.91094286  0.07268689  0.47985217  1
  O  O319  1  0.89762606  0.06214267  0.98961751  1
  O  O320  1  0.92062953  0.40773507  0.47560230  1
  O  O321  1  0.91553234  0.41068892  0.97383311  1
  O  O322  1  0.90539541  0.74083781  0.47904204  1
  O  O323  1  0.89986213  0.74271638  0.96760030  1
  O  O324  1  0.09304854  0.26707128  0.23161603  1
  O  O325  1  0.09461849  0.27043576  0.72119454  1
  O  O326  1  0.09996226  0.60338326  0.22918425  1
  O  O327  1  0.09051774  0.59715783  0.73730297  1
  O  O328  1  0.08209597  0.92697221  0.22864352  1
  O  O329  1  0.09346319  0.92735595  0.73955427  1
  O  O330  1  0.43153402  0.26761956  0.22742070  1
  O  O331  1  0.42357474  0.25212906  0.72934451  1
  O  O332  1  0.42230576  0.59456830  0.21485264  1
  O  O333  1  0.43687845  0.60141526  0.73188110  1
  O  O334  1  0.42776726  0.92302771  0.23179987  1
  O  O335  1  0.42906807  0.94037284  0.72663561  1
  O  O336  1  0.76591211  0.26655487  0.22692140  1
  O  O337  1  0.76283936  0.25392719  0.73951022  1
  O  O338  1  0.76163234  0.59065899  0.22387813  1
  O  O339  1  0.77452030  0.59652916  0.72398230  1
  O  O340  1  0.76377099  0.93564289  0.22365210  1
  O  O341  1  0.77025018  0.93923911  0.72492322  1
  O  O342  1  0.06428709  0.09223276  0.24448559  1
  O  O343  1  0.06491572  0.10145836  0.72500881  1
  O  O344  1  0.07408409  0.41837355  0.22952625  1
  O  O345  1  0.06302440  0.42717547  0.73751668  1
  O  O346  1  0.06572038  0.76090648  0.22478217  1
  O  O347  1  0.06334264  0.75840881  0.73686663  1
  O  O348  1  0.41880613  0.10081540  0.23658050  1
  O  O349  1  0.40250898  0.09947821  0.72497426  1
  O  O350  1  0.40154331  0.42402582  0.21874623  1
  O  O351  1  0.39875669  0.43056470  0.73999968  1
  O  O352  1  0.40084081  0.74968492  0.22537464  1
  O  O353  1  0.40492928  0.76113957  0.74023510  1
  O  O354  1  0.74328954  0.09769421  0.22658560  1
  O  O355  1  0.74156357  0.10195138  0.71971392  1
  O  O356  1  0.73356203  0.42052492  0.22104317  1
  O  O357  1  0.73959085  0.43775120  0.72768266  1
  O  O358  1  0.73557823  0.76796591  0.22205669  1
  O  O359  1  0.74701109  0.75635474  0.72835291  1
