# generated using pymatgen
data_BaLaInIrO6
_symmetry_space_group_name_H-M   'P 1'
_cell_length_a   17.53211268
_cell_length_b   17.54252420
_cell_length_c   16.49315811
_cell_angle_alpha   89.97750554
_cell_angle_beta   90.00043311
_cell_angle_gamma   90.03679802
_symmetry_Int_Tables_number   1
_chemical_formula_structural   BaLaInIrO6
_chemical_formula_sum   'Ba36 La36 In36 Ir36 O216'
_cell_volume   5072.59322148
_cell_formula_units_Z   36
loop_
 _symmetry_equiv_pos_site_id
 _symmetry_equiv_pos_as_xyz
  1  'x, y, z'
loop_
 _atom_site_type_symbol
 _atom_site_label
 _atom_site_symmetry_multiplicity
 _atom_site_fract_x
 _atom_site_fract_y
 _atom_site_fract_z
 _atom_site_occupancy
  Ba  Ba0  1  0.66585771  0.84277613  0.62270958  1
  Ba  Ba1  1  0.16505455  0.99396676  0.37424239  1
  Ba  Ba2  1  0.82762665  0.01597762  0.12066719  1
  Ba  Ba3  1  0.50421487  0.65610426  0.37947704  1
  Ba  Ba4  1  0.16917677  0.33080142  0.37946484  1
  Ba  Ba5  1  0.82898113  0.00986145  0.62817822  1
  Ba  Ba6  1  0.66889809  0.82790392  0.87190084  1
  Ba  Ba7  1  0.16492511  0.01564397  0.62682001  1
  Ba  Ba8  1  -0.00007500  0.49156178  0.38108530  1
  Ba  Ba9  1  1.00400424  0.50653244  0.62664904  1
  Ba  Ba10  1  -0.00660215  0.16270967  0.37898053  1
  Ba  Ba11  1  0.83326625  0.65699425  0.37865385  1
  Ba  Ba12  1  0.67032745  0.18622667  0.12101800  1
  Ba  Ba13  1  0.49428808  0.00518193  0.62579183  1
  Ba  Ba14  1  0.66401628  0.15342728  0.37411482  1
  Ba  Ba15  1  0.32865438  0.48886128  0.87107071  1
  Ba  Ba16  1  0.83393582  0.99279834  0.87446725  1
  Ba  Ba17  1  0.50170183  0.67362322  0.12511888  1
  Ba  Ba18  1  1.00182589  0.83853410  0.12336291  1
  Ba  Ba19  1  0.16274891  0.01818265  0.12380911  1
  Ba  Ba20  1  0.83831110  0.67444714  0.62324042  1
  Ba  Ba21  1  0.83506915  0.32944004  0.37535138  1
  Ba  Ba22  1  0.49998986  0.32358322  0.37407668  1
  Ba  Ba23  1  -0.00309251  0.48486145  0.87550085  1
  Ba  Ba24  1  0.50494059  0.65196762  0.87058998  1
  Ba  Ba25  1  0.33232097  0.49640832  0.36752288  1
  Ba  Ba26  1  0.33372771  0.17494690  0.12581713  1
  Ba  Ba27  1  0.16594565  0.65549072  0.87592855  1
  Ba  Ba28  1  0.66431382  0.15963339  0.87852243  1
  Ba  Ba29  1  0.83754180  0.65544899  0.87277713  1
  Ba  Ba30  1  0.99276388  0.50218610  0.12831051  1
  Ba  Ba31  1  0.50099056  0.34098097  0.12162845  1
  Ba  Ba32  1  0.16856263  0.65847725  0.37250929  1
  Ba  Ba33  1  0.16675288  0.99064842  0.87686928  1
  Ba  Ba34  1  0.33290331  0.84213898  0.62901620  1
  Ba  Ba35  1  0.83119873  0.32736262  0.87264524  1
  La  La36  1  0.16919515  0.32065366  0.87138177  1
  La  La37  1  0.49673644  0.34720811  0.62667233  1
  La  La38  1  0.16506234  0.67218188  0.12602127  1
  La  La39  1  0.16630049  0.35208564  0.62520093  1
  La  La40  1  0.84393508  0.33380868  0.12208881  1
  La  La41  1  0.32471962  0.15858524  0.37854320  1
  La  La42  1  -0.00347423  0.15948446  0.87527440  1
  La  La43  1  0.66467815  0.17535238  0.62175704  1
  La  La44  1  0.33484479  0.84585836  0.12503392  1
  La  La45  1  0.83630758  0.34193050  0.62457489  1
  La  La46  1  0.50336930  0.98652713  0.87662349  1
  La  La47  1  0.66742141  0.82111833  0.37553355  1
  La  La48  1  0.50212105  0.32230733  0.87432862  1
  La  La49  1  0.82630228  0.68075163  0.12489600  1
  La  La50  1  0.67505129  0.85018784  0.12339378  1
  La  La51  1  0.84136073  0.98822699  0.37836667  1
  La  La52  1  0.67433842  0.50584859  0.12364656  1
  La  La53  1  1.00482051  0.18631423  0.62897458  1
  La  La54  1  0.33129773  0.81802535  0.38116931  1
  La  La55  1  0.50097230  0.98197977  0.37221708  1
  La  La56  1  0.33062267  0.81513278  0.87960758  1
  La  La57  1  0.33566822  0.18160091  0.62725889  1
  La  La58  1  0.99739942  0.17174578  0.12539027  1
  La  La59  1  0.67242845  0.50838979  0.62550499  1
  La  La60  1  0.16094845  0.34744119  0.12394842  1
  La  La61  1  0.33524949  0.51137432  0.12247849  1
  La  La62  1  0.49754333  0.68595539  0.62577174  1
  La  La63  1  0.49778743  0.01244856  0.12290583  1
  La  La64  1  0.66824581  0.49412610  0.87342168  1
  La  La65  1  -0.01214228  0.81502758  0.87124189  1
  La  La66  1  0.32904479  0.15304485  0.87741851  1
  La  La67  1  1.00868521  0.84822070  0.62672726  1
  La  La68  1  0.65718390  0.48293385  0.37459086  1
  La  La69  1  -0.00341164  0.81992255  0.37266161  1
  La  La70  1  0.15981761  0.67880089  0.62519267  1
  La  La71  1  0.33506367  0.51634157  0.62086441  1
  In  In72  1  0.00170879  0.00382477  0.74976500  1
  In  In73  1  0.66367639  0.00534037  0.74844801  1
  In  In74  1  0.49926636  0.16732542  -0.00112657  1
  In  In75  1  0.33562263  0.33670409  0.50274234  1
  In  In76  1  0.16533577  0.83184344  0.00131616  1
  In  In77  1  0.00051646  0.65871962  0.00429573  1
  In  In78  1  0.83431706  0.83308239  -0.00144264  1
  In  In79  1  0.00108681  0.00167838  -0.00102921  1
  In  In80  1  0.33675950  0.67084124  0.24805351  1
  In  In81  1  0.33294317  0.00178813  0.50153754  1
  In  In82  1  0.50202495  0.50116599  0.24440693  1
  In  In83  1  0.49718124  0.83462459  0.75274966  1
  In  In84  1  0.66649961  0.66436605  -0.00149705  1
  In  In85  1  0.66768385  0.66423825  0.50074223  1
  In  In86  1  0.33332222  0.33455468  0.24785795  1
  In  In87  1  0.33170539  0.33491736  -0.00177236  1
  In  In88  1  0.16606961  0.17179239  0.25225846  1
  In  In89  1  0.33582496  -0.00036750  0.25177590  1
  In  In90  1  0.66524693  0.32969097  0.50194347  1
  In  In91  1  0.16903306  0.83454457  0.25114490  1
  In  In92  1  0.00155427  0.33229285  0.25293942  1
  In  In93  1  0.49908862  0.83072688  0.00350696  1
  In  In94  1  0.33325600  0.66311061  0.75059671  1
  In  In95  1  0.66761258  0.66371662  0.74677935  1
  In  In96  1  0.83365202  0.83419278  0.74398559  1
  In  In97  1  0.82876234  0.16653874  0.25210503  1
  In  In98  1  0.49944899  0.16547375  0.24945393  1
  In  In99  1  0.16719097  0.83424189  0.75539300  1
  In  In100  1  -0.00169540  0.00260064  0.24964233  1
  In  In101  1  0.66455190  0.33128557  0.74905180  1
  In  In102  1  0.16589933  0.83473912  0.49989498  1
  In  In103  1  0.83192261  0.16666596  0.50455606  1
  In  In104  1  0.00005945  0.66589309  0.49962621  1
  In  In105  1  0.83318485  0.83378953  0.25179088  1
  In  In106  1  0.83052874  0.50076026  0.25372998  1
  In  In107  1  0.49724503  0.16375583  0.50093455  1
  Ir  Ir108  1  0.00425618  0.33302767  0.75039165  1
  Ir  Ir109  1  0.00309712  0.33195511  -0.00543121  1
  Ir  Ir110  1  0.83598080  0.17153739  0.74922351  1
  Ir  Ir111  1  0.16834877  0.49602523  0.75101758  1
  Ir  Ir112  1  0.66529111  -0.00363057  0.25149835  1
  Ir  Ir113  1  0.33525601  0.66470294  0.50270228  1
  Ir  Ir114  1  0.83311811  0.17319214  -0.00684063  1
  Ir  Ir115  1  0.17002800  0.17269742  0.74941356  1
  Ir  Ir116  1  0.50062044  0.49803338  -0.00438607  1
  Ir  Ir117  1  -0.00238440  0.00199368  0.50146823  1
  Ir  Ir118  1  0.00258414  0.33526616  0.50697995  1
  Ir  Ir119  1  0.66555553  0.34186611  -0.00158565  1
  Ir  Ir120  1  0.16573584  0.50147929  0.24746773  1
  Ir  Ir121  1  0.66349680  0.00207998  0.00026911  1
  Ir  Ir122  1  0.50277492  0.50057996  0.50532939  1
  Ir  Ir123  1  0.33220746  0.66164747  0.00102769  1
  Ir  Ir124  1  0.49853118  0.49369475  0.74712340  1
  Ir  Ir125  1  0.16756568  0.49564272  -0.00058409  1
  Ir  Ir126  1  0.49951946  0.83211205  0.49428325  1
  Ir  Ir127  1  0.66721203  0.33976385  0.24714548  1
  Ir  Ir128  1  0.83507480  0.83809563  0.49756189  1
  Ir  Ir129  1  0.00260683  0.66136612  0.74825418  1
  Ir  Ir130  1  0.83150209  0.49614322  0.50615884  1
  Ir  Ir131  1  0.83554382  0.49620620  0.74667836  1
  Ir  Ir132  1  0.66510101  -0.00373506  0.49456927  1
  Ir  Ir133  1  0.33389979  -0.00132544  -0.00093760  1
  Ir  Ir134  1  0.17172314  0.50183773  0.50226384  1
  Ir  Ir135  1  0.50750894  0.83279158  0.24806808  1
  Ir  Ir136  1  0.66651838  0.66711119  0.24878905  1
  Ir  Ir137  1  -0.00188012  0.66334545  0.24901523  1
  Ir  Ir138  1  0.16485188  0.16916586  0.50648961  1
  Ir  Ir139  1  0.33356321  0.00534671  0.75636047  1
  Ir  Ir140  1  0.33374774  0.33267857  0.74889471  1
  Ir  Ir141  1  0.49447975  0.16796271  0.75114849  1
  Ir  Ir142  1  0.83145744  0.49462156  -0.00115026  1
  Ir  Ir143  1  0.16617450  0.17413737  -0.00662732  1
  O  O144  1  0.29498449  0.33226825  0.12118891  1
  O  O145  1  0.30110852  0.32297830  0.63157574  1
  O  O146  1  0.30455690  0.65587241  0.11939842  1
  O  O147  1  0.30205197  0.65734588  0.62148734  1
  O  O148  1  0.30927065  0.98228252  0.11802806  1
  O  O149  1  0.31415815  0.99791406  0.63599183  1
  O  O150  1  0.65294862  0.35733658  0.12292878  1
  O  O151  1  0.63085594  0.32031236  0.62796745  1
  O  O152  1  0.64951006  0.64765907  0.12980235  1
  O  O153  1  0.63121596  0.64617200  0.62261866  1
  O  O154  1  0.63469679  0.98975926  0.12806169  1
  O  O155  1  0.64340206  1.00070546  0.61523371  1
  O  O156  1  0.98118123  0.32125590  0.11444711  1
  O  O157  1  0.97440040  0.32956809  0.62996304  1
  O  O158  1  0.96313122  0.65899163  0.13204590  1
  O  O159  1  0.98804164  0.65924947  0.62955443  1
  O  O160  1  0.97854770  1.02413174  0.12222929  1
  O  O161  1  0.97786722  0.99198730  0.62017604  1
  O  O162  1  0.18400364  0.17736335  0.11225638  1
  O  O163  1  0.19891543  0.17027692  0.62824158  1
  O  O164  1  0.19615759  0.48788115  0.12245001  1
  O  O165  1  0.19825243  0.49069120  0.62684707  1
  O  O166  1  0.20329041  0.81574808  0.12593069  1
  O  O167  1  0.18455363  0.81823990  0.62717364  1
  O  O168  1  0.52592472  0.14998169  0.12245556  1
  O  O169  1  0.52860810  0.15824932  0.63414590  1
  O  O170  1  0.53450448  0.50010589  0.11368876  1
  O  O171  1  0.53349254  0.48800452  0.62757415  1
  O  O172  1  0.53927618  0.83332517  0.12999372  1
  O  O173  1  0.51334426  0.83238641  0.61700129  1
  O  O174  1  0.85642494  0.17690843  0.11412187  1
  O  O175  1  0.86744694  0.16743128  0.63214546  1
  O  O176  1  0.83669252  0.47725112  0.11944734  1
  O  O177  1  0.85829514  0.48150061  0.62613493  1
  O  O178  1  0.85007927  0.82309956  0.12701110  1
  O  O179  1  0.87061811  0.83570834  0.61458750  1
  O  O180  1  0.14275620  0.17253765  0.38935689  1
  O  O181  1  0.13595570  0.17935970  0.86993414  1
  O  O182  1  0.14626780  0.50701651  0.37348953  1
  O  O183  1  0.14364169  0.50091643  0.87493426  1
  O  O184  1  0.13091892  0.83216863  0.37625183  1
  O  O185  1  0.12529240  0.82992767  0.87711512  1
  O  O186  1  0.46429815  0.16956544  0.37551024  1
  O  O187  1  0.46626804  0.18081698  0.86956638  1
  O  O188  1  0.48467775  0.49946904  0.38456720  1
  O  O189  1  0.47501517  0.49477967  0.87121513  1
  O  O190  1  0.47146431  0.83571387  0.36894239  1
  O  O191  1  0.46475265  0.84459113  0.87976882  1
  O  O192  1  0.81403333  0.17821426  0.37901932  1
  O  O193  1  0.81083609  0.17413665  0.86995612  1
  O  O194  1  0.79930592  0.49904066  0.38574599  1
  O  O195  1  0.80651327  0.50013190  0.87050791  1
  O  O196  1  0.80219826  0.84410558  0.37836496  1
  O  O197  1  0.81920788  0.82667278  0.87248146  1
  O  O198  1  0.01672867  0.00783043  0.38392197  1
  O  O199  1  0.02119342  0.02511024  0.87405673  1
  O  O200  1  0.01628329  0.33373626  0.38507746  1
  O  O201  1  0.03267636  0.32985673  0.87159310  1
  O  O202  1  0.01928483  0.67303242  0.37043058  1
  O  O203  1  0.01613316  0.66841336  0.86936856  1
  O  O204  1  0.36794932  0.02135710  0.37733620  1
  O  O205  1  0.36510628  0.01569381  0.87751179  1
  O  O206  1  0.35132010  0.34312720  0.37803216  1
  O  O207  1  0.36600255  0.33735121  0.86678590  1
  O  O208  1  0.35665690  0.67270003  0.38212980  1
  O  O209  1  0.35642571  0.66785507  0.88153089  1
  O  O210  1  0.69942505  -0.00505856  0.37230079  1
  O  O211  1  0.68338640  0.00454228  0.88140080  1
  O  O212  1  0.68280003  0.34214076  0.37064004  1
  O  O213  1  0.67955036  0.34419253  0.87656146  1
  O  O214  1  0.68301127  0.68102918  0.37127478  1
  O  O215  1  0.68551284  0.64840976  0.87253534  1
  O  O216  1  0.06966999  0.11512567  0.01282075  1
  O  O217  1  0.06375966  0.10144335  0.52913176  1
  O  O218  1  0.07440102  0.42508087  0.02235438  1
  O  O219  1  0.08058080  0.42592720  0.52290927  1
  O  O220  1  0.08547775  0.74269728  0.03102499  1
  O  O221  1  0.06931820  0.76164572  0.52695086  1
  O  O222  1  0.40301210  0.08744819  0.01576233  1
  O  O223  1  0.39635759  0.10219720  0.53061751  1
  O  O224  1  0.40572729  0.43462575  0.02044225  1
  O  O225  1  0.41120108  0.43386142  0.53451243  1
  O  O226  1  0.39514472  0.75936187  0.02291712  1
  O  O227  1  0.40713436  0.75865827  0.52084937  1
  O  O228  1  0.73955389  0.10043558  0.01485702  1
  O  O229  1  0.72791727  0.09312193  0.52050407  1
  O  O230  1  0.72675795  0.44158493  0.00415558  1
  O  O231  1  0.74168015  0.42431601  0.52970343  1
  O  O232  1  0.73879759  0.75751963  0.03083020  1
  O  O233  1  0.74610069  0.76289704  0.51271843  1
  O  O234  1  0.10633565  0.27418600  0.00814435  1
  O  O235  1  0.09547134  0.26420782  0.53584916  1
  O  O236  1  0.10219488  0.58659722  0.02657559  1
  O  O237  1  0.10538075  0.59656343  0.52005441  1
  O  O238  1  0.09742200  0.92968500  0.02073328  1
  O  O239  1  0.08612378  0.92962640  0.52254002  1
  O  O240  1  0.42448271  0.26029686  0.01084434  1
  O  O241  1  0.42812716  0.26395457  0.53572884  1
  O  O242  1  0.42460422  0.58724274  0.02540981  1
  O  O243  1  0.43319420  0.59567061  0.53201938  1
  O  O244  1  0.42552999  0.93058685  0.02647094  1
  O  O245  1  0.43210046  0.92389690  0.50034477  1
  O  O246  1  0.76307653  0.27490100  0.01872009  1
  O  O247  1  0.75915832  0.25867663  0.53843019  1
  O  O248  1  0.76879974  0.58986748  0.02510446  1
  O  O249  1  0.75763329  0.58216867  0.52730051  1
  O  O250  1  0.74931044  0.92641475  0.01939336  1
  O  O251  1  0.76273989  0.92967395  0.51452897  1
  O  O252  1  0.24408306  0.07893320  0.26759837  1
  O  O253  1  0.24208138  0.08161507  0.77744884  1
  O  O254  1  0.23432997  0.41318307  0.26290952  1
  O  O255  1  0.23356746  0.39580135  0.76938414  1
  O  O256  1  0.25060288  0.74630142  0.27788216  1
  O  O257  1  0.24779425  0.74526530  0.77565636  1
  O  O258  1  0.57203646  0.05917641  0.27522744  1
  O  O259  1  0.55800856  0.07517703  0.77800462  1
  O  O260  1  0.57633101  0.40778247  0.26899321  1
  O  O261  1  0.55839699  0.39735330  0.76663690  1
  O  O262  1  0.57460976  0.73943712  0.27095759  1
  O  O263  1  0.57123921  0.73760544  0.75385858  1
  O  O264  1  0.89258439  0.06427694  0.27363242  1
  O  O265  1  0.90608563  0.08326208  0.76868136  1
  O  O266  1  0.90396134  0.40452555  0.25253489  1
  O  O267  1  0.90783089  0.40016390  0.76329993  1
  O  O268  1  0.91153328  0.73775153  0.27014160  1
  O  O269  1  0.91747172  0.73646842  0.76380181  1
  O  O270  1  0.26518538  0.23645782  0.27975968  1
  O  O271  1  0.26661464  0.23869721  0.77797588  1
  O  O272  1  0.25207933  0.57538526  0.25260295  1
  O  O273  1  0.25990201  0.56466342  0.75740589  1
  O  O274  1  0.27546636  0.89896888  0.27609020  1
  O  O275  1  0.27107475  0.90930680  0.78148407  1
  O  O276  1  0.60103665  0.24644778  0.25854392  1
  O  O277  1  0.58388453  0.23711525  0.77156641  1
  O  O278  1  0.60458579  0.57033269  0.27208099  1
  O  O279  1  0.59569335  0.55322804  0.76592803  1
  O  O280  1  0.60203321  0.89792824  0.27731769  1
  O  O281  1  0.58313787  0.91656877  0.77258557  1
  O  O282  1  0.93025820  0.23443055  0.24896315  1
  O  O283  1  0.93725071  0.23618238  0.76834692  1
  O  O284  1  0.92642718  0.57585714  0.27072603  1
  O  O285  1  0.92826784  0.56885832  0.76641162  1
  O  O286  1  0.92762818  0.90411391  0.28161062  1
  O  O287  1  0.93593753  0.90035314  0.76696480  1
  O  O288  1  0.26096888  0.23266265  0.48765372  1
  O  O289  1  0.25762776  0.23849557  0.96306412  1
  O  O290  1  0.27068079  0.56631824  0.48939242  1
  O  O291  1  0.26549756  0.56282302  0.98866485  1
  O  O292  1  0.26498233  0.90368678  0.47574900  1
  O  O293  1  0.27285995  0.90136608  0.97631062  1
  O  O294  1  0.59693437  0.23003008  0.49077658  1
  O  O295  1  0.59282606  0.25211666  0.98388800  1
  O  O296  1  0.59796375  0.56275523  0.47870813  1
  O  O297  1  0.59620681  0.55966101  0.97633344  1
  O  O298  1  0.59578246  0.89962178  0.46651261  1
  O  O299  1  0.59143156  0.91503600  0.98278849  1
  O  O300  1  0.93121577  0.24615765  0.49999958  1
  O  O301  1  0.93387313  0.23735445  0.97417868  1
  O  O302  1  0.91875997  0.57258998  0.48953517  1
  O  O303  1  0.92441612  0.56004534  0.98902635  1
  O  O304  1  0.93049325  0.90717135  0.47039977  1
  O  O305  1  0.93222243  0.90403083  0.97455938  1
  O  O306  1  0.23477498  0.08053255  0.48324900  1
  O  O307  1  0.24028314  0.07880149  0.97528977  1
  O  O308  1  0.23786327  0.40921511  0.49609336  1
  O  O309  1  0.23011564  0.40205050  0.97237677  1
  O  O310  1  0.24742073  0.73716599  0.48325593  1
  O  O311  1  0.24833643  0.73626202  0.97727871  1
  O  O312  1  0.56870618  0.05742825  0.47273776  1
  O  O313  1  0.56868145  0.06767339  0.97694574  1
  O  O314  1  0.57141397  0.40971863  0.48718948  1
  O  O315  1  0.56746309  0.40547790  0.96906308  1
  O  O316  1  0.57182097  0.74274295  0.49136229  1
  O  O317  1  0.57301100  0.73935175  0.98116347  1
  O  O318  1  0.90161537  0.06653850  0.48172561  1
  O  O319  1  0.90404524  0.08666806  0.97623489  1
  O  O320  1  0.90518413  0.40397551  0.48957396  1
  O  O321  1  0.89986705  0.39457934  0.99114763  1
  O  O322  1  0.90886692  0.75221182  0.47424821  1
  O  O323  1  0.91380657  0.73902931  0.98517664  1
  O  O324  1  0.10125090  0.27095777  0.22632543  1
  O  O325  1  0.10208931  0.26739900  0.72446886  1
  O  O326  1  0.09314901  0.59453055  0.22176502  1
  O  O327  1  0.10324940  0.59428983  0.72681057  1
  O  O328  1  0.09273988  0.92664114  0.23104126  1
  O  O329  1  0.09245130  0.92535303  0.72703299  1
  O  O330  1  0.42754032  0.26011578  0.22837246  1
  O  O331  1  0.42876925  0.26519894  0.72210780  1
  O  O332  1  0.42373444  0.59180536  0.23263623  1
  O  O333  1  0.43323674  0.58786064  0.71999802  1
  O  O334  1  0.44469127  0.92601989  0.22855889  1
  O  O335  1  0.42276390  0.93705108  0.74424785  1
  O  O336  1  0.76233136  0.27513509  0.22590722  1
  O  O337  1  0.76609369  0.26182482  0.72381542  1
  O  O338  1  0.76271591  0.60298822  0.22723728  1
  O  O339  1  0.75994628  0.57908525  0.72160426  1
  O  O340  1  0.75281806  0.92660315  0.22738846  1
  O  O341  1  0.75517293  0.92835779  0.73624421  1
  O  O342  1  0.06557355  0.10681737  0.23347101  1
  O  O343  1  0.07419808  0.10917939  0.72678936  1
  O  O344  1  0.07815745  0.42947795  0.23494474  1
  O  O345  1  0.07867480  0.42226543  0.72915533  1
  O  O346  1  0.07437075  0.74704842  0.22855419  1
  O  O347  1  0.07099884  0.75177124  0.72650069  1
  O  O348  1  0.41624927  0.08067846  0.21651253  1
  O  O349  1  0.39558691  0.10603993  0.73369698  1
  O  O350  1  0.40336743  0.43331981  0.21952469  1
  O  O351  1  0.40051370  0.42795918  0.71794315  1
  O  O352  1  0.41134786  0.77147058  0.22273506  1
  O  O353  1  0.41151154  0.75226695  0.72944298  1
  O  O354  1  0.72936236  0.09049091  0.22992230  1
  O  O355  1  0.73744038  0.10827829  0.72786261  1
  O  O356  1  0.72470557  0.44002176  0.24287618  1
  O  O357  1  0.74158614  0.42708565  0.72650126  1
  O  O358  1  0.73103966  0.76174152  0.22744131  1
  O  O359  1  0.74528604  0.75344687  0.72474078  1
