# generated using pymatgen
data_BaLaInIrO6
_symmetry_space_group_name_H-M   'P 1'
_cell_length_a   17.51348729
_cell_length_b   17.53369373
_cell_length_c   16.48618369
_cell_angle_alpha   90.00549802
_cell_angle_beta   89.98345183
_cell_angle_gamma   90.02050903
_symmetry_Int_Tables_number   1
_chemical_formula_structural   BaLaInIrO6
_chemical_formula_sum   'Ba36 La36 In36 Ir36 O216'
_cell_volume   5062.51279827
_cell_formula_units_Z   36
loop_
 _symmetry_equiv_pos_site_id
 _symmetry_equiv_pos_as_xyz
  1  'x, y, z'
loop_
 _atom_site_type_symbol
 _atom_site_label
 _atom_site_symmetry_multiplicity
 _atom_site_fract_x
 _atom_site_fract_y
 _atom_site_fract_z
 _atom_site_occupancy
  Ba  Ba0  1  1.00191654  0.17558220  0.12417067  1
  Ba  Ba1  1  0.82574696  0.34258912  0.62863297  1
  Ba  Ba2  1  0.15950478  0.34513465  0.62825658  1
  Ba  Ba3  1  0.33323437  0.17719560  0.62271703  1
  Ba  Ba4  1  0.50022366  0.34217797  0.62904140  1
  Ba  Ba5  1  0.66057579  0.49398852  0.37351550  1
  Ba  Ba6  1  0.50080016  0.65978785  0.37826684  1
  Ba  Ba7  1  0.16506508  0.32776653  0.87695820  1
  Ba  Ba8  1  0.16529235  0.00954215  0.12647468  1
  Ba  Ba9  1  0.50245486  0.32764792  0.37199919  1
  Ba  Ba10  1  0.49818508  0.99394175  0.37540973  1
  Ba  Ba11  1  0.33248796  0.49520272  0.87988911  1
  Ba  Ba12  1  0.49715863  0.34620073  0.11920095  1
  Ba  Ba13  1  0.33206658  0.17503230  0.12473959  1
  Ba  Ba14  1  0.83150878  0.00664224  0.12897950  1
  Ba  Ba15  1  0.82911535  0.00968063  0.62570087  1
  Ba  Ba16  1  0.17072546  0.99260560  0.37690005  1
  Ba  Ba17  1  -0.00335735  0.15736352  0.87535927  1
  Ba  Ba18  1  0.00577224  0.82580612  0.37171433  1
  Ba  Ba19  1  1.00245506  0.84232113  0.12151124  1
  Ba  Ba20  1  0.66478190  0.15643592  0.87603093  1
  Ba  Ba21  1  0.83328563  0.67704430  0.62411136  1
  Ba  Ba22  1  0.66916023  0.17431365  0.62318433  1
  Ba  Ba23  1  0.66784324  0.84286769  0.62984172  1
  Ba  Ba24  1  0.16295100  0.34030865  0.12155767  1
  Ba  Ba25  1  0.33423222  0.49430072  0.37229800  1
  Ba  Ba26  1  0.34310800  0.84101552  0.62914649  1
  Ba  Ba27  1  0.16596071  0.67474824  0.11862921  1
  Ba  Ba28  1  0.50034465  0.65590667  0.87514980  1
  Ba  Ba29  1  0.99941809  0.17967494  0.62732105  1
  Ba  Ba30  1  0.83130367  0.67409805  0.12215246  1
  Ba  Ba31  1  1.00415455  0.83971674  0.62431342  1
  Ba  Ba32  1  0.83063392  0.34460610  0.11984833  1
  Ba  Ba33  1  0.49775032  0.32699675  0.87627571  1
  Ba  Ba34  1  0.33285785  0.51087865  0.12183918  1
  Ba  Ba35  1  0.83337536  0.32477295  0.37578745  1
  La  La36  1  0.66046521  0.48718506  0.87561239  1
  La  La37  1  0.49701159  0.01824227  0.62824717  1
  La  La38  1  0.15971483  0.01790180  0.62312649  1
  La  La39  1  1.00136902  0.50489266  0.12734959  1
  La  La40  1  0.66949302  0.51609127  0.12309047  1
  La  La41  1  0.33789712  0.84125544  0.12840379  1
  La  La42  1  0.66592571  0.81507223  0.87477773  1
  La  La43  1  0.99822617  0.51268454  0.62607172  1
  La  La44  1  0.49699955  0.01289363  0.12100975  1
  La  La45  1  0.66451782  0.82003930  0.37787489  1
  La  La46  1  0.49823348  0.67724732  0.12155421  1
  La  La47  1  -0.00758189  0.48705561  0.87425934  1
  La  La48  1  0.83895079  0.98549487  0.37888542  1
  La  La49  1  0.32973956  0.15471009  0.87391947  1
  La  La50  1  0.16792721  0.99641817  0.87635040  1
  La  La51  1  0.66379111  0.15320818  0.37569066  1
  La  La52  1  0.33321022  0.16108594  0.36939816  1
  La  La53  1  0.16069370  0.67149285  0.62256916  1
  La  La54  1  0.50284747  0.67539422  0.62605685  1
  La  La55  1  0.67470229  0.18408658  0.12630979  1
  La  La56  1  0.83502562  0.65119460  0.87075484  1
  La  La57  1  0.17581664  0.65547817  0.36779969  1
  La  La58  1  0.67390873  0.84687226  0.12434746  1
  La  La59  1  -0.00004007  0.81935364  0.87404909  1
  La  La60  1  0.83779461  0.31452541  0.87148574  1
  La  La61  1  0.83669928  0.64871243  0.37626064  1
  La  La62  1  0.33260072  0.50172971  0.63194608  1
  La  La63  1  0.33396334  0.81506232  0.88048926  1
  La  La64  1  0.17073854  0.31867375  0.37099142  1
  La  La65  1  0.83561022  0.98566670  0.87236223  1
  La  La66  1  0.17098394  0.65274989  0.87830396  1
  La  La67  1  0.50827967  0.98220800  0.87683467  1
  La  La68  1  0.67323146  0.51249636  0.62272546  1
  La  La69  1  -0.00529218  0.14995416  0.37639243  1
  La  La70  1  0.32558412  0.81277623  0.37372148  1
  La  La71  1  -0.00324762  0.49155186  0.37387985  1
  In  In72  1  0.16292772  0.16769208  0.25112306  1
  In  In73  1  0.66633804  0.66846865  0.24852837  1
  In  In74  1  0.66742782  -0.00296781  0.49896075  1
  In  In75  1  0.33726334  -0.00509699  -0.00235021  1
  In  In76  1  0.33263198  0.66476321  0.75202772  1
  In  In77  1  0.16316524  0.49767700  0.49844452  1
  In  In78  1  0.50335483  0.16843036  0.24505356  1
  In  In79  1  0.16380666  0.16992660  0.75181431  1
  In  In80  1  -0.00138648  0.33349956  0.25340227  1
  In  In81  1  0.16589247  0.16607917  -0.00239198  1
  In  In82  1  0.50232404  0.16732989  -0.00079899  1
  In  In83  1  0.00092346  0.66697095  0.49810120  1
  In  In84  1  0.49933776  0.16917385  0.49816741  1
  In  In85  1  0.50039298  0.50174199  0.50365579  1
  In  In86  1  0.33615217  -0.00246473  0.24967867  1
  In  In87  1  -0.00216551  -0.00177560  0.24888766  1
  In  In88  1  0.83170695  0.15920784  -0.00011197  1
  In  In89  1  0.33498087  -0.00217571  0.50463089  1
  In  In90  1  0.16910448  0.83257350  0.24485847  1
  In  In91  1  0.00134777  -0.00309890  0.74978561  1
  In  In92  1  -0.00492690  0.33556711  -0.00093963  1
  In  In93  1  0.16436951  0.16779567  0.49965995  1
  In  In94  1  0.33147634  0.33647366  0.49954016  1
  In  In95  1  -0.00387293  0.66533123  -0.00263646  1
  In  In96  1  0.50114435  0.83471609  0.49954536  1
  In  In97  1  0.33321493  0.66212834  0.50405746  1
  In  In98  1  0.17167815  0.83184406  0.50167536  1
  In  In99  1  0.17321797  0.83405067  0.75088939  1
  In  In100  1  -0.00010791  0.66588108  0.24933042  1
  In  In101  1  0.83178323  0.82877857  0.25054717  1
  In  In102  1  0.33531539  0.33660314  0.24787420  1
  In  In103  1  0.66660599  0.33368199  0.49765600  1
  In  In104  1  0.83387130  0.83080636  0.74976161  1
  In  In105  1  0.83181701  0.16572222  0.25344987  1
  In  In106  1  0.66482258  0.33250583  0.75308827  1
  In  In107  1  0.33187502  0.33382837  0.75276874  1
  Ir  Ir108  1  0.83049157  0.16387296  0.75063410  1
  Ir  Ir109  1  0.33767725  0.66555305  0.24353191  1
  Ir  Ir110  1  0.66624128  -0.00617918  0.00044935  1
  Ir  Ir111  1  0.82966167  0.50374485  0.75017775  1
  Ir  Ir112  1  0.66795828  0.33747739  0.24491023  1
  Ir  Ir113  1  0.67281322  0.66765065  0.50279392  1
  Ir  Ir114  1  0.33415840  0.66969002  0.00329949  1
  Ir  Ir115  1  0.00021074  -0.00777932  -0.00402467  1
  Ir  Ir116  1  0.82885154  0.83331050  -0.00418942  1
  Ir  Ir117  1  0.82662628  0.50251973  -0.00492345  1
  Ir  Ir118  1  0.50709859  0.82966184  0.00232512  1
  Ir  Ir119  1  0.50393573  0.50352648  0.24268032  1
  Ir  Ir120  1  0.66473026  -0.00160124  0.24793547  1
  Ir  Ir121  1  0.66768705  0.33852308  0.00098515  1
  Ir  Ir122  1  0.16299589  0.50264303  -0.00004239  1
  Ir  Ir123  1  0.50391312  0.50336550  -0.00185096  1
  Ir  Ir124  1  0.34071952  -0.00417046  0.75599160  1
  Ir  Ir125  1  0.50442907  0.83314653  0.75621452  1
  Ir  Ir126  1  0.33364400  0.33714861  -0.00193560  1
  Ir  Ir127  1  -0.00402275  0.33909009  0.50238390  1
  Ir  Ir128  1  0.50527992  0.50473176  0.75239459  1
  Ir  Ir129  1  0.50425697  0.83148675  0.24686251  1
  Ir  Ir130  1  0.16674338  0.83453997  -0.00714985  1
  Ir  Ir131  1  0.66593332  -0.00017255  0.75681728  1
  Ir  Ir132  1  0.49776622  0.16190175  0.75426795  1
  Ir  Ir133  1  0.83337624  0.16685397  0.50046429  1
  Ir  Ir134  1  -0.00340653  -0.00150835  0.50276400  1
  Ir  Ir135  1  0.16121460  0.50296771  0.75360511  1
  Ir  Ir136  1  0.83129641  0.83252133  0.49812672  1
  Ir  Ir137  1  0.00150385  0.66303142  0.75363483  1
  Ir  Ir138  1  0.16250623  0.50360390  0.24626329  1
  Ir  Ir139  1  -0.00807305  0.34040734  0.74720533  1
  Ir  Ir140  1  0.83402764  0.50082943  0.49954993  1
  Ir  Ir141  1  0.66767502  0.66535692  0.75202704  1
  Ir  Ir142  1  0.66650527  0.66726917  -0.00317822  1
  Ir  Ir143  1  0.83211231  0.49947850  0.24888577  1
  O  O144  1  0.31477130  0.33808902  0.11643684  1
  O  O145  1  0.31139442  0.34768975  0.62965410  1
  O  O146  1  0.31627688  0.67433368  0.12360071  1
  O  O147  1  0.29794532  0.65071200  0.63035369  1
  O  O148  1  0.31403387  0.97597345  0.12121060  1
  O  O149  1  0.30165383  0.99122720  0.64187306  1
  O  O150  1  0.64663434  0.32417531  0.12324798  1
  O  O151  1  0.65440667  0.33273704  0.62747683  1
  O  O152  1  0.63731679  0.65822710  0.11680785  1
  O  O153  1  0.63949929  0.65791180  0.62833683  1
  O  O154  1  0.63299982  0.98247869  0.12370695  1
  O  O155  1  0.63773116  0.99741195  0.63529312  1
  O  O156  1  0.98146638  0.34644609  0.12566782  1
  O  O157  1  0.97271534  0.33743080  0.62505033  1
  O  O158  1  0.97732932  0.64591197  0.12090712  1
  O  O159  1  0.97908415  0.65523576  0.63407215  1
  O  O160  1  0.97997072  0.99562609  0.11455559  1
  O  O161  1  0.97706431  0.99380646  0.62090414  1
  O  O162  1  0.17862970  0.16768247  0.12269392  1
  O  O163  1  0.17974165  0.16465608  0.62668024  1
  O  O164  1  0.18527870  0.49594191  0.12292262  1
  O  O165  1  0.19346527  0.50188382  0.63475217  1
  O  O166  1  0.19975118  0.83032401  0.11123235  1
  O  O167  1  0.19435120  0.80739030  0.62833651  1
  O  O168  1  0.54272669  0.15358982  0.12060330  1
  O  O169  1  0.52125165  0.15731801  0.63581782  1
  O  O170  1  0.53341335  0.50667290  0.11868149  1
  O  O171  1  0.53668486  0.50590704  0.63589768  1
  O  O172  1  0.53999035  0.81593046  0.12412144  1
  O  O173  1  0.52170451  0.81514899  0.63610226  1
  O  O174  1  0.84746921  0.16535857  0.12550420  1
  O  O175  1  0.85204693  0.16635524  0.62606353  1
  O  O176  1  0.86173834  0.49932529  0.12228756  1
  O  O177  1  0.86251326  0.49939345  0.62604381  1
  O  O178  1  0.84956850  0.82959224  0.11575266  1
  O  O179  1  0.85258192  0.83179497  0.61980693  1
  O  O180  1  0.12861422  0.17658351  0.37947755  1
  O  O181  1  0.14650981  0.14823418  0.87382507  1
  O  O182  1  0.13440110  0.51595781  0.36579142  1
  O  O183  1  0.12995606  0.51025422  0.87559936  1
  O  O184  1  0.15619194  0.83212903  0.37351695  1
  O  O185  1  0.13379395  0.84682324  0.87618769  1
  O  O186  1  0.46830960  0.16618852  0.37039749  1
  O  O187  1  0.46901549  0.16219622  0.87284650  1
  O  O188  1  0.48840258  0.50598297  0.36456286  1
  O  O189  1  0.48131363  0.50241150  0.87583645  1
  O  O190  1  0.46645282  0.83535007  0.36397062  1
  O  O191  1  0.47321642  0.84300702  0.88053842  1
  O  O192  1  0.80208453  0.16705902  0.38230491  1
  O  O193  1  0.81455619  0.16558616  0.87094433  1
  O  O194  1  0.80799500  0.51082476  0.37452440  1
  O  O195  1  0.79537421  0.51441116  0.87287676  1
  O  O196  1  0.80007634  0.84069315  0.37921773  1
  O  O197  1  0.80141192  0.84331905  0.87757365  1
  O  O198  1  0.01522683  0.00214551  0.38492484  1
  O  O199  1  0.02924757  -0.00784307  0.87875279  1
  O  O200  1  0.02604973  0.35403735  0.38477466  1
  O  O201  1  0.00945963  0.35028642  0.86705282  1
  O  O202  1  0.03587809  0.65920740  0.37414992  1
  O  O203  1  0.03001054  0.67250647  0.87202794  1
  O  O204  1  0.35081405  0.02082038  0.37662835  1
  O  O205  1  0.37522406  0.00708147  0.87228739  1
  O  O206  1  0.35376834  0.34359289  0.37310570  1
  O  O207  1  0.34988196  0.34299710  0.87964265  1
  O  O208  1  0.35408800  0.66751572  0.36377880  1
  O  O209  1  0.35324449  0.66961089  0.88316937  1
  O  O210  1  0.69957765  0.00937834  0.36580721  1
  O  O211  1  0.69917326  0.00110195  0.88045903  1
  O  O212  1  0.68514122  0.34374876  0.36371905  1
  O  O213  1  0.69824023  0.34909957  0.88093165  1
  O  O214  1  0.70006037  0.67549442  0.38074365  1
  O  O215  1  0.69961060  0.67423824  0.87488709  1
  O  O216  1  0.06723290  0.08228994  0.01309724  1
  O  O217  1  0.06446165  0.08879963  0.51867966  1
  O  O218  1  0.06464845  0.44039272  0.01289457  1
  O  O219  1  0.05519366  0.43518640  0.52362373  1
  O  O220  1  0.07368044  0.76501223  0.00633670  1
  O  O221  1  0.07919918  0.75326381  0.52379570  1
  O  O222  1  0.41484940  0.08642394  0.02350184  1
  O  O223  1  0.41373361  0.08755038  0.52978427  1
  O  O224  1  0.40854327  0.43364697  0.01526447  1
  O  O225  1  0.39604094  0.44210004  0.52497396  1
  O  O226  1  0.40835643  0.76379625  0.02584519  1
  O  O227  1  0.41359928  0.75435134  0.51625553  1
  O  O228  1  0.72716971  0.08998649  0.02446821  1
  O  O229  1  0.74549679  0.09468891  0.51359029  1
  O  O230  1  0.73189472  0.43601488  0.02273712  1
  O  O231  1  0.74126498  0.43464241  0.52165562  1
  O  O232  1  0.72928088  0.76834027  0.01654269  1
  O  O233  1  0.73892052  0.76346849  0.51673887  1
  O  O234  1  0.08663912  0.25900084  0.00319898  1
  O  O235  1  0.08492086  0.27143000  0.51470090  1
  O  O236  1  0.09306122  0.59072430  0.01035448  1
  O  O237  1  0.08810411  0.58725996  0.53534194  1
  O  O238  1  0.09967710  0.92754112  0.01473354  1
  O  O239  1  0.09336553  0.93357692  0.52506860  1
  O  O240  1  0.42118059  0.26326046  0.01115752  1
  O  O241  1  0.42829606  0.26401953  0.51896063  1
  O  O242  1  0.43303702  0.60071502  0.02408467  1
  O  O243  1  0.43374768  0.59836512  0.53206842  1
  O  O244  1  0.44020787  0.92039930  0.02381014  1
  O  O245  1  0.43968740  0.93270965  0.53175778  1
  O  O246  1  0.75044493  0.26029900  0.01200024  1
  O  O247  1  0.76651927  0.25758180  0.51362185  1
  O  O248  1  0.75561258  0.59426412  0.01913275  1
  O  O249  1  0.76195303  0.59138465  0.52257006  1
  O  O250  1  0.76004735  0.92622722  0.02040878  1
  O  O251  1  0.76492035  0.92491771  0.51304048  1
  O  O252  1  0.24625371  0.07940161  0.26638726  1
  O  O253  1  0.25106891  0.06372822  0.78107584  1
  O  O254  1  0.22814816  0.41183509  0.26920571  1
  O  O255  1  0.23286402  0.41704721  0.77020068  1
  O  O256  1  0.24614308  0.73227339  0.26731321  1
  O  O257  1  0.24359315  0.74143528  0.78971249  1
  O  O258  1  0.58241004  0.07157579  0.27198118  1
  O  O259  1  0.56610157  0.06399358  0.77590806  1
  O  O260  1  0.57261014  0.40836299  0.25756520  1
  O  O261  1  0.57562080  0.41617111  0.77503974  1
  O  O262  1  0.57382527  0.74516428  0.27494502  1
  O  O263  1  0.57961316  0.74225512  0.77929364  1
  O  O264  1  0.89866923  0.06791687  0.28080018  1
  O  O265  1  0.89807125  0.06845403  0.77105161  1
  O  O266  1  0.90524659  0.41510774  0.27034826  1
  O  O267  1  0.89576547  0.41050180  0.77681021  1
  O  O268  1  0.89708702  0.72905769  0.27621334  1
  O  O269  1  0.90913861  0.73247704  0.77980562  1
  O  O270  1  0.26003516  0.24245087  0.27901187  1
  O  O271  1  0.26392014  0.23509266  0.77741145  1
  O  O272  1  0.25699709  0.57722162  0.26719641  1
  O  O273  1  0.24715643  0.57578493  0.77815267  1
  O  O274  1  0.27919366  0.88938971  0.26398678  1
  O  O275  1  0.27767347  0.90345304  0.78584385  1
  O  O276  1  0.60750598  0.23844390  0.26550094  1
  O  O277  1  0.58540868  0.23644144  0.77094331  1
  O  O278  1  0.59475046  0.57184805  0.25458999  1
  O  O279  1  0.60235066  0.57059676  0.77410619  1
  O  O280  1  0.59936332  0.89879290  0.27328922  1
  O  O281  1  0.59825585  0.90477262  0.78397365  1
  O  O282  1  0.93076935  0.23486267  0.27896353  1
  O  O283  1  0.91994020  0.24447865  0.77267663  1
  O  O284  1  0.92415196  0.56680149  0.27542829  1
  O  O285  1  0.92779565  0.57004279  0.77698242  1
  O  O286  1  0.91687430  0.90927071  0.26992921  1
  O  O287  1  0.92984291  0.90026576  0.77825518  1
  O  O288  1  0.26229469  0.23459919  0.46857348  1
  O  O289  1  0.26843223  0.24291505  0.97553036  1
  O  O290  1  0.25278714  0.57462485  0.47710023  1
  O  O291  1  0.25355128  0.58276115  0.97816717  1
  O  O292  1  0.27613809  0.89396691  0.47896987  1
  O  O293  1  0.26010714  0.89965006  0.96600155  1
  O  O294  1  0.60222777  0.23394554  0.47190651  1
  O  O295  1  0.59618323  0.24879540  0.98358407  1
  O  O296  1  0.60220489  0.57947744  0.49287976  1
  O  O297  1  0.60261764  0.56891410  0.97706489  1
  O  O298  1  0.60159836  0.89825426  0.47253502  1
  O  O299  1  0.60273107  0.89570005  0.97524498  1
  O  O300  1  0.93080675  0.23659489  0.47815669  1
  O  O301  1  0.91318204  0.24751470  0.97710998  1
  O  O302  1  0.92464417  0.57141453  0.47459405  1
  O  O303  1  0.91711367  0.57196644  0.96393738  1
  O  O304  1  0.92146591  0.90560523  0.47515811  1
  O  O305  1  0.92719549  0.89743231  0.96831480  1
  O  O306  1  0.23189705  0.06488963  0.50290464  1
  O  O307  1  0.24641771  0.07142196  0.97176953  1
  O  O308  1  0.22275506  0.39723166  0.47700194  1
  O  O309  1  0.23779283  0.41330885  0.98267810  1
  O  O310  1  0.24199642  0.73284490  0.46760809  1
  O  O311  1  0.23793540  0.74018273  0.97040699  1
  O  O312  1  0.58116435  0.07657984  0.48122422  1
  O  O313  1  0.57165467  0.05608445  0.97951415  1
  O  O314  1  0.57324273  0.40997229  0.48869227  1
  O  O315  1  0.57844162  0.41405124  0.97603550  1
  O  O316  1  0.58475671  0.73964260  0.48449402  1
  O  O317  1  0.57662217  0.73883017  0.97606653  1
  O  O318  1  0.90303704  0.07066547  0.47500611  1
  O  O319  1  0.90396812  0.05707796  0.97455991  1
  O  O320  1  0.90661771  0.41304128  0.47663858  1
  O  O321  1  0.89400442  0.41273150  0.96740735  1
  O  O322  1  0.89815699  0.73797926  0.47471536  1
  O  O323  1  0.89736184  0.74059304  0.96761179  1
  O  O324  1  0.10122706  0.27464913  0.24653498  1
  O  O325  1  0.08184916  0.26769710  0.74080868  1
  O  O326  1  0.09394245  0.58896022  0.22261972  1
  O  O327  1  0.09494845  0.59614156  0.72794649  1
  O  O328  1  0.09367019  0.92642422  0.23521832  1
  O  O329  1  0.10690904  0.93163655  0.72814586  1
  O  O330  1  0.42668821  0.25905981  0.22586208  1
  O  O331  1  0.42778428  0.25187355  0.73816598  1
  O  O332  1  0.43808065  0.59971273  0.22167265  1
  O  O333  1  0.43319377  0.59424688  0.72537168  1
  O  O334  1  0.43934244  0.91835305  0.21526211  1
  O  O335  1  0.44017168  0.93059959  0.73187654  1
  O  O336  1  0.75603064  0.26540486  0.23068768  1
  O  O337  1  0.76355919  0.25837904  0.74837979  1
  O  O338  1  0.76024721  0.58870647  0.23149626  1
  O  O339  1  0.75876869  0.59474598  0.72652634  1
  O  O340  1  0.74889330  0.92441711  0.22909756  1
  O  O341  1  0.75849978  0.93157599  0.74230331  1
  O  O342  1  0.06060716  0.10017725  0.24660527  1
  O  O343  1  0.07750378  0.08695273  0.72815688  1
  O  O344  1  0.06560127  0.44228330  0.23541076  1
  O  O345  1  0.05879052  0.43939885  0.73094737  1
  O  O346  1  0.07579973  0.75648692  0.22666713  1
  O  O347  1  0.07169712  0.75217276  0.73726694  1
  O  O348  1  0.42004032  0.08128522  0.21778661  1
  O  O349  1  0.40729572  0.08867940  0.72850521  1
  O  O350  1  0.41384305  0.43608985  0.22993243  1
  O  O351  1  0.41105916  0.43797033  0.73287869  1
  O  O352  1  0.41221960  0.75858708  0.21758784  1
  O  O353  1  0.41524738  0.75889619  0.74340940  1
  O  O354  1  0.72759437  0.09394674  0.22450291  1
  O  O355  1  0.73657939  0.09377482  0.73443161  1
  O  O356  1  0.73396998  0.43415257  0.22036241  1
  O  O357  1  0.73535710  0.43994163  0.73165801  1
  O  O358  1  0.73156984  0.76520885  0.22450088  1
  O  O359  1  0.73730188  0.75651373  0.73981362  1
