# generated using pymatgen
data_BaLaInIrO6
_symmetry_space_group_name_H-M   'P 1'
_cell_length_a   17.50560471
_cell_length_b   17.52905419
_cell_length_c   16.49043372
_cell_angle_alpha   89.99836663
_cell_angle_beta   89.99959589
_cell_angle_gamma   89.97428641
_symmetry_Int_Tables_number   1
_chemical_formula_structural   BaLaInIrO6
_chemical_formula_sum   'Ba36 La36 In36 Ir36 O216'
_cell_volume   5060.19945566
_cell_formula_units_Z   36
loop_
 _symmetry_equiv_pos_site_id
 _symmetry_equiv_pos_as_xyz
  1  'x, y, z'
loop_
 _atom_site_type_symbol
 _atom_site_label
 _atom_site_symmetry_multiplicity
 _atom_site_fract_x
 _atom_site_fract_y
 _atom_site_fract_z
 _atom_site_occupancy
  Ba  Ba0  1  -0.00432262  0.15354051  0.87392520  1
  Ba  Ba1  1  1.00199314  0.17681940  0.12634190  1
  Ba  Ba2  1  0.66616004  0.50554759  0.62930788  1
  Ba  Ba3  1  0.83653039  0.32588760  0.37596772  1
  Ba  Ba4  1  0.66678259  0.82757546  0.37868328  1
  Ba  Ba5  1  0.66673183  0.82789996  0.87254367  1
  Ba  Ba6  1  0.66519322  0.49427338  0.37778200  1
  Ba  Ba7  1  0.82820457  0.67348203  0.62687467  1
  Ba  Ba8  1  0.83642995  0.65482555  0.87282713  1
  Ba  Ba9  1  0.33336097  0.84211312  0.12846137  1
  Ba  Ba10  1  0.33442012  0.16925081  0.12908117  1
  Ba  Ba11  1  0.66476771  0.16052886  0.87087026  1
  Ba  Ba12  1  0.83252265  0.65699438  0.37413265  1
  Ba  Ba13  1  0.66819183  0.84311067  0.62818202  1
  Ba  Ba14  1  0.50551193  0.32437614  0.87408444  1
  Ba  Ba15  1  0.16174500  0.01118691  0.12848135  1
  Ba  Ba16  1  0.33401484  0.16129210  0.37651816  1
  Ba  Ba17  1  0.16928005  0.32266473  0.37698501  1
  Ba  Ba18  1  -0.00417366  0.48684267  0.87030116  1
  Ba  Ba19  1  0.50301911  0.33681989  0.12770597  1
  Ba  Ba20  1  0.82897485  0.00824881  0.62192391  1
  Ba  Ba21  1  0.50207775  0.67329174  0.12652818  1
  Ba  Ba22  1  0.33298440  0.48701365  0.37544405  1
  Ba  Ba23  1  0.66581683  0.17209184  0.62393983  1
  Ba  Ba24  1  0.49661836  0.00719526  0.12298712  1
  Ba  Ba25  1  -0.00312761  0.48549029  0.37161660  1
  Ba  Ba26  1  0.67095512  0.17933845  0.12767511  1
  Ba  Ba27  1  0.83738963  0.32317754  0.87194295  1
  Ba  Ba28  1  0.49976193  0.67400297  0.61909037  1
  Ba  Ba29  1  1.00323653  0.84670788  0.12633206  1
  Ba  Ba30  1  0.16439376  0.99548274  0.37672586  1
  Ba  Ba31  1  0.83218960  0.99527277  0.37515550  1
  Ba  Ba32  1  0.50074841  0.33841750  0.62660391  1
  Ba  Ba33  1  0.66961641  0.49107900  0.87352384  1
  Ba  Ba34  1  0.50096378  0.32285497  0.37885807  1
  Ba  Ba35  1  0.33292558  0.17791929  0.62607202  1
  La  La36  1  0.16223952  0.68416201  0.11820061  1
  La  La37  1  0.33144996  0.82149913  0.37614044  1
  La  La38  1  0.16182673  0.01906329  0.62388132  1
  La  La39  1  0.16477216  0.34769380  0.62204886  1
  La  La40  1  0.34047132  0.85279806  0.62307859  1
  La  La41  1  0.66952305  0.50846908  0.12329841  1
  La  La42  1  -0.00401595  0.81991697  0.87717488  1
  La  La43  1  0.17118221  0.65263708  0.37081980  1
  La  La44  1  0.83003302  0.67896393  0.12350721  1
  La  La45  1  0.16859774  0.98291977  0.87739988  1
  La  La46  1  1.00205305  0.18299632  0.62177751  1
  La  La47  1  0.51165027  0.65503814  0.87312082  1
  La  La48  1  0.50123439  0.98758943  0.87625117  1
  La  La49  1  0.49895844  0.01521796  0.62778108  1
  La  La50  1  0.65938677  0.15669945  0.37869068  1
  La  La51  1  0.99087753  0.51004357  0.61898721  1
  La  La52  1  0.33767956  0.81859585  0.87737820  1
  La  La53  1  0.82995370  0.01725379  0.12320639  1
  La  La54  1  0.82618608  0.34466523  0.62576501  1
  La  La55  1  0.16951478  0.31854989  0.87712323  1
  La  La56  1  0.83066431  0.35082915  0.12423073  1
  La  La57  1  0.50251481  0.99421701  0.36998730  1
  La  La58  1  -0.00339917  0.15342711  0.37214159  1
  La  La59  1  0.33100566  0.15005099  0.87344569  1
  La  La60  1  0.67499109  0.85040281  0.12359154  1
  La  La61  1  0.83379988  0.99318905  0.87093880  1
  La  La62  1  1.00344840  0.51280703  0.12279044  1
  La  La63  1  0.16063903  0.68050451  0.62467105  1
  La  La64  1  0.33910360  0.50985809  0.12989055  1
  La  La65  1  -0.01261166  0.82297756  0.37504045  1
  La  La66  1  0.16979384  0.64736834  0.87426812  1
  La  La67  1  0.32903382  0.48272498  0.87466450  1
  La  La68  1  0.16253877  0.34228033  0.13119247  1
  La  La69  1  1.00131651  0.84913353  0.62893272  1
  La  La70  1  0.50801251  0.65426292  0.37137165  1
  La  La71  1  0.34203290  0.51269825  0.62593775  1
  In  In72  1  0.00114236  0.00118453  0.50121044  1
  In  In73  1  0.50147754  0.83205367  0.00292662  1
  In  In74  1  0.17083128  0.83365594  0.74976397  1
  In  In75  1  0.66546944  0.00452873  -0.00158566  1
  In  In76  1  0.00214050  0.33463410  0.00015138  1
  In  In77  1  0.16800053  0.49725151  0.00097403  1
  In  In78  1  0.83321595  0.49778467  0.49595420  1
  In  In79  1  0.66801861  0.00031932  0.25163076  1
  In  In80  1  0.83597454  0.83506850  -0.00012157  1
  In  In81  1  0.00178863  0.66882992  0.74961415  1
  In  In82  1  0.16743811  0.49799201  0.74785807  1
  In  In83  1  0.33468428  0.66450977  -0.00027991  1
  In  In84  1  0.50158857  0.16754795  0.24888584  1
  In  In85  1  0.16913723  0.50080401  0.50072038  1
  In  In86  1  0.33164085  0.33250909  0.24780058  1
  In  In87  1  0.83325131  0.83398470  0.50186186  1
  In  In88  1  0.49708343  0.49746177  0.00179518  1
  In  In89  1  0.66533822  0.66775688  0.50123752  1
  In  In90  1  0.00194260  0.66546727  0.24743898  1
  In  In91  1  0.83239190  0.16708703  0.49798402  1
  In  In92  1  0.16721285  0.83580723  0.50179700  1
  In  In93  1  0.33271274  0.66787701  0.74970999  1
  In  In94  1  0.33034411  -0.00291891  -0.00098797  1
  In  In95  1  0.16364237  0.16676262  0.75061512  1
  In  In96  1  0.49783757  0.49625871  0.49851563  1
  In  In97  1  0.66872701  0.33411923  0.00063820  1
  In  In98  1  0.66870416  0.66977636  0.24660232  1
  In  In99  1  0.49858467  0.83467623  0.74548497  1
  In  In100  1  0.83554731  0.16955485  -0.00080533  1
  In  In101  1  0.16258534  0.83385430  0.25660465  1
  In  In102  1  0.16562691  0.16594615  0.00044963  1
  In  In103  1  0.00256739  0.66766076  0.50039136  1
  In  In104  1  0.49666765  0.49920270  0.75101024  1
  In  In105  1  0.33410795  0.66540888  0.25197852  1
  In  In106  1  0.66758479  0.32936789  0.74951165  1
  In  In107  1  0.33132816  -0.00072257  0.25449805  1
  Ir  Ir108  1  0.67192508  0.33661101  0.25324084  1
  Ir  Ir109  1  0.65932309  0.00071538  0.50108237  1
  Ir  Ir110  1  0.66699198  0.00269812  0.74962577  1
  Ir  Ir111  1  0.33015778  0.66937716  0.49677484  1
  Ir  Ir112  1  0.49343605  0.16405439  0.75138495  1
  Ir  Ir113  1  0.83641649  0.83783011  0.75353113  1
  Ir  Ir114  1  0.00132265  -0.00287472  -0.00333784  1
  Ir  Ir115  1  0.49696960  0.16396728  0.50377184  1
  Ir  Ir116  1  0.83402265  0.17028978  0.25068602  1
  Ir  Ir117  1  0.83689555  0.49622912  0.75221679  1
  Ir  Ir118  1  0.50373855  0.49738193  0.24834714  1
  Ir  Ir119  1  0.50084442  0.83366919  0.25429559  1
  Ir  Ir120  1  -0.00272556  0.33303521  0.25075400  1
  Ir  Ir121  1  0.00147564  -0.00040694  0.75134695  1
  Ir  Ir122  1  0.66822326  0.66578648  -0.00149816  1
  Ir  Ir123  1  0.33004610  0.32937616  0.75386185  1
  Ir  Ir124  1  0.00121112  0.33047821  0.50078604  1
  Ir  Ir125  1  0.16647310  0.16804912  0.50252098  1
  Ir  Ir126  1  0.83911460  0.16243174  0.74614073  1
  Ir  Ir127  1  0.00035627  0.33319990  0.74032922  1
  Ir  Ir128  1  0.66863037  0.66750767  0.75672446  1
  Ir  Ir129  1  0.83658755  0.83577540  0.24635177  1
  Ir  Ir130  1  0.33123257  0.32887906  -0.00357144  1
  Ir  Ir131  1  0.66826320  0.32958105  0.49854569  1
  Ir  Ir132  1  0.49450890  0.16861870  -0.00483285  1
  Ir  Ir133  1  -0.00362494  0.00352948  0.24822150  1
  Ir  Ir134  1  0.16163816  0.83098827  -0.00612912  1
  Ir  Ir135  1  0.83696412  0.49884215  0.24320615  1
  Ir  Ir136  1  0.49241878  0.83882180  0.49671986  1
  Ir  Ir137  1  0.33429093  0.00141892  0.50470585  1
  Ir  Ir138  1  0.33292857  0.00031289  0.75026410  1
  Ir  Ir139  1  0.16734325  0.49782200  0.24594053  1
  Ir  Ir140  1  0.00094415  0.66698124  0.00048030  1
  Ir  Ir141  1  0.16105882  0.16890125  0.25380782  1
  Ir  Ir142  1  0.32908538  0.32888688  0.50603764  1
  Ir  Ir143  1  0.83834421  0.50477694  0.00133048  1
  O  O144  1  0.29941126  0.32497656  0.11574089  1
  O  O145  1  0.29930874  0.32773683  0.63172829  1
  O  O146  1  0.29790162  0.65787846  0.12712521  1
  O  O147  1  0.29535481  0.65626004  0.61637831  1
  O  O148  1  0.31230767  0.99892786  0.12575718  1
  O  O149  1  0.29827435  0.99151046  0.62831532  1
  O  O150  1  0.65578475  0.34234118  0.13428650  1
  O  O151  1  0.65403925  0.33015243  0.61813624  1
  O  O152  1  0.65178134  0.65145900  0.11867257  1
  O  O153  1  0.65155176  0.66668761  0.63687483  1
  O  O154  1  0.64736144  0.98884820  0.12676341  1
  O  O155  1  0.63458836  1.00056317  0.62491157  1
  O  O156  1  0.96907982  0.33052409  0.13214460  1
  O  O157  1  0.96670494  0.32113403  0.62048635  1
  O  O158  1  0.96737246  0.65776607  0.11922806  1
  O  O159  1  0.97912452  0.64863867  0.62688919  1
  O  O160  1  0.96719987  0.99930990  0.12027978  1
  O  O161  1  0.97819705  0.98944791  0.63308620  1
  O  O162  1  0.18029556  0.16839344  0.13207142  1
  O  O163  1  0.18504603  0.15843278  0.62390802  1
  O  O164  1  0.20178515  0.48595165  0.12727730  1
  O  O165  1  0.20552842  0.48853608  0.62560691  1
  O  O166  1  0.18501419  0.82480035  0.11535410  1
  O  O167  1  0.20844719  0.81792576  0.62604556  1
  O  O168  1  0.51581342  0.16318635  0.11560010  1
  O  O169  1  0.51659064  0.15383233  0.62834414  1
  O  O170  1  0.53281695  0.49444250  0.13049059  1
  O  O171  1  0.51084941  0.49673444  0.62378254  1
  O  O172  1  0.53667344  0.82945294  0.13494643  1
  O  O173  1  0.51667480  0.83393080  0.61583721  1
  O  O174  1  0.85456174  0.15706054  0.13173129  1
  O  O175  1  0.86521606  0.16161953  0.62720639  1
  O  O176  1  0.86694952  0.49551797  0.12159188  1
  O  O177  1  0.85786763  0.48742291  0.63060965  1
  O  O178  1  0.85527175  0.82114615  0.12752522  1
  O  O179  1  0.86445973  0.83377104  0.63326762  1
  O  O180  1  0.13350120  0.16884295  0.37890138  1
  O  O181  1  0.14149547  0.18314774  0.87330160  1
  O  O182  1  0.14443871  0.50959372  0.36777156  1
  O  O183  1  0.14327044  0.50288886  0.87462207  1
  O  O184  1  0.12260324  0.83815420  0.38013258  1
  O  O185  1  0.13132797  0.84375266  0.87527940  1
  O  O186  1  0.48622013  0.16545580  0.38458708  1
  O  O187  1  0.46522284  0.17167333  0.87196439  1
  O  O188  1  0.48213394  0.50631522  0.36850470  1
  O  O189  1  0.46469680  0.51532176  0.87651720  1
  O  O190  1  0.46475107  0.84869278  0.37570372  1
  O  O191  1  0.47167511  0.84611177  0.87050565  1
  O  O192  1  0.80074650  0.17205727  0.36893216  1
  O  O193  1  0.81986793  0.16123669  0.86610662  1
  O  O194  1  0.81750927  0.49842078  0.36332720  1
  O  O195  1  0.81741740  0.50040298  0.87858610  1
  O  O196  1  0.81939457  0.83945422  0.36529991  1
  O  O197  1  0.81578443  0.85138955  0.87294803  1
  O  O198  1  0.01522203  0.01059913  0.36929574  1
  O  O199  1  0.03312180  0.00043699  0.87406078  1
  O  O200  1  0.02199627  0.33375288  0.37703800  1
  O  O201  1  0.03177390  0.33695817  0.86256541  1
  O  O202  1  0.03482306  0.67735845  0.37254315  1
  O  O203  1  0.03253684  0.67600844  0.87933202  1
  O  O204  1  0.36573437  0.00490562  0.38710177  1
  O  O205  1  0.36474322  0.00785894  0.86737531  1
  O  O206  1  0.34674565  0.33124616  0.38424986  1
  O  O207  1  0.35722315  0.34377783  0.87481677  1
  O  O208  1  0.37034652  0.67827089  0.38002585  1
  O  O209  1  0.37452885  0.68209682  0.87511844  1
  O  O210  1  0.68038805  0.00732160  0.38116813  1
  O  O211  1  0.69715064  0.00403809  0.86917201  1
  O  O212  1  0.68702535  0.32721983  0.37709175  1
  O  O213  1  0.68692604  0.32390486  0.87458325  1
  O  O214  1  0.68166376  0.66713634  0.37108173  1
  O  O215  1  0.68910817  0.67110231  0.87810611  1
  O  O216  1  0.06841939  0.08826462  0.01466029  1
  O  O217  1  0.07325057  0.10137741  0.52343547  1
  O  O218  1  0.07240897  0.42910437  0.03361995  1
  O  O219  1  0.06852003  0.42496932  0.52731135  1
  O  O220  1  0.06891561  0.76036983  0.01956879  1
  O  O221  1  0.07385524  0.76418518  0.54085687  1
  O  O222  1  0.40176957  0.10262310  0.00264455  1
  O  O223  1  0.40915309  0.08863955  0.53221084  1
  O  O224  1  0.39102396  0.42545211  0.02172596  1
  O  O225  1  0.39586591  0.42251029  0.52433859  1
  O  O226  1  0.40220754  0.76397671  0.01645738  1
  O  O227  1  0.39553664  0.76997523  0.52045708  1
  O  O228  1  0.74520285  0.09235942  0.01944884  1
  O  O229  1  0.73187611  0.09065827  0.50954873  1
  O  O230  1  0.74497704  0.43906696  0.02605010  1
  O  O231  1  0.74247114  0.41591268  0.51798438  1
  O  O232  1  0.73643937  0.75896892  0.02528293  1
  O  O233  1  0.73968942  0.76098095  0.51563227  1
  O  O234  1  0.10735928  0.27272706  0.01757014  1
  O  O235  1  0.09807563  0.26379397  0.52782896  1
  O  O236  1  0.09435122  0.59892241  0.02655912  1
  O  O237  1  0.10389407  0.59913530  0.52438345  1
  O  O238  1  0.10103481  0.93212822  0.00963135  1
  O  O239  1  0.09976232  0.93438778  0.53455154  1
  O  O240  1  0.42580691  0.26337786  0.01610515  1
  O  O241  1  0.42598267  0.25857065  0.52027456  1
  O  O242  1  0.41813301  0.58248286  0.03628033  1
  O  O243  1  0.41022499  0.59112961  0.51896814  1
  O  O244  1  0.42817640  0.92982730  0.00663963  1
  O  O245  1  0.42666504  0.93388624  0.53038667  1
  O  O246  1  0.76798866  0.26879196  0.02644698  1
  O  O247  1  0.76274575  0.26290599  0.52169344  1
  O  O248  1  0.76926790  0.60056220  0.02316574  1
  O  O249  1  0.75385296  0.58529582  0.51381637  1
  O  O250  1  0.76543298  0.92942752  0.02714679  1
  O  O251  1  0.74895250  0.92825553  0.51346636  1
  O  O252  1  0.23342571  0.08063900  0.26981970  1
  O  O253  1  0.23626684  0.06431514  0.77491905  1
  O  O254  1  0.23538924  0.40760435  0.26372003  1
  O  O255  1  0.23335961  0.39141711  0.77329632  1
  O  O256  1  0.24117470  0.73917520  0.28347460  1
  O  O257  1  0.23440561  0.73394158  0.78644826  1
  O  O258  1  0.57997299  0.07954943  0.27907258  1
  O  O259  1  0.56229292  0.06706408  0.76905840  1
  O  O260  1  0.57677524  0.40577205  0.27271887  1
  O  O261  1  0.57814535  0.41085712  0.76348648  1
  O  O262  1  0.56739620  0.74085024  0.27449895  1
  O  O263  1  0.57419951  0.73761815  0.77246658  1
  O  O264  1  0.90459580  0.07868528  0.27100344  1
  O  O265  1  0.90327869  0.06264747  0.77130461  1
  O  O266  1  0.90091600  0.40076517  0.25947342  1
  O  O267  1  0.90604465  0.39954811  0.75942277  1
  O  O268  1  0.90829445  0.74564784  0.26661899  1
  O  O269  1  0.91055525  0.75129545  0.77640305  1
  O  O270  1  0.24969236  0.23865586  0.26413273  1
  O  O271  1  0.26527512  0.23590145  0.77751040  1
  O  O272  1  0.25483124  0.56988922  0.26934345  1
  O  O273  1  0.26749223  0.56540190  0.77935004  1
  O  O274  1  0.26204091  0.90193010  0.27937476  1
  O  O275  1  0.27078603  0.90532956  0.77801873  1
  O  O276  1  0.60568927  0.24098570  0.27048477  1
  O  O277  1  0.58429600  0.23380630  0.75894998  1
  O  O278  1  0.58967412  0.57328106  0.26344193  1
  O  O279  1  0.59162281  0.58365663  0.77545993  1
  O  O280  1  0.58688100  0.90773006  0.27286548  1
  O  O281  1  0.59094806  0.91756827  0.76894600  1
  O  O282  1  0.93111502  0.23661861  0.27695988  1
  O  O283  1  0.93643619  0.23157400  0.75700167  1
  O  O284  1  0.93028248  0.56624708  0.25739973  1
  O  O285  1  0.92680872  0.56835629  0.76067212  1
  O  O286  1  0.93097995  0.90511840  0.27095792  1
  O  O287  1  0.93514844  0.90500636  0.77803149  1
  O  O288  1  0.25888356  0.23622775  0.48687116  1
  O  O289  1  0.26836462  0.23592418  0.96883084  1
  O  O290  1  0.25964186  0.58326608  0.46766310  1
  O  O291  1  0.26098316  0.57058652  0.96755633  1
  O  O292  1  0.27141403  0.90602528  0.47974068  1
  O  O293  1  0.25548772  0.89745521  0.96573826  1
  O  O294  1  0.59646370  0.23229972  0.47914511  1
  O  O295  1  0.58650132  0.23650461  0.98887259  1
  O  O296  1  0.57638447  0.58742225  0.48099438  1
  O  O297  1  0.59451588  0.57865655  0.98021734  1
  O  O298  1  0.57883676  0.91482252  0.47128080  1
  O  O299  1  0.59267537  0.90963300  0.98119052  1
  O  O300  1  0.94047681  0.23405338  0.48105109  1
  O  O301  1  0.93142646  0.23981809  0.98372746  1
  O  O302  1  0.93358164  0.56499937  0.49027873  1
  O  O303  1  0.93664475  0.57043293  0.98501741  1
  O  O304  1  0.93548077  0.90081401  0.48518491  1
  O  O305  1  0.93787941  0.90385436  0.97425831  1
  O  O306  1  0.23474308  0.06900817  0.49065140  1
  O  O307  1  0.23651098  0.07008614  0.96745311  1
  O  O308  1  0.23740269  0.39778491  0.49242052  1
  O  O309  1  0.23870429  0.39540090  0.97262541  1
  O  O310  1  0.24150507  0.73842002  0.46618282  1
  O  O311  1  0.22574244  0.73405459  0.97514035  1
  O  O312  1  0.56486509  0.06959009  0.47981600  1
  O  O313  1  0.56120697  0.07484765  0.97153007  1
  O  O314  1  0.58013447  0.40306308  0.48501135  1
  O  O315  1  0.57670926  0.41035154  0.98664387  1
  O  O316  1  0.55735839  0.74655181  0.47158498  1
  O  O317  1  0.57337558  0.73170526  0.97636640  1
  O  O318  1  0.91137260  0.07900331  0.48010520  1
  O  O319  1  0.90261879  0.05780416  0.98156706  1
  O  O320  1  0.90914474  0.39785430  0.49346276  1
  O  O321  1  0.90331263  0.41034380  0.98892021  1
  O  O322  1  0.91276288  0.74454868  0.47396004  1
  O  O323  1  0.91161817  0.73951933  0.97960486  1
  O  O324  1  0.09381255  0.26744158  0.23052796  1
  O  O325  1  0.09308503  0.26681355  0.71667288  1
  O  O326  1  0.09957789  0.58753681  0.21649769  1
  O  O327  1  0.10764318  0.60511901  0.73393646  1
  O  O328  1  0.08594222  0.93192998  0.23412804  1
  O  O329  1  0.10034718  0.93800103  0.72923132  1
  O  O330  1  0.42398489  0.25809894  0.23945533  1
  O  O331  1  0.42535764  0.26117462  0.73457915  1
  O  O332  1  0.42728479  0.58429356  0.23127507  1
  O  O333  1  0.42221359  0.59242684  0.72237058  1
  O  O334  1  0.43163585  0.92189957  0.23824933  1
  O  O335  1  0.42690198  0.93814262  0.72237543  1
  O  O336  1  0.76976609  0.26883248  0.22658894  1
  O  O337  1  0.77204400  0.25561904  0.72481212  1
  O  O338  1  0.76952023  0.59241240  0.21963240  1
  O  O339  1  0.76297414  0.58846325  0.73783190  1
  O  O340  1  0.76643621  0.92609988  0.22143721  1
  O  O341  1  0.76307826  0.93239022  0.73505089  1
  O  O342  1  0.06503598  0.10154084  0.24205176  1
  O  O343  1  0.06500123  0.09415399  0.72127439  1
  O  O344  1  0.07083436  0.42751849  0.21995709  1
  O  O345  1  0.06575948  0.42717357  0.71316081  1
  O  O346  1  0.08342384  0.74972936  0.21882339  1
  O  O347  1  0.06909061  0.77048753  0.72407277  1
  O  O348  1  0.41405672  0.08499804  0.24408674  1
  O  O349  1  0.39941423  0.09478081  0.73435085  1
  O  O350  1  0.40827353  0.43001838  0.22584686  1
  O  O351  1  0.38887023  0.42797149  0.73566149  1
  O  O352  1  0.41161054  0.76193945  0.23817691  1
  O  O353  1  0.39334753  0.77385938  0.72724855  1
  O  O354  1  0.74879699  0.09387015  0.23241569  1
  O  O355  1  0.74329238  0.09411528  0.73036744  1
  O  O356  1  0.74057656  0.43336791  0.22241514  1
  O  O357  1  0.75209792  0.42025315  0.73306306  1
  O  O358  1  0.74239015  0.76739245  0.22047240  1
  O  O359  1  0.74617600  0.76399624  0.73556045  1
