# generated using pymatgen
data_BaLaInIrO6
_symmetry_space_group_name_H-M   'P 1'
_cell_length_a   17.52155303
_cell_length_b   17.54252818
_cell_length_c   16.48027957
_cell_angle_alpha   90.00534764
_cell_angle_beta   90.00390202
_cell_angle_gamma   90.01120088
_symmetry_Int_Tables_number   1
_chemical_formula_structural   BaLaInIrO6
_chemical_formula_sum   'Ba36 La36 In36 Ir36 O216'
_cell_volume   5065.58193089
_cell_formula_units_Z   36
loop_
 _symmetry_equiv_pos_site_id
 _symmetry_equiv_pos_as_xyz
  1  'x, y, z'
loop_
 _atom_site_type_symbol
 _atom_site_label
 _atom_site_symmetry_multiplicity
 _atom_site_fract_x
 _atom_site_fract_y
 _atom_site_fract_z
 _atom_site_occupancy
  Ba  Ba0  1  0.33046065  0.16174792  0.37461238  1
  Ba  Ba1  1  0.16611464  0.00775570  0.62364842  1
  Ba  Ba2  1  0.66965673  0.49413030  0.37616147  1
  Ba  Ba3  1  0.82938317  0.67217013  0.12827018  1
  Ba  Ba4  1  0.33145691  0.82174778  0.37145557  1
  Ba  Ba5  1  0.16409788  0.33261913  0.37541073  1
  Ba  Ba6  1  0.66818573  0.48805659  0.88196534  1
  Ba  Ba7  1  1.00249223  0.17572175  0.11947808  1
  Ba  Ba8  1  0.33218800  0.51122781  0.62081459  1
  Ba  Ba9  1  0.99850286  0.83975952  0.12518262  1
  Ba  Ba10  1  0.50158243  0.32634221  0.37340706  1
  Ba  Ba11  1  0.33376279  0.51479750  0.12922504  1
  Ba  Ba12  1  -0.00020903  0.15845628  0.87396850  1
  Ba  Ba13  1  0.33324615  0.16033183  0.87648511  1
  Ba  Ba14  1  0.50155332  0.99018514  0.36959452  1
  Ba  Ba15  1  0.66573574  0.82344633  0.87388476  1
  Ba  Ba16  1  0.33268538  0.17881081  0.12563770  1
  Ba  Ba17  1  0.66542303  0.82177792  0.37342312  1
  Ba  Ba18  1  -0.00128100  0.49220030  0.87308281  1
  Ba  Ba19  1  0.83419555  0.00669403  0.12471195  1
  Ba  Ba20  1  0.16542405  0.67074845  0.62761492  1
  Ba  Ba21  1  0.16215419  0.65873218  0.87723593  1
  Ba  Ba22  1  0.49316874  0.67661963  0.62250163  1
  Ba  Ba23  1  -0.00232999  0.49405955  0.38048295  1
  Ba  Ba24  1  1.00064033  0.83722325  0.62481900  1
  Ba  Ba25  1  0.83338321  0.32391831  0.87216563  1
  Ba  Ba26  1  0.00102533  0.82572025  0.37523189  1
  Ba  Ba27  1  0.16340654  0.01087354  0.12527516  1
  Ba  Ba28  1  0.16778162  0.99019342  0.87802705  1
  Ba  Ba29  1  0.17245146  0.99020096  0.37208023  1
  Ba  Ba30  1  1.00238786  0.50593626  0.62736469  1
  Ba  Ba31  1  0.82958757  0.00919818  0.62127711  1
  Ba  Ba32  1  0.66643162  0.84349239  0.62191374  1
  Ba  Ba33  1  0.00138853  0.83000113  0.87401521  1
  Ba  Ba34  1  0.83563360  0.65965999  0.37666841  1
  Ba  Ba35  1  0.66342145  0.50857834  0.12716549  1
  La  La36  1  0.16554667  0.32833501  0.87406644  1
  La  La37  1  0.67075922  0.17846424  0.62129912  1
  La  La38  1  0.50888975  0.31749913  0.88346319  1
  La  La39  1  0.33630006  0.84695320  0.61960759  1
  La  La40  1  0.49543378  0.01218530  0.62414344  1
  La  La41  1  0.33517702  0.18089542  0.62388666  1
  La  La42  1  0.67365521  0.18116469  0.12739196  1
  La  La43  1  0.49666908  0.67951934  0.12819057  1
  La  La44  1  0.83625528  0.98095522  0.37225022  1
  La  La45  1  0.16256423  0.68109626  0.12651126  1
  La  La46  1  0.49415761  0.35241651  0.12771894  1
  La  La47  1  1.00038832  0.17142519  0.62402232  1
  La  La48  1  0.82849864  0.34549363  0.12485792  1
  La  La49  1  0.16244596  0.34394605  0.62250837  1
  La  La50  1  0.84065181  0.98617614  0.87221738  1
  La  La51  1  0.84265915  0.64999034  0.87830469  1
  La  La52  1  0.33117547  0.49197506  0.37629523  1
  La  La53  1  0.67033387  0.51740458  0.62842757  1
  La  La54  1  0.32534886  0.48742320  0.87995383  1
  La  La55  1  0.83553207  0.34339305  0.62717298  1
  La  La56  1  0.50334225  0.65330043  0.87293078  1
  La  La57  1  -0.00080620  0.14936762  0.37358436  1
  La  La58  1  0.49452653  0.34847672  0.62360510  1
  La  La59  1  0.50240974  0.65500419  0.37782077  1
  La  La60  1  0.33673250  0.84815824  0.12375692  1
  La  La61  1  0.66138113  0.14834937  0.37170420  1
  La  La62  1  0.50373540  0.98474669  0.87253556  1
  La  La63  1  0.16945433  0.65552490  0.37623034  1
  La  La64  1  0.32725099  0.81646332  0.87325595  1
  La  La65  1  1.00597578  0.51560998  0.13102911  1
  La  La66  1  0.66220982  0.15154322  0.87733545  1
  La  La67  1  0.67277327  0.84785001  0.12755781  1
  La  La68  1  0.82940899  0.67839274  0.62733454  1
  La  La69  1  0.84429551  0.31991389  0.37651241  1
  La  La70  1  0.49783160  0.01542315  0.12117911  1
  La  La71  1  0.16686246  0.33655153  0.11972386  1
  In  In72  1  0.49945703  0.49867262  0.75267248  1
  In  In73  1  0.49966401  0.83225665  -0.00112064  1
  In  In74  1  0.83097864  0.16677936  -0.00368985  1
  In  In75  1  0.66633163  0.66572090  -0.00193615  1
  In  In76  1  -0.00106193  -0.00070078  -0.00134887  1
  In  In77  1  0.17076722  0.83254406  0.74891550  1
  In  In78  1  -0.00100782  0.00023011  0.50088934  1
  In  In79  1  0.33800626  0.33338661  0.75118673  1
  In  In80  1  0.66808195  0.33455851  0.25442925  1
  In  In81  1  -0.00059547  -0.00156321  0.24950352  1
  In  In82  1  0.16447747  0.17345545  0.24923362  1
  In  In83  1  0.83314011  0.49968366  0.25021235  1
  In  In84  1  0.50162352  0.83459634  0.49693864  1
  In  In85  1  0.50146490  0.17036694  0.24671518  1
  In  In86  1  0.00009253  0.00177587  0.74724857  1
  In  In87  1  0.66281722  0.33151068  0.74928167  1
  In  In88  1  0.16742849  0.50051418  0.00589673  1
  In  In89  1  0.16977856  0.16905082  -0.00419328  1
  In  In90  1  0.83117542  0.49725568  0.50243218  1
  In  In91  1  0.83140504  0.83092509  0.49993234  1
  In  In92  1  0.83254806  0.16514471  0.25114212  1
  In  In93  1  0.50317704  0.49828301  0.49970383  1
  In  In94  1  0.33421387  0.00223017  0.49962089  1
  In  In95  1  0.49978352  0.83310062  0.75038219  1
  In  In96  1  0.16403225  0.17008677  0.49913915  1
  In  In97  1  0.83181286  0.49660446  0.75074078  1
  In  In98  1  0.66744399  0.00170261  0.74894814  1
  In  In99  1  0.16985211  0.82958330  0.49988718  1
  In  In100  1  0.33503096  0.00281723  0.75326025  1
  In  In101  1  -0.00139961  0.66663135  0.74974123  1
  In  In102  1  0.16932882  0.49848680  0.75181742  1
  In  In103  1  0.49599393  0.50259233  -0.00017491  1
  In  In104  1  -0.00104775  0.33449341  0.24960445  1
  In  In105  1  -0.00097027  0.67025558  0.00450615  1
  In  In106  1  0.33522449  0.00199851  0.24651771  1
  In  In107  1  0.50220408  0.17071545  0.50148344  1
  Ir  Ir108  1  0.33456527  0.67036498  0.00374675  1
  Ir  Ir109  1  0.50390171  0.16587796  -0.00241386  1
  Ir  Ir110  1  -0.00357692  0.33842685  -0.00085127  1
  Ir  Ir111  1  0.33378898  0.66742213  0.24888121  1
  Ir  Ir112  1  0.16675333  0.49892891  0.49675545  1
  Ir  Ir113  1  0.82741825  0.83007130  0.75332428  1
  Ir  Ir114  1  0.17020842  0.82624988  0.24673202  1
  Ir  Ir115  1  0.33178581  0.33759905  0.49990353  1
  Ir  Ir116  1  0.00030473  0.66355003  0.49928349  1
  Ir  Ir117  1  0.82977908  0.82881605  0.24634296  1
  Ir  Ir118  1  0.66435542  0.00151570  -0.00012327  1
  Ir  Ir119  1  0.34054144  0.00061027  0.00054218  1
  Ir  Ir120  1  0.66499937  0.66512129  0.50136204  1
  Ir  Ir121  1  0.33430065  0.34254472  0.24988538  1
  Ir  Ir122  1  0.33734587  0.66729111  0.75281108  1
  Ir  Ir123  1  0.49750985  0.50531190  0.25108530  1
  Ir  Ir124  1  0.82813145  0.17044543  0.49911773  1
  Ir  Ir125  1  0.82550462  0.83359916  0.00060727  1
  Ir  Ir126  1  0.00098960  0.32600355  0.74830998  1
  Ir  Ir127  1  0.16909169  0.50322772  0.25172205  1
  Ir  Ir128  1  0.83513291  0.49523526  0.00308358  1
  Ir  Ir129  1  0.00382954  0.66712879  0.25157585  1
  Ir  Ir130  1  0.66881663  0.33084363  0.50307443  1
  Ir  Ir131  1  0.66505278  -0.00334588  0.24645538  1
  Ir  Ir132  1  0.17585673  0.83149986  0.00297505  1
  Ir  Ir133  1  0.82983241  0.16884627  0.74433548  1
  Ir  Ir134  1  0.66701357  0.00384994  0.49576513  1
  Ir  Ir135  1  0.33298486  0.66472492  0.49727909  1
  Ir  Ir136  1  0.50314285  0.16665675  0.75088329  1
  Ir  Ir137  1  0.33830781  0.33430841  0.00222336  1
  Ir  Ir138  1  0.50332697  0.82964188  0.24406657  1
  Ir  Ir139  1  0.66881041  0.66570913  0.74978991  1
  Ir  Ir140  1  -0.00263880  0.32796229  0.50408403  1
  Ir  Ir141  1  0.65962597  0.66668983  0.25267304  1
  Ir  Ir142  1  0.66386228  0.32973892  0.00270346  1
  Ir  Ir143  1  0.16983574  0.17211191  0.74729233  1
  O  O144  1  0.30418703  0.33529546  0.12566448  1
  O  O145  1  0.30281398  0.32706044  0.61981482  1
  O  O146  1  0.30062963  0.66678311  0.12523499  1
  O  O147  1  0.31258485  0.66218769  0.62884518  1
  O  O148  1  0.31438402  0.98693349  0.11800877  1
  O  O149  1  0.31610504  0.98577393  0.62851830  1
  O  O150  1  0.63044634  0.32082464  0.12083057  1
  O  O151  1  0.63005521  0.31673188  0.62091174  1
  O  O152  1  0.63324070  0.66385603  0.13240683  1
  O  O153  1  0.64057635  0.65775618  0.62567195  1
  O  O154  1  0.63305933  0.98753543  0.12322513  1
  O  O155  1  0.63812326  1.00396559  0.61736502  1
  O  O156  1  0.96674035  0.33257439  0.11802906  1
  O  O157  1  0.96930579  0.31406151  0.62655917  1
  O  O158  1  0.98108786  0.66383681  0.13141050  1
  O  O159  1  0.96880665  0.66594660  0.61941420  1
  O  O160  1  0.98541980  0.99704110  0.12393002  1
  O  O161  1  0.97797204  1.01942700  0.62533829  1
  O  O162  1  0.18151989  0.18580331  0.12071878  1
  O  O163  1  0.19700615  0.16872636  0.62851213  1
  O  O164  1  0.18803175  0.48147612  0.13285572  1
  O  O165  1  0.18521785  0.48435363  0.61919601  1
  O  O166  1  0.20111007  0.81977607  0.12422107  1
  O  O167  1  0.20464991  0.82281013  0.62511502  1
  O  O168  1  0.53745740  0.15602998  0.11616860  1
  O  O169  1  0.53568847  0.15471770  0.63227445  1
  O  O170  1  0.51383500  0.49868956  0.12971186  1
  O  O171  1  0.53399244  0.48967889  0.62559764  1
  O  O172  1  0.53387954  0.81701030  0.12561107  1
  O  O173  1  0.51770028  0.82863139  0.62460599  1
  O  O174  1  0.85085951  0.16294329  0.12300210  1
  O  O175  1  0.86213164  0.16435809  0.62136451  1
  O  O176  1  0.86626449  0.48908805  0.12229577  1
  O  O177  1  0.85286386  0.48265329  0.62543699  1
  O  O178  1  0.84779352  0.82740014  0.12262880  1
  O  O179  1  0.84673608  0.81839051  0.63183223  1
  O  O180  1  0.13363541  0.18146175  0.37471709  1
  O  O181  1  0.15029154  0.18863690  0.86746079  1
  O  O182  1  0.14581777  0.51694125  0.37281818  1
  O  O183  1  0.15103990  0.49436575  0.88068991  1
  O  O184  1  0.15381807  0.82402442  0.36592048  1
  O  O185  1  0.15844262  0.83098659  0.88455526  1
  O  O186  1  0.48171517  0.17051950  0.37466576  1
  O  O187  1  0.47906368  0.18186869  0.87320645  1
  O  O188  1  0.47244233  0.50961215  0.37166153  1
  O  O189  1  0.46065821  0.51199571  0.87672968  1
  O  O190  1  0.48170787  0.83292319  0.36438914  1
  O  O191  1  0.46366266  0.84534451  0.87577752  1
  O  O192  1  0.79367257  0.18541546  0.38197283  1
  O  O193  1  0.79726949  0.17363395  0.86495232  1
  O  O194  1  0.82015623  0.49870542  0.37761428  1
  O  O195  1  0.81588461  0.50450193  0.88121657  1
  O  O196  1  0.81407794  0.83394037  0.36748972  1
  O  O197  1  0.80951917  0.84942486  0.87783775  1
  O  O198  1  0.01918303  0.00811404  0.37500234  1
  O  O199  1  0.00984730  -0.00695727  0.87231875  1
  O  O200  1  0.01306694  0.33853813  0.38532150  1
  O  O201  1  0.02979828  0.33785807  0.87227228  1
  O  O202  1  0.03191596  0.66418733  0.37536108  1
  O  O203  1  0.00813554  0.66678129  0.88026146  1
  O  O204  1  0.35276851  0.00105252  0.37135093  1
  O  O205  1  0.36987681  0.00864311  0.88182348  1
  O  O206  1  0.35826770  0.35184878  0.37443344  1
  O  O207  1  0.37194517  0.34307843  0.88192910  1
  O  O208  1  0.36456145  0.66513352  0.37340111  1
  O  O209  1  0.36821073  0.67822167  0.87911165  1
  O  O210  1  0.69879354  0.00964313  0.37074952  1
  O  O211  1  0.70025065  0.01371962  0.88102452  1
  O  O212  1  0.70459960  0.33954968  0.38527656  1
  O  O213  1  0.68312058  0.33016258  0.88242415  1
  O  O214  1  0.68681226  0.66613242  0.37742570  1
  O  O215  1  0.70453962  0.66583883  0.86792341  1
  O  O216  1  0.07887292  0.09198133  0.00493368  1
  O  O217  1  0.05887285  0.10771104  0.51231374  1
  O  O218  1  0.06399635  0.42899142  0.02868116  1
  O  O219  1  0.07562289  0.41849030  0.52516555  1
  O  O220  1  0.08792343  0.75752204  0.02294298  1
  O  O221  1  0.07451046  0.74777779  0.51405406  1
  O  O222  1  0.41255916  0.09253022  0.02546808  1
  O  O223  1  0.40973001  0.09818281  0.53540820  1
  O  O224  1  0.40724989  0.42252070  0.02572674  1
  O  O225  1  0.40915878  0.42072360  0.51843596  1
  O  O226  1  0.39920314  0.76380906  0.02903162  1
  O  O227  1  0.39680341  0.76048702  0.51768704  1
  O  O228  1  0.72314087  0.09894610  0.02068517  1
  O  O229  1  0.73172308  0.10476383  0.51881318  1
  O  O230  1  0.74136181  0.41829902  0.02858995  1
  O  O231  1  0.72922234  0.42367237  0.53461968  1
  O  O232  1  0.73252635  0.76600334  0.02271719  1
  O  O233  1  0.74210982  0.74918257  0.51964990  1
  O  O234  1  0.09383403  0.27724297  0.01034693  1
  O  O235  1  0.08956491  0.26461204  0.53473670  1
  O  O236  1  0.09318125  0.59269056  0.03442396  1
  O  O237  1  0.09319055  0.58780165  0.51638972  1
  O  O238  1  0.10097014  0.91640448  0.01560719  1
  O  O239  1  0.09019362  0.91994018  0.51403191  1
  O  O240  1  0.43868067  0.26597089  0.02419630  1
  O  O241  1  0.42198279  0.26488193  0.53032871  1
  O  O242  1  0.42840214  0.60762593  0.02492129  1
  O  O243  1  0.42438362  0.59472212  0.50919279  1
  O  O244  1  0.43221037  0.93303169  0.02511817  1
  O  O245  1  0.43558287  0.93299384  0.52373465  1
  O  O246  1  0.75436155  0.26147118  0.02833136  1
  O  O247  1  0.76371799  0.26553821  0.53192002  1
  O  O248  1  0.76172280  0.58423673  0.01621690  1
  O  O249  1  0.75456033  0.59339699  0.53029809  1
  O  O250  1  0.75144084  0.92593080  0.02601601  1
  O  O251  1  0.75399433  0.93085150  0.50750878  1
  O  O252  1  0.24362231  0.08108312  0.25736483  1
  O  O253  1  0.23635783  0.08015362  0.76784598  1
  O  O254  1  0.24763842  0.41980949  0.28010884  1
  O  O255  1  0.24362406  0.40472895  0.78018072  1
  O  O256  1  0.23327146  0.72558912  0.26466324  1
  O  O257  1  0.24720648  0.73224954  0.77431193  1
  O  O258  1  0.57923862  0.06871279  0.26349761  1
  O  O259  1  0.56731559  0.07421483  0.78091793  1
  O  O260  1  0.56733001  0.41177753  0.26024090  1
  O  O261  1  0.56269689  0.39491029  0.77718887  1
  O  O262  1  0.56291839  0.73124895  0.27104015  1
  O  O263  1  0.57345042  0.73141103  0.77689651  1
  O  O264  1  0.89554304  0.06637253  0.27992924  1
  O  O265  1  0.89198898  0.07514492  0.77065677  1
  O  O266  1  0.89724980  0.39478921  0.26548878  1
  O  O267  1  0.91017758  0.39688078  0.75930554  1
  O  O268  1  0.90899390  0.73849236  0.26886450  1
  O  O269  1  0.88995936  0.73603681  0.77105463  1
  O  O270  1  0.26505950  0.25615041  0.26733843  1
  O  O271  1  0.26308042  0.23893472  0.76143799  1
  O  O272  1  0.26514131  0.57406771  0.27808145  1
  O  O273  1  0.27507004  0.56833664  0.77447902  1
  O  O274  1  0.26170451  0.89574867  0.25260323  1
  O  O275  1  0.27152400  0.89977501  0.77613409  1
  O  O276  1  0.60399843  0.23269230  0.26969555  1
  O  O277  1  0.59854808  0.22790342  0.77407442  1
  O  O278  1  0.58448976  0.57890732  0.28093480  1
  O  O279  1  0.59912501  0.57497786  0.77045625  1
  O  O280  1  0.59965237  0.89588411  0.25781286  1
  O  O281  1  0.59153658  0.91271248  0.77587179  1
  O  O282  1  0.92956667  0.23503308  0.28326586  1
  O  O283  1  0.92679866  0.23416546  0.76197581  1
  O  O284  1  0.93464079  0.57434358  0.25892846  1
  O  O285  1  0.91546376  0.57939162  0.76949217  1
  O  O286  1  0.91603086  0.90368903  0.26640407  1
  O  O287  1  0.91459287  0.90357140  0.76398465  1
  O  O288  1  0.26022266  0.25126878  0.48451020  1
  O  O289  1  0.26184320  0.25275111  0.97824319  1
  O  O290  1  0.26046803  0.57066470  0.47036751  1
  O  O291  1  0.27045953  0.57415460  0.97983023  1
  O  O292  1  0.26857755  0.89875174  0.49022585  1
  O  O293  1  0.27598697  0.90027477  0.98141495  1
  O  O294  1  0.60857170  0.23554354  0.47791805  1
  O  O295  1  0.59705488  0.23500580  0.97229836  1
  O  O296  1  0.59321649  0.57814442  0.48298589  1
  O  O297  1  0.58746091  0.57669726  0.97590377  1
  O  O298  1  0.59889715  0.91341894  0.47828863  1
  O  O299  1  0.59303971  0.91362102  0.97846633  1
  O  O300  1  0.92752410  0.23366158  0.47616069  1
  O  O301  1  0.92778151  0.24787772  0.97853369  1
  O  O302  1  0.92644595  0.57788203  0.48909476  1
  O  O303  1  0.92041684  0.57093173  0.98850225  1
  O  O304  1  0.91403966  0.91457204  0.48173641  1
  O  O305  1  0.91354923  0.90489695  0.98502727  1
  O  O306  1  0.24074629  0.07946261  0.48494780  1
  O  O307  1  0.25132252  0.07220175  0.98576766  1
  O  O308  1  0.24714240  0.41670717  0.47334149  1
  O  O309  1  0.24560879  0.40298795  0.97751514  1
  O  O310  1  0.23847006  0.72561797  0.47538013  1
  O  O311  1  0.24473653  0.73852663  0.98188174  1
  O  O312  1  0.58068536  0.07519255  0.47707669  1
  O  O313  1  0.56968548  0.06971584  0.96950780  1
  O  O314  1  0.57698096  0.39785128  0.48431962  1
  O  O315  1  0.56907213  0.39887893  0.98486321  1
  O  O316  1  0.57186810  0.73341994  0.47672998  1
  O  O317  1  0.56482188  0.73334765  0.97383045  1
  O  O318  1  0.88978967  0.07914104  0.46743459  1
  O  O319  1  0.89658963  0.06904527  0.97212463  1
  O  O320  1  0.89862747  0.38911094  0.48967740  1
  O  O321  1  0.90281300  0.40457701  0.98248511  1
  O  O322  1  0.91383335  0.73809829  0.48604907  1
  O  O323  1  0.89303211  0.74091772  0.98002647  1
  O  O324  1  0.10006711  0.27817006  0.22429053  1
  O  O325  1  0.10171827  0.26495066  0.72571217  1
  O  O326  1  0.09980775  0.59776146  0.22467395  1
  O  O327  1  0.08935278  0.58484588  0.73759821  1
  O  O328  1  0.09921986  0.91571980  0.23462913  1
  O  O329  1  0.09333839  0.92565600  0.73437904  1
  O  O330  1  0.42750330  0.27200299  0.22344166  1
  O  O331  1  0.43733927  0.25929077  0.72049271  1
  O  O332  1  0.43353605  0.60569678  0.23284739  1
  O  O333  1  0.43092367  0.60300199  0.74109576  1
  O  O334  1  0.43654766  0.92085666  0.21516811  1
  O  O335  1  0.44077352  0.94278649  0.73309575  1
  O  O336  1  0.76256641  0.26234799  0.22101330  1
  O  O337  1  0.76303768  0.26100918  0.71757300  1
  O  O338  1  0.74948267  0.59487167  0.23849629  1
  O  O339  1  0.75761784  0.59652373  0.71983956  1
  O  O340  1  0.75608122  0.92021481  0.22647115  1
  O  O341  1  0.76124158  0.92365024  0.73639461  1
  O  O342  1  0.06538091  0.10147176  0.24138492  1
  O  O343  1  0.07427062  0.10830810  0.73033451  1
  O  O344  1  0.07075637  0.44138097  0.23317810  1
  O  O345  1  0.07688752  0.41006432  0.72944780  1
  O  O346  1  0.07916802  0.75467276  0.22648984  1
  O  O347  1  0.07487509  0.75801344  0.73860709  1
  O  O348  1  0.41939748  0.08707477  0.21836791  1
  O  O349  1  0.40827325  0.10570184  0.72419602  1
  O  O350  1  0.40912881  0.42984036  0.22921578  1
  O  O351  1  0.41064270  0.42257452  0.71765321  1
  O  O352  1  0.40498591  0.76170001  0.21826055  1
  O  O353  1  0.39478431  0.76669244  0.73363632  1
  O  O354  1  0.72661702  0.09443737  0.23021240  1
  O  O355  1  0.73381104  0.10492557  0.72544513  1
  O  O356  1  0.74211241  0.42309579  0.22267169  1
  O  O357  1  0.73147010  0.42934667  0.72803392  1
  O  O358  1  0.72956452  0.75937605  0.22494296  1
  O  O359  1  0.73756322  0.75539306  0.72660873  1
