# generated using pymatgen
data_BaLaInIrO6
_symmetry_space_group_name_H-M   'P 1'
_cell_length_a   17.53698988
_cell_length_b   17.58451057
_cell_length_c   16.51278586
_cell_angle_alpha   89.97932841
_cell_angle_beta   89.97826071
_cell_angle_gamma   89.94729123
_symmetry_Int_Tables_number   1
_chemical_formula_structural   BaLaInIrO6
_chemical_formula_sum   'Ba36 La36 In36 Ir36 O216'
_cell_volume   5092.19987546
_cell_formula_units_Z   36
loop_
 _symmetry_equiv_pos_site_id
 _symmetry_equiv_pos_as_xyz
  1  'x, y, z'
loop_
 _atom_site_type_symbol
 _atom_site_label
 _atom_site_symmetry_multiplicity
 _atom_site_fract_x
 _atom_site_fract_y
 _atom_site_fract_z
 _atom_site_occupancy
  Ba  Ba0  1  0.66736770  0.49157116  0.37639545  1
  Ba  Ba1  1  0.16739560  0.99137567  0.37620848  1
  Ba  Ba2  1  0.67290970  0.49473850  0.87288727  1
  Ba  Ba3  1  0.00016537  0.82678573  0.87820241  1
  Ba  Ba4  1  1.00089753  0.84047689  0.62748466  1
  Ba  Ba5  1  0.16425335  0.33835236  0.62242061  1
  Ba  Ba6  1  0.16579521  0.67426856  0.62607693  1
  Ba  Ba7  1  0.83032994  0.65879847  0.37632655  1
  Ba  Ba8  1  0.16681916  0.32325089  0.37062756  1
  Ba  Ba9  1  0.66776922  0.82313605  0.88195167  1
  Ba  Ba10  1  -0.00413156  0.15392702  0.87386963  1
  Ba  Ba11  1  1.00269303  0.17376380  0.62637688  1
  Ba  Ba12  1  0.33050921  0.15503559  0.88221013  1
  Ba  Ba13  1  0.83298822  0.01056974  0.12108855  1
  Ba  Ba14  1  1.00442722  0.51243963  0.12045113  1
  Ba  Ba15  1  0.66360963  0.15809416  0.37359115  1
  Ba  Ba16  1  0.83228300  0.66122702  0.87739024  1
  Ba  Ba17  1  0.49893652  0.34209968  0.62651512  1
  Ba  Ba18  1  0.50312454  0.33936538  0.12129396  1
  Ba  Ba19  1  0.83517316  0.67469425  0.62691338  1
  Ba  Ba20  1  0.50218005  0.65820673  0.37393119  1
  Ba  Ba21  1  0.33142809  0.82511442  0.37437742  1
  Ba  Ba22  1  1.00218453  0.84143496  0.12301172  1
  Ba  Ba23  1  0.83721781  0.33916547  0.62925083  1
  Ba  Ba24  1  0.83723748  0.31865577  0.87664046  1
  Ba  Ba25  1  0.49987727  0.00616223  0.62589085  1
  Ba  Ba26  1  0.49950993  0.98300968  0.37324516  1
  Ba  Ba27  1  0.16596649  0.99125596  0.87662262  1
  Ba  Ba28  1  0.16702442  0.00857641  0.62722256  1
  Ba  Ba29  1  0.33296766  0.51095815  0.62196346  1
  Ba  Ba30  1  0.15999933  0.00739798  0.12343082  1
  Ba  Ba31  1  0.33207497  0.15924170  0.37367578  1
  Ba  Ba32  1  0.66931063  0.84219302  0.62796786  1
  Ba  Ba33  1  0.16433260  0.68055308  0.12556285  1
  Ba  Ba34  1  0.83550530  0.67737068  0.12228863  1
  Ba  Ba35  1  0.66758822  0.16275140  0.87438346  1
  La  La36  1  0.50232086  0.32664991  0.38581295  1
  La  La37  1  0.84107153  0.32194432  0.37161578  1
  La  La38  1  0.83958696  0.98737615  0.87309304  1
  La  La39  1  0.49244568  0.68473252  0.62466786  1
  La  La40  1  0.67421400  0.51853646  0.12306126  1
  La  La41  1  0.33435555  0.85020980  0.12745320  1
  La  La42  1  0.16807141  0.31270703  0.87516325  1
  La  La43  1  0.33693354  0.51756858  0.12601234  1
  La  La44  1  0.16760241  0.65252984  0.87906946  1
  La  La45  1  0.50590011  0.31921037  0.87134779  1
  La  La46  1  0.33264960  0.17849147  0.12635575  1
  La  La47  1  -0.00253619  0.15196381  0.37890517  1
  La  La48  1  0.67313000  0.18630452  0.12642946  1
  La  La49  1  0.66354027  0.82360078  0.37545492  1
  La  La50  1  -0.00738170  0.48412317  0.87660268  1
  La  La51  1  0.50070656  0.97861404  0.87728881  1
  La  La52  1  0.49577321  0.68534515  0.12801189  1
  La  La53  1  -0.00081262  0.82051375  0.37178052  1
  La  La54  1  0.49934328  0.01247519  0.12820021  1
  La  La55  1  0.66990460  0.84531044  0.12552318  1
  La  La56  1  1.00495877  0.17801999  0.11812954  1
  La  La57  1  0.83852573  0.98540332  0.37526483  1
  La  La58  1  0.32374281  0.82241142  0.87552985  1
  La  La59  1  0.50694492  0.65160069  0.87663968  1
  La  La60  1  0.82890651  0.35029096  0.12172762  1
  La  La61  1  0.67282880  0.17813125  0.62531584  1
  La  La62  1  -0.00534262  0.48701850  0.37638071  1
  La  La63  1  0.17096127  0.65475407  0.37181102  1
  La  La64  1  0.33040716  0.48989972  0.37562550  1
  La  La65  1  0.33752082  0.18219623  0.62646245  1
  La  La66  1  0.16060833  0.34397170  0.11598545  1
  La  La67  1  1.01200469  0.51261015  0.62799448  1
  La  La68  1  0.66776904  0.51456941  0.62370001  1
  La  La69  1  0.82636091  0.01397715  0.63076280  1
  La  La70  1  0.32861645  0.48178525  0.87451186  1
  La  La71  1  0.33360453  0.84385774  0.62122749  1
  In  In72  1  0.00213736  0.66612650  0.49751837  1
  In  In73  1  0.49928061  0.16331782  -0.00143207  1
  In  In74  1  0.33544111  0.66525949  0.75420399  1
  In  In75  1  0.00037369  0.33242436  0.50016232  1
  In  In76  1  0.66552273  0.00363256  -0.00048751  1
  In  In77  1  0.83713154  0.50080905  0.74636692  1
  In  In78  1  0.16652275  0.83059930  0.75104434  1
  In  In79  1  0.66520149  0.00167183  0.75478019  1
  In  In80  1  0.33419421  0.33647312  0.24560921  1
  In  In81  1  0.66464882  0.66766958  0.50252419  1
  In  In82  1  0.66642161  0.33708075  0.74717028  1
  In  In83  1  0.66785548  0.33649645  0.25229663  1
  In  In84  1  0.66835073  0.00042526  0.49903005  1
  In  In85  1  0.83466809  0.50052697  0.24920256  1
  In  In86  1  0.00275972  0.66613838  0.24976808  1
  In  In87  1  0.50082089  0.16449918  0.50227918  1
  In  In88  1  0.16751760  0.49487155  0.75437163  1
  In  In89  1  0.33225133  0.00089186  0.50063824  1
  In  In90  1  0.83408836  0.83569417  0.49917308  1
  In  In91  1  0.33435129  0.00056462  0.75412725  1
  In  In92  1  0.66591681  0.33939326  -0.00356160  1
  In  In93  1  0.33259875  0.33558136  0.00187709  1
  In  In94  1  -0.00066385  -0.00237075  0.50136684  1
  In  In95  1  0.83592735  0.49646728  0.50239315  1
  In  In96  1  0.16632537  0.16624493  0.49908152  1
  In  In97  1  0.83453653  0.83304578  0.75123566  1
  In  In98  1  0.66744004  0.00221880  0.24895973  1
  In  In99  1  0.50012949  0.49810168  0.24776371  1
  In  In100  1  0.16707410  0.49783636  0.24721291  1
  In  In101  1  0.50239661  0.16763765  0.24749401  1
  In  In102  1  0.33346279  0.33532952  0.50050572  1
  In  In103  1  0.66191523  0.66784191  0.75029921  1
  In  In104  1  0.66534425  0.66802549  0.24702039  1
  In  In105  1  -0.00124352  0.00127734  0.24689656  1
  In  In106  1  0.49852315  0.50317519  0.50214545  1
  In  In107  1  0.33586456  0.66782302  0.00050472  1
  Ir  Ir108  1  0.33326062  0.66954667  0.25109876  1
  Ir  Ir109  1  0.00461129  0.66734053  -0.00309842  1
  Ir  Ir110  1  0.33095846  0.66966913  0.49788817  1
  Ir  Ir111  1  0.49526690  0.50014051  0.75479468  1
  Ir  Ir112  1  0.67120171  0.33156222  0.50090273  1
  Ir  Ir113  1  0.49366483  0.83316135  0.75444945  1
  Ir  Ir114  1  0.83796961  0.17076907  0.24801756  1
  Ir  Ir115  1  0.00272034  0.33178762  0.75453253  1
  Ir  Ir116  1  0.83008209  0.83569053  0.24710095  1
  Ir  Ir117  1  0.00015569  0.32717566  0.24279083  1
  Ir  Ir118  1  0.33337927  -0.00269988  0.00603516  1
  Ir  Ir119  1  0.49499517  0.83319832  0.00322943  1
  Ir  Ir120  1  0.16780197  0.83237582  0.00045611  1
  Ir  Ir121  1  0.32906536  0.00045231  0.24392195  1
  Ir  Ir122  1  0.49765805  0.82996722  0.50001312  1
  Ir  Ir123  1  0.49828604  0.16700810  0.75112322  1
  Ir  Ir124  1  0.83524866  0.16610122  0.74824660  1
  Ir  Ir125  1  0.49833312  0.83227817  0.24725508  1
  Ir  Ir126  1  0.16485801  0.50330923  0.49827465  1
  Ir  Ir127  1  0.00108646  0.33174809  0.00135979  1
  Ir  Ir128  1  0.16787957  0.83043744  0.49826099  1
  Ir  Ir129  1  0.16842223  0.83385084  0.25104090  1
  Ir  Ir130  1  -0.00209661  0.00158630  0.75235649  1
  Ir  Ir131  1  0.83748157  0.50239848  -0.00049284  1
  Ir  Ir132  1  0.83780313  0.16752765  0.00378340  1
  Ir  Ir133  1  0.16413196  0.16678782  0.24223182  1
  Ir  Ir134  1  0.16867044  0.16764885  0.75503426  1
  Ir  Ir135  1  0.33527662  0.33173749  0.75585398  1
  Ir  Ir136  1  0.65960958  0.66550541  0.00085703  1
  Ir  Ir137  1  0.83031650  0.16850006  0.49579063  1
  Ir  Ir138  1  0.16541683  0.49810799  -0.00473826  1
  Ir  Ir139  1  0.49841576  0.50343996  -0.00091018  1
  Ir  Ir140  1  0.00422189  0.66392614  0.75470668  1
  Ir  Ir141  1  0.83179443  0.83298001  0.00541122  1
  Ir  Ir142  1  -0.00320463  0.00001734  -0.00240076  1
  Ir  Ir143  1  0.16631747  0.16340625  0.00102559  1
  O  O144  1  0.29386157  0.32817968  0.12237620  1
  O  O145  1  0.31270412  0.32558042  0.63654348  1
  O  O146  1  0.31227343  0.65815605  0.12987402  1
  O  O147  1  0.31497833  0.67217566  0.61917241  1
  O  O148  1  0.30699547  0.98699398  0.12421203  1
  O  O149  1  0.31759789  0.97958734  0.62871881  1
  O  O150  1  0.65571249  0.32455465  0.12111440  1
  O  O151  1  0.64788331  0.31645210  0.62050868  1
  O  O152  1  0.63290638  0.66023706  0.11892453  1
  O  O153  1  0.62777529  0.65702036  0.62826249  1
  O  O154  1  0.63680075  0.98450196  0.12334225  1
  O  O155  1  0.65297972  0.99894636  0.62800897  1
  O  O156  1  0.96745061  0.31761396  0.12217247  1
  O  O157  1  0.98866457  0.33134717  0.63398288  1
  O  O158  1  0.98680696  0.66786469  0.11817560  1
  O  O159  1  0.98596729  0.65222396  0.63288515  1
  O  O160  1  0.98190737  1.00004768  0.11793482  1
  O  O161  1  0.96746924  1.00019599  0.63198959  1
  O  O162  1  0.19566794  0.16481449  0.12138884  1
  O  O163  1  0.19651372  0.16964747  0.63572494  1
  O  O164  1  0.19983726  0.48764905  0.11524943  1
  O  O165  1  0.18142574  0.49846789  0.62208618  1
  O  O166  1  0.19773612  0.83237259  0.12752837  1
  O  O167  1  0.19671211  0.82731101  0.61980499  1
  O  O168  1  0.53763281  0.14889549  0.12080952  1
  O  O169  1  0.53392946  0.16175363  0.63461275  1
  O  O170  1  0.53563977  0.49410758  0.11350374  1
  O  O171  1  0.52866551  0.49536738  0.63702223  1
  O  O172  1  0.52968156  0.82812571  0.12408720  1
  O  O173  1  0.51902029  0.82390490  0.62895381  1
  O  O174  1  0.86980883  0.16342100  0.12609294  1
  O  O175  1  0.85510229  0.15342275  0.62150695  1
  O  O176  1  0.85669197  0.49318728  0.11877704  1
  O  O177  1  0.87879407  0.49669315  0.62529904  1
  O  O178  1  0.85386980  0.83213865  0.12634617  1
  O  O179  1  0.85210984  0.83311255  0.62556315  1
  O  O180  1  0.13435422  0.16867211  0.36023026  1
  O  O181  1  0.14334868  0.17355746  0.87922036  1
  O  O182  1  0.13406571  0.51027508  0.37853419  1
  O  O183  1  0.13075383  0.50891912  0.87976608  1
  O  O184  1  0.13747775  0.83387413  0.37477362  1
  O  O185  1  0.15136789  0.83514883  0.88218739  1
  O  O186  1  0.48416250  0.18945034  0.37333443  1
  O  O187  1  0.47594959  0.18114423  0.86931040  1
  O  O188  1  0.46516851  0.50348605  0.37384321  1
  O  O189  1  0.46131844  0.51541358  0.87721246  1
  O  O190  1  0.47892175  0.82663611  0.37415490  1
  O  O191  1  0.46138510  0.84071885  0.87922425  1
  O  O192  1  0.81035788  0.18609019  0.37162612  1
  O  O193  1  0.81535884  0.16600071  0.87677655  1
  O  O194  1  0.81874308  0.49186805  0.37447167  1
  O  O195  1  0.82411171  0.50319237  0.87879503  1
  O  O196  1  0.79942286  0.84399925  0.36492777  1
  O  O197  1  0.81794401  0.83939707  0.88485361  1
  O  O198  1  0.01591581  0.01660643  0.37105382  1
  O  O199  1  0.01824264  -0.00020340  0.87609796  1
  O  O200  1  0.01763156  0.34437436  0.36200642  1
  O  O201  1  0.03184323  0.34266280  0.87898979  1
  O  O202  1  0.03593110  0.68160133  0.37317713  1
  O  O203  1  0.03377417  0.66994469  0.87592851  1
  O  O204  1  0.34833661  0.00146472  0.36342412  1
  O  O205  1  0.36301673  -0.00064968  0.88679478  1
  O  O206  1  0.36713201  0.34584859  0.37154247  1
  O  O207  1  0.36733244  0.34116618  0.87564129  1
  O  O208  1  0.35371477  0.66883425  0.37539053  1
  O  O209  1  0.37250824  0.68441532  0.87892528  1
  O  O210  1  0.70117347  -0.00150475  0.37170735  1
  O  O211  1  0.70215244  0.00417050  0.87840304  1
  O  O212  1  0.70317478  0.33713920  0.38103334  1
  O  O213  1  0.68683362  0.33575674  0.87268021  1
  O  O214  1  0.67556989  0.68593191  0.37274757  1
  O  O215  1  0.67669857  0.66618871  0.88142356  1
  O  O216  1  0.06819907  0.09534136  0.02071974  1
  O  O217  1  0.06712069  0.09521631  0.50894582  1
  O  O218  1  0.07578427  0.42188779  0.02217092  1
  O  O219  1  0.06905882  0.43855875  0.51558042  1
  O  O220  1  0.07465542  0.76193003  0.01631527  1
  O  O221  1  0.07871401  0.76326057  0.51515173  1
  O  O222  1  0.39895839  0.08839862  0.03298415  1
  O  O223  1  0.40046369  0.09787914  0.52876474  1
  O  O224  1  0.39882222  0.44330981  0.01816651  1
  O  O225  1  0.40703093  0.42900787  0.51710105  1
  O  O226  1  0.40486520  0.76654382  0.03399233  1
  O  O227  1  0.39946297  0.76392225  0.52480612  1
  O  O228  1  0.73998158  0.10492566  0.02542965  1
  O  O229  1  0.73795410  0.10626454  0.52344979  1
  O  O230  1  0.74454869  0.43378127  0.02305731  1
  O  O231  1  0.73257111  0.42474968  0.52963616  1
  O  O232  1  0.73304930  0.76060947  0.02846328  1
  O  O233  1  0.73393642  0.76704010  0.50622034  1
  O  O234  1  0.09511492  0.25935096  0.02459856  1
  O  O235  1  0.09016240  0.25885692  0.50906328  1
  O  O236  1  0.10077579  0.59791990  0.01295028  1
  O  O237  1  0.09767744  0.59121299  0.51761958  1
  O  O238  1  0.09317698  0.92469788  0.01600667  1
  O  O239  1  0.09766118  0.91963309  0.51748617  1
  O  O240  1  0.41456449  0.24986837  0.02438787  1
  O  O241  1  0.42422803  0.25652634  0.52408207  1
  O  O242  1  0.43501717  0.59650612  0.02882578  1
  O  O243  1  0.42551483  0.60636758  0.52339100  1
  O  O244  1  0.42962745  0.93041934  0.03068939  1
  O  O245  1  0.42593881  0.91794308  0.51460869  1
  O  O246  1  0.77194118  0.26050218  0.02671830  1
  O  O247  1  0.76453179  0.26235373  0.51954167  1
  O  O248  1  0.75477210  0.59129369  0.02477945  1
  O  O249  1  0.75613316  0.58711701  0.52495945  1
  O  O250  1  0.75348272  0.91574395  0.02307135  1
  O  O251  1  0.77640176  0.94442953  0.51518316  1
  O  O252  1  0.23523257  0.07284563  0.26460104  1
  O  O253  1  0.23863121  0.07813614  0.76911986  1
  O  O254  1  0.24716665  0.41658493  0.27894546  1
  O  O255  1  0.24255380  0.39958528  0.78458372  1
  O  O256  1  0.23551752  0.73536310  0.27402172  1
  O  O257  1  0.23812951  0.73342695  0.78327275  1
  O  O258  1  0.56387475  0.06217324  0.26042691  1
  O  O259  1  0.56202536  0.07325290  0.77905885  1
  O  O260  1  0.56223675  0.39381863  0.27886178  1
  O  O261  1  0.55976330  0.40673102  0.77659320  1
  O  O262  1  0.56176756  0.73870326  0.25376616  1
  O  O263  1  0.55389125  0.73570033  0.77028553  1
  O  O264  1  0.89735228  0.07581968  0.27507215  1
  O  O265  1  0.90045449  0.06838259  0.76988663  1
  O  O266  1  0.90426168  0.39096214  0.25933598  1
  O  O267  1  0.91504200  0.40327014  0.77353821  1
  O  O268  1  0.90574638  0.74869753  0.27068479  1
  O  O269  1  0.91542481  0.73542246  0.76670182  1
  O  O270  1  0.25382183  0.23521644  0.26011946  1
  O  O271  1  0.26025571  0.24162563  0.77946165  1
  O  O272  1  0.26898635  0.57551699  0.27304308  1
  O  O273  1  0.26228124  0.56871527  0.78253241  1
  O  O274  1  0.26266209  0.90140206  0.25961041  1
  O  O275  1  0.26649377  0.89867192  0.77231621  1
  O  O276  1  0.60650522  0.23329177  0.25064141  1
  O  O277  1  0.58460503  0.24268869  0.76808080  1
  O  O278  1  0.59676762  0.56734163  0.25554093  1
  O  O279  1  0.58278072  0.56964776  0.77508607  1
  O  O280  1  0.59561414  0.89252704  0.26746607  1
  O  O281  1  0.58511365  0.90396443  0.77760189  1
  O  O282  1  0.93742929  0.23190757  0.27214332  1
  O  O283  1  0.93062278  0.23979000  0.76682306  1
  O  O284  1  0.93587135  0.56629872  0.27272456  1
  O  O285  1  0.93950685  0.57021268  0.77444824  1
  O  O286  1  0.92127603  0.90519988  0.27380307  1
  O  O287  1  0.92694148  0.91627338  0.77346694  1
  O  O288  1  0.25804234  0.24427760  0.48593319  1
  O  O289  1  0.24869953  0.24147492  0.98152482  1
  O  O290  1  0.26103234  0.57429853  0.47066682  1
  O  O291  1  0.25952968  0.56775822  0.97151551  1
  O  O292  1  0.25816793  0.89842860  0.48776329  1
  O  O293  1  0.26924626  0.89607252  0.98444233  1
  O  O294  1  0.59965834  0.24552291  0.48305314  1
  O  O295  1  0.58616127  0.24743059  0.98149809  1
  O  O296  1  0.59528954  0.56846250  0.48776398  1
  O  O297  1  0.59116247  0.57128602  0.97603642  1
  O  O298  1  0.59518400  0.89366846  0.47853809  1
  O  O299  1  0.58236652  0.90292191  0.98022483  1
  O  O300  1  0.92438422  0.23354729  0.47215799  1
  O  O301  1  0.93466136  0.23599921  0.98655882  1
  O  O302  1  0.93731921  0.56582133  0.47492985  1
  O  O303  1  0.93677223  0.57199565  0.97566744  1
  O  O304  1  0.93011640  0.90663025  0.46136094  1
  O  O305  1  0.91815796  0.91253551  0.97676610  1
  O  O306  1  0.23838120  0.07288014  0.48594934  1
  O  O307  1  0.23863109  0.06876136  0.98425010  1
  O  O308  1  0.23982274  0.41948662  0.47770055  1
  O  O309  1  0.23173303  0.40547299  0.96798258  1
  O  O310  1  0.23344211  0.73385465  0.47361699  1
  O  O311  1  0.23695769  0.73988117  0.97592838  1
  O  O312  1  0.57248035  0.07046186  0.47996553  1
  O  O313  1  0.56115974  0.06160952  0.97352933  1
  O  O314  1  0.57797709  0.39874344  0.48090215  1
  O  O315  1  0.55878205  0.40975931  0.97052901  1
  O  O316  1  0.56157098  0.73864678  0.49426011  1
  O  O317  1  0.55910814  0.73250243  0.98168617  1
  O  O318  1  0.89432021  0.07556438  0.47310493  1
  O  O319  1  0.90180640  0.06802200  0.97783670  1
  O  O320  1  0.90507257  0.39751588  0.47342387  1
  O  O321  1  0.91246609  0.40985318  0.97752405  1
  O  O322  1  0.91359299  0.74520434  0.47426401  1
  O  O323  1  0.91086407  0.73867213  0.98254563  1
  O  O324  1  0.09609921  0.25976219  0.21301163  1
  O  O325  1  0.10082546  0.26564585  0.74593031  1
  O  O326  1  0.10116647  0.59457419  0.23644588  1
  O  O327  1  0.09379616  0.59357582  0.74022967  1
  O  O328  1  0.09605020  0.92240717  0.23721796  1
  O  O329  1  0.08721842  0.92847811  0.73666106  1
  O  O330  1  0.41748449  0.25137292  0.21657707  1
  O  O331  1  0.42419092  0.25784357  0.72807973  1
  O  O332  1  0.42597902  0.60348124  0.22270295  1
  O  O333  1  0.43367895  0.59580770  0.72932988  1
  O  O334  1  0.42561939  0.93022874  0.22102404  1
  O  O335  1  0.43356697  0.92781220  0.74405332  1
  O  O336  1  0.77918101  0.26743727  0.22604298  1
  O  O337  1  0.75958950  0.25167714  0.73054509  1
  O  O338  1  0.75893255  0.59382994  0.22771942  1
  O  O339  1  0.75197078  0.58701044  0.72836110  1
  O  O340  1  0.75979855  0.92312213  0.22452554  1
  O  O341  1  0.76997840  0.93766356  0.73940313  1
  O  O342  1  0.06807389  0.10414562  0.22356728  1
  O  O343  1  0.07664171  0.09485675  0.73359056  1
  O  O344  1  0.07454270  0.41356196  0.21970477  1
  O  O345  1  0.06636809  0.42727888  0.73702201  1
  O  O346  1  0.07772686  0.76774791  0.23789982  1
  O  O347  1  0.07269357  0.75379287  0.73604305  1
  O  O348  1  0.39784378  0.08979327  0.21871733  1
  O  O349  1  0.40471873  0.10179485  0.72772228  1
  O  O350  1  0.40131391  0.43649512  0.21220409  1
  O  O351  1  0.39749910  0.43227901  0.74133761  1
  O  O352  1  0.40040512  0.76532993  0.22212690  1
  O  O353  1  0.39996209  0.76966979  0.72676496  1
  O  O354  1  0.74094643  0.10788652  0.22315043  1
  O  O355  1  0.74234891  0.10071689  0.72535278  1
  O  O356  1  0.73720287  0.43056581  0.21721328  1
  O  O357  1  0.73638636  0.43137961  0.72144831  1
  O  O358  1  0.73520420  0.77016987  0.22610732  1
  O  O359  1  0.73849577  0.75961599  0.74300407  1
