# generated using pymatgen
data_BaLaInIrO6
_symmetry_space_group_name_H-M   'P 1'
_cell_length_a   17.50087917
_cell_length_b   17.51936645
_cell_length_c   16.47719305
_cell_angle_alpha   90.03555864
_cell_angle_beta   90.01353230
_cell_angle_gamma   90.05227199
_symmetry_Int_Tables_number   1
_chemical_formula_structural   BaLaInIrO6
_chemical_formula_sum   'Ba36 La36 In36 Ir36 O216'
_cell_volume   5051.97527705
_cell_formula_units_Z   36
loop_
 _symmetry_equiv_pos_site_id
 _symmetry_equiv_pos_as_xyz
  1  'x, y, z'
loop_
 _atom_site_type_symbol
 _atom_site_label
 _atom_site_symmetry_multiplicity
 _atom_site_fract_x
 _atom_site_fract_y
 _atom_site_fract_z
 _atom_site_occupancy
  Ba  Ba0  1  1.00475883  0.84751326  0.12805325  1
  Ba  Ba1  1  0.33528332  0.84188914  0.12833235  1
  Ba  Ba2  1  0.50250804  0.65905120  0.37550056  1
  Ba  Ba3  1  0.33233404  0.81961848  0.37848211  1
  Ba  Ba4  1  0.33399888  0.51066557  0.12194384  1
  Ba  Ba5  1  0.83626567  0.98994078  0.87051488  1
  Ba  Ba6  1  0.66790854  0.49539333  0.37851771  1
  Ba  Ba7  1  0.17094111  0.65826569  0.37629585  1
  Ba  Ba8  1  0.33216364  0.15668857  0.87561002  1
  Ba  Ba9  1  0.49988580  0.00326771  0.62284183  1
  Ba  Ba10  1  0.66434606  0.82357218  0.37938726  1
  Ba  Ba11  1  0.33087911  0.49491310  0.37174166  1
  Ba  Ba12  1  0.83316738  0.66135224  0.37931351  1
  Ba  Ba13  1  -0.00614815  0.49121307  0.37780206  1
  Ba  Ba14  1  0.82981165  0.34156598  0.12591041  1
  Ba  Ba15  1  0.33105573  0.51232975  0.63001201  1
  Ba  Ba16  1  0.66705277  0.84305268  0.62522056  1
  Ba  Ba17  1  0.16892381  0.99036111  0.87253538  1
  Ba  Ba18  1  0.83369721  0.33844134  0.62640286  1
  Ba  Ba19  1  -0.00600311  0.82774446  0.87459936  1
  Ba  Ba20  1  0.67102618  0.49448893  0.87304031  1
  Ba  Ba21  1  0.17209962  0.32135406  0.87765449  1
  Ba  Ba22  1  0.16108321  0.34406803  0.62656586  1
  Ba  Ba23  1  -0.00078962  0.82577045  0.37360542  1
  Ba  Ba24  1  0.49932821  0.67253013  0.12478818  1
  Ba  Ba25  1  0.49558556  0.67801445  0.62602331  1
  Ba  Ba26  1  1.00154988  0.17527211  0.62335271  1
  Ba  Ba27  1  0.66603045  0.50883594  0.12145505  1
  Ba  Ba28  1  0.66599990  0.15466199  0.87731591  1
  Ba  Ba29  1  0.66759448  0.17436296  0.12529041  1
  Ba  Ba30  1  0.83065966  0.00444920  0.62119572  1
  Ba  Ba31  1  0.83395307  0.98745954  0.37552252  1
  Ba  Ba32  1  0.33423108  0.83991264  0.62273964  1
  Ba  Ba33  1  0.66969037  0.82718897  0.86928166  1
  Ba  Ba34  1  0.83647538  0.67592597  0.62344558  1
  Ba  Ba35  1  0.50144762  0.32482951  0.87273034  1
  La  La36  1  0.16581779  0.68070967  0.62352213  1
  La  La37  1  0.16901461  0.98269829  0.37011741  1
  La  La38  1  0.33788970  0.18022548  0.12133154  1
  La  La39  1  0.33165380  0.82300180  0.87104464  1
  La  La40  1  0.82928648  0.68024184  0.12859587  1
  La  La41  1  0.83744646  0.31658684  0.37338131  1
  La  La42  1  1.00477085  0.52121714  0.12794154  1
  La  La43  1  0.50315333  0.98672167  0.87307962  1
  La  La44  1  0.16995492  0.65792912  0.87686754  1
  La  La45  1  0.16530912  0.68706890  0.13228533  1
  La  La46  1  0.49875724  0.32828703  0.38103894  1
  La  La47  1  1.00292884  0.17410359  0.12305423  1
  La  La48  1  0.49705624  0.34580769  0.12291593  1
  La  La49  1  0.32777923  0.15205832  0.37161242  1
  La  La50  1  1.00102566  0.84868245  0.61991261  1
  La  La51  1  0.83548134  0.66233833  0.86956412  1
  La  La52  1  0.16476524  0.01763724  0.12655369  1
  La  La53  1  0.15899571  0.34841837  0.12658995  1
  La  La54  1  0.66974367  0.83490734  0.13119442  1
  La  La55  1  0.33055904  0.48708534  0.87916899  1
  La  La56  1  0.50496403  0.98169359  0.37297651  1
  La  La57  1  0.83660385  0.31381203  0.88087748  1
  La  La58  1  0.49710674  0.34978018  0.62586151  1
  La  La59  1  0.67189699  0.17351307  0.63165953  1
  La  La60  1  -0.00369963  0.15064150  0.37584765  1
  La  La61  1  0.66919334  0.16167792  0.38147737  1
  La  La62  1  0.66785035  0.51871548  0.62716880  1
  La  La63  1  0.33520281  0.18096876  0.62941974  1
  La  La64  1  0.50353126  0.65410585  0.87151410  1
  La  La65  1  0.83015112  0.00413047  0.12542541  1
  La  La66  1  0.49757994  0.01371941  0.12730764  1
  La  La67  1  1.00770303  0.51636004  0.62297209  1
  La  La68  1  0.17015793  0.31933577  0.37617947  1
  La  La69  1  -0.00845213  0.48347454  0.87609036  1
  La  La70  1  0.16245987  0.01628948  0.62187180  1
  La  La71  1  -0.00654066  0.15058976  0.86952052  1
  In  In72  1  0.16344373  0.50452200  0.75446475  1
  In  In73  1  0.00245621  0.66876545  0.49836950  1
  In  In74  1  0.83332623  0.16268731  0.74801354  1
  In  In75  1  0.33275824  -0.00094412  0.74816007  1
  In  In76  1  0.50021051  0.16575443  -0.00165685  1
  In  In77  1  0.33283630  -0.00181789  0.00145629  1
  In  In78  1  0.16744794  0.83493776  0.50081031  1
  In  In79  1  -0.00041075  0.33116456  0.25024586  1
  In  In80  1  0.33401662  0.66991663  -0.00081976  1
  In  In81  1  0.16581325  0.16587077  0.75373576  1
  In  In82  1  0.49668921  0.16810222  0.49928232  1
  In  In83  1  0.83340178  0.49844339  0.25050716  1
  In  In84  1  0.33164070  0.33442452  0.49815557  1
  In  In85  1  0.66532327  0.33470348  0.74795796  1
  In  In86  1  0.00290383  0.66855936  -0.00132177  1
  In  In87  1  0.66593296  0.33147025  0.25251620  1
  In  In88  1  0.66652781  0.33486448  0.50210662  1
  In  In89  1  0.66707132  0.67073926  -0.00243138  1
  In  In90  1  0.50065462  0.49940567  -0.00354994  1
  In  In91  1  0.49714017  0.49591635  0.25268944  1
  In  In92  1  0.66660820  0.66449551  0.25175965  1
  In  In93  1  0.16380543  0.50383849  0.00173545  1
  In  In94  1  0.66588836  0.00115535  0.24873378  1
  In  In95  1  0.83902859  0.50153085  0.00300013  1
  In  In96  1  0.83283171  0.83269599  -0.00056091  1
  In  In97  1  -0.00087008  0.33375869  0.75086144  1
  In  In98  1  0.16394661  0.49990894  0.25198580  1
  In  In99  1  0.33137146  0.00275922  0.49828678  1
  In  In100  1  0.49712915  0.16861107  0.25340383  1
  In  In101  1  0.83308503  0.16171656  0.00315054  1
  In  In102  1  0.83511309  0.49877146  0.74993659  1
  In  In103  1  0.00372893  -0.00077140  0.00073874  1
  In  In104  1  0.83477134  0.49671527  0.50476697  1
  In  In105  1  0.33370224  0.33400995  0.75102034  1
  In  In106  1  0.49912032  0.83273880  0.24668006  1
  In  In107  1  0.66458861  0.00303348  0.49946621  1
  Ir  Ir108  1  0.32916562  0.33153322  0.00433591  1
  Ir  Ir109  1  0.16771541  0.16670111  0.24927201  1
  Ir  Ir110  1  0.66324486  -0.00234454  0.75237215  1
  Ir  Ir111  1  0.66742527  0.33290024  -0.00149526  1
  Ir  Ir112  1  0.66209164  -0.00686553  0.00033238  1
  Ir  Ir113  1  0.49712152  0.83323485  0.75148182  1
  Ir  Ir114  1  0.00280151  -0.00524942  0.74376586  1
  Ir  Ir115  1  0.83900462  0.16054849  0.25135065  1
  Ir  Ir116  1  0.83461111  0.83389763  0.49884758  1
  Ir  Ir117  1  0.49778288  0.83171145  0.50240625  1
  Ir  Ir118  1  0.32944126  0.66793256  0.25142607  1
  Ir  Ir119  1  0.16833734  0.83840773  0.24552261  1
  Ir  Ir120  1  0.32954540  0.32884388  0.24693948  1
  Ir  Ir121  1  0.33170134  0.66203235  0.50245990  1
  Ir  Ir122  1  0.00689054  0.67177169  0.75164213  1
  Ir  Ir123  1  0.16490690  0.49952752  0.50153262  1
  Ir  Ir124  1  0.49786597  0.50160060  0.50435282  1
  Ir  Ir125  1  0.83896727  0.83450999  0.25001946  1
  Ir  Ir126  1  0.00060588  0.67103153  0.24756182  1
  Ir  Ir127  1  0.66477884  0.66867584  0.50650129  1
  Ir  Ir128  1  0.50047524  0.83685127  -0.00418753  1
  Ir  Ir129  1  0.66704210  0.67024000  0.74949117  1
  Ir  Ir130  1  0.33447731  0.66967366  0.75405417  1
  Ir  Ir131  1  0.83549227  0.16692851  0.49748963  1
  Ir  Ir132  1  0.83503960  0.83081589  0.74513458  1
  Ir  Ir133  1  0.32932865  0.00326474  0.24893658  1
  Ir  Ir134  1  0.50339037  0.16364363  0.74649625  1
  Ir  Ir135  1  0.16664317  0.16845856  0.00704963  1
  Ir  Ir136  1  0.00176270  0.32978944  0.00140845  1
  Ir  Ir137  1  0.49853625  0.50426368  0.74828239  1
  Ir  Ir138  1  0.00330014  0.33031856  0.49633663  1
  Ir  Ir139  1  0.00169951  0.00264553  0.49914402  1
  Ir  Ir140  1  0.00179663  0.00423483  0.25056793  1
  Ir  Ir141  1  0.16834169  0.83449448  -0.00258719  1
  Ir  Ir142  1  0.16429783  0.16561652  0.48975043  1
  Ir  Ir143  1  0.16508327  0.83017593  0.75310508  1
  O  O144  1  0.29513335  0.32163767  0.12634647  1
  O  O145  1  0.30987481  0.32060728  0.62392198  1
  O  O146  1  0.30464440  0.67110659  0.12906444  1
  O  O147  1  0.30229458  0.66427188  0.62899152  1
  O  O148  1  0.29738086  0.99500964  0.13009785  1
  O  O149  1  0.29801319  0.99491958  0.62278348  1
  O  O150  1  0.63597827  0.32936973  0.11902248  1
  O  O151  1  0.63065419  0.31079157  0.62373456  1
  O  O152  1  0.64985396  0.67938892  0.12402612  1
  O  O153  1  0.64278115  0.66342556  0.62928565  1
  O  O154  1  0.63269499  0.98615049  0.11938147  1
  O  O155  1  0.64953819  1.00486372  0.63023110  1
  O  O156  1  0.97893347  0.31038931  0.12003153  1
  O  O157  1  0.98454547  0.33055874  0.61629208  1
  O  O158  1  0.97045354  0.66798277  0.12838684  1
  O  O159  1  0.99039565  0.65866375  0.63320904  1
  O  O160  1  0.97045164  1.00709657  0.13188869  1
  O  O161  1  0.97928787  0.98757370  0.62119286  1
  O  O162  1  0.20126678  0.15726145  0.12920292  1
  O  O163  1  0.19628306  0.15477417  0.60987211  1
  O  O164  1  0.18642938  0.48486516  0.12662117  1
  O  O165  1  0.17856222  0.50106761  0.62242062  1
  O  O166  1  0.18921910  0.82576416  0.11992425  1
  O  O167  1  0.18564947  0.82121945  0.63401503  1
  O  O168  1  0.51802004  0.15369933  0.12600820  1
  O  O169  1  0.53563745  0.15758569  0.62799879  1
  O  O170  1  0.51303258  0.48323600  0.12354371  1
  O  O171  1  0.52897775  0.49736934  0.62655413  1
  O  O172  1  0.53126962  0.83092224  0.11413478  1
  O  O173  1  0.51816036  0.83196743  0.62806924  1
  O  O174  1  0.86801953  0.15084124  0.13055277  1
  O  O175  1  0.85316769  0.16406553  0.61749436  1
  O  O176  1  0.87267871  0.49197883  0.12622589  1
  O  O177  1  0.87419563  0.49441747  0.62925155  1
  O  O178  1  0.85629316  0.82562396  0.13120593  1
  O  O179  1  0.86336911  0.83527798  0.62105515  1
  O  O180  1  0.13151232  0.17943040  0.36844511  1
  O  O181  1  0.13145769  0.16679684  0.88738445  1
  O  O182  1  0.14649742  0.50039502  0.38097107  1
  O  O183  1  0.12652155  0.51673621  0.87893483  1
  O  O184  1  0.14847937  0.84218917  0.36755860  1
  O  O185  1  0.14293570  0.83432315  0.87479509  1
  O  O186  1  0.45743785  0.19077136  0.37289049  1
  O  O187  1  0.47985897  0.16419033  0.86764008  1
  O  O188  1  0.48074129  0.49378199  0.38432114  1
  O  O189  1  0.46696681  0.50681972  0.86771236  1
  O  O190  1  0.48202986  0.84027216  0.38081595  1
  O  O191  1  0.46724103  0.84707543  0.87375613  1
  O  O192  1  0.80728412  0.17233372  0.37392839  1
  O  O193  1  0.81706356  0.17122282  0.87657876  1
  O  O194  1  0.82032757  0.50620032  0.37877701  1
  O  O195  1  0.82432240  0.52393981  0.87553298  1
  O  O196  1  0.81487931  0.83280484  0.37344007  1
  O  O197  1  0.82149474  0.82877388  0.86637738  1
  O  O198  1  0.03333965  0.00977945  0.37559837  1
  O  O199  1  0.02001096  0.00461904  0.86612135  1
  O  O200  1  0.03418207  0.33256594  0.37842027  1
  O  O201  1  0.02618288  0.34609446  0.88460909  1
  O  O202  1  0.02146942  0.66965192  0.36784728  1
  O  O203  1  0.03393139  0.67765872  0.87044197  1
  O  O204  1  0.36574218  0.01355292  0.36815966  1
  O  O205  1  0.36326958  0.00158000  0.87495178  1
  O  O206  1  0.36057429  0.33437891  0.36749982  1
  O  O207  1  0.35099432  0.33866103  0.88264399  1
  O  O208  1  0.35214445  0.66220939  0.37706043  1
  O  O209  1  0.36571618  0.68483666  0.87089356  1
  O  O210  1  0.68695306  0.02064619  0.37328556  1
  O  O211  1  0.68674133  -0.00475198  0.87648109  1
  O  O212  1  0.70263206  0.33804783  0.37808996  1
  O  O213  1  0.69792135  0.33399218  0.87763396  1
  O  O214  1  0.68136263  0.66573787  0.38610649  1
  O  O215  1  0.69903159  0.67132999  0.86791933  1
  O  O216  1  0.07793035  0.09782128  0.03384631  1
  O  O217  1  0.07495242  0.09206484  0.51975432  1
  O  O218  1  0.06520526  0.42424361  0.03017101  1
  O  O219  1  0.06673911  0.43248437  0.52155075  1
  O  O220  1  0.07765810  0.76733698  0.01740591  1
  O  O221  1  0.07353555  0.76368190  0.52583702  1
  O  O222  1  0.40302618  0.09392887  0.02908397  1
  O  O223  1  0.38996153  0.10693840  0.51896063  1
  O  O224  1  0.40352258  0.41785493  0.01479119  1
  O  O225  1  0.41006755  0.43031515  0.52311402  1
  O  O226  1  0.40765723  0.77160277  0.01036548  1
  O  O227  1  0.40389085  0.75596537  0.51596773  1
  O  O228  1  0.74173635  0.07730181  0.02540530  1
  O  O229  1  0.73673069  0.10472680  0.51818425  1
  O  O230  1  0.74066220  0.42038585  0.01275449  1
  O  O231  1  0.73308123  0.43268371  0.53446805  1
  O  O232  1  0.73374446  0.76987141  0.02361686  1
  O  O233  1  0.74054440  0.76017126  0.51914522  1
  O  O234  1  0.09804657  0.26225805  0.03127572  1
  O  O235  1  0.09936160  0.26088987  0.51273473  1
  O  O236  1  0.10270542  0.60560136  0.03476866  1
  O  O237  1  0.10118999  0.59520937  0.52470611  1
  O  O238  1  0.10605470  0.93239099  0.02315958  1
  O  O239  1  0.09223987  0.93278606  0.52301215  1
  O  O240  1  0.42078082  0.26152673  0.02743766  1
  O  O241  1  0.43063665  0.26710291  0.53031551  1
  O  O242  1  0.42507297  0.59392583  0.00842071  1
  O  O243  1  0.42661389  0.59256236  0.51785554  1
  O  O244  1  0.43822991  0.93207614  0.02379666  1
  O  O245  1  0.42597954  0.92103710  0.50933589  1
  O  O246  1  0.75797813  0.25901221  0.01457781  1
  O  O247  1  0.76306861  0.25321809  0.51495144  1
  O  O248  1  0.77104967  0.60285385  0.02121246  1
  O  O249  1  0.74911696  0.59331510  0.52622633  1
  O  O250  1  0.75239681  0.92611418  0.03006143  1
  O  O251  1  0.75846066  0.92101289  0.50896717  1
  O  O252  1  0.23176021  0.06876758  0.27526934  1
  O  O253  1  0.23639185  0.07043816  0.75953433  1
  O  O254  1  0.23266136  0.39147288  0.26949825  1
  O  O255  1  0.24750066  0.41904458  0.77504443  1
  O  O256  1  0.23500581  0.74120132  0.26343939  1
  O  O257  1  0.23483671  0.73549389  0.77839845  1
  O  O258  1  0.55746412  0.06310402  0.26599097  1
  O  O259  1  0.56734578  0.06482113  0.77344172  1
  O  O260  1  0.55525203  0.38714023  0.26757363  1
  O  O261  1  0.56774168  0.41305987  0.76033834  1
  O  O262  1  0.57772633  0.74495427  0.26408616  1
  O  O263  1  0.56857457  0.73889826  0.77463513  1
  O  O264  1  0.91315247  0.07427264  0.27813423  1
  O  O265  1  0.91629632  0.07064984  0.76269191  1
  O  O266  1  0.90042860  0.39410307  0.27726168  1
  O  O267  1  0.89907301  0.39887312  0.78529809  1
  O  O268  1  0.90734536  0.73987353  0.26720966  1
  O  O269  1  0.90453021  0.73253721  0.76717126  1
  O  O270  1  0.26399476  0.23248322  0.27385050  1
  O  O271  1  0.26481298  0.23533832  0.76050953  1
  O  O272  1  0.25643977  0.58053177  0.26108757  1
  O  O273  1  0.26724294  0.57904801  0.78346203  1
  O  O274  1  0.25881889  0.91149231  0.27353926  1
  O  O275  1  0.26038491  0.89452220  0.77352310  1
  O  O276  1  0.60206480  0.22882955  0.27749692  1
  O  O277  1  0.59172889  0.23179075  0.76688174  1
  O  O278  1  0.59135722  0.56920405  0.26187568  1
  O  O279  1  0.58979613  0.58157475  0.77308353  1
  O  O280  1  0.59081749  0.90890236  0.26929744  1
  O  O281  1  0.58581120  0.90805912  0.77317040  1
  O  O282  1  0.93118834  0.22927423  0.27606865  1
  O  O283  1  0.92746726  0.23764509  0.77812974  1
  O  O284  1  0.93771790  0.57692944  0.25830180  1
  O  O285  1  0.94380457  0.57645369  0.77348885  1
  O  O286  1  0.93057841  0.91094043  0.26859060  1
  O  O287  1  0.93273238  0.89904656  0.75433913  1
  O  O288  1  0.25569341  0.23537536  0.46380863  1
  O  O289  1  0.26100334  0.23734376  0.98822194  1
  O  O290  1  0.26117225  0.56743559  0.48662584  1
  O  O291  1  0.26110498  0.57410812  0.96590820  1
  O  O292  1  0.25189412  0.91492990  0.47454179  1
  O  O293  1  0.26460590  0.89710172  0.97603487  1
  O  O294  1  0.59153406  0.24163283  0.46442606  1
  O  O295  1  0.59419533  0.24515173  0.98373356  1
  O  O296  1  0.59492483  0.57220454  0.49390792  1
  O  O297  1  0.58863215  0.58109130  0.97402375  1
  O  O298  1  0.58272545  0.90951391  0.48569321  1
  O  O299  1  0.58827562  0.90765783  0.97036317  1
  O  O300  1  0.93424487  0.23554532  0.46939377  1
  O  O301  1  0.93803466  0.23644325  0.97424096  1
  O  O302  1  0.93121492  0.57355012  0.49795005  1
  O  O303  1  0.95023681  0.55807368  0.98765254  1
  O  O304  1  0.93025633  0.90612221  0.48500429  1
  O  O305  1  0.92235653  0.91128066  0.99113633  1
  O  O306  1  0.22935450  0.07463981  0.46103579  1
  O  O307  1  0.23354839  0.07579669  0.98943081  1
  O  O308  1  0.22933434  0.40265328  0.47802140  1
  O  O309  1  0.24370889  0.40792939  0.98312890  1
  O  O310  1  0.24137637  0.73456063  0.49344025  1
  O  O311  1  0.23382675  0.73989113  0.97560292  1
  O  O312  1  0.56440079  0.07221740  0.46644497  1
  O  O313  1  0.56983505  0.06218922  0.98053393  1
  O  O314  1  0.56102680  0.40489024  0.48988318  1
  O  O315  1  0.57894226  0.40439142  0.98088678  1
  O  O316  1  0.57299215  0.74335504  0.48843849  1
  O  O317  1  0.56224157  0.74325608  0.96749085  1
  O  O318  1  0.91254806  0.07859165  0.47381332  1
  O  O319  1  0.91915382  0.08097085  0.97571290  1
  O  O320  1  0.90626563  0.39017184  0.47615562  1
  O  O321  1  0.90666045  0.39341777  0.97473912  1
  O  O322  1  0.90881671  0.74809040  0.48875753  1
  O  O323  1  0.89756165  0.72779825  0.98038886  1
  O  O324  1  0.10366918  0.26076273  0.22506814  1
  O  O325  1  0.09164040  0.25749017  0.73747645  1
  O  O326  1  0.09175788  0.60165612  0.22263798  1
  O  O327  1  0.10717490  0.61463267  0.73493655  1
  O  O328  1  0.10165072  0.93898610  0.22882305  1
  O  O329  1  0.09871878  0.92454298  0.71883829  1
  O  O330  1  0.42142291  0.26420997  0.21444115  1
  O  O331  1  0.43634360  0.25710157  0.72231170  1
  O  O332  1  0.41644424  0.59341285  0.23775835  1
  O  O333  1  0.42922457  0.60079283  0.73860305  1
  O  O334  1  0.42647042  0.93862236  0.22787800  1
  O  O335  1  0.42876453  0.92372761  0.73526073  1
  O  O336  1  0.76834875  0.24864998  0.23594293  1
  O  O337  1  0.75357337  0.25226793  0.72805604  1
  O  O338  1  0.76905772  0.60174162  0.22706351  1
  O  O339  1  0.75459151  0.59623179  0.73042062  1
  O  O340  1  0.76548796  0.92307156  0.22263591  1
  O  O341  1  0.76225477  0.92532638  0.73274671  1
  O  O342  1  0.07119759  0.09962061  0.22401198  1
  O  O343  1  0.07463936  0.08289545  0.72661620  1
  O  O344  1  0.06626856  0.42907391  0.22239170  1
  O  O345  1  0.06057137  0.43999782  0.73491684  1
  O  O346  1  0.07846655  0.76072352  0.22535512  1
  O  O347  1  0.06737335  0.76859602  0.72464768  1
  O  O348  1  0.38912140  0.09918363  0.22718237  1
  O  O349  1  0.40784846  0.10053051  0.72180069  1
  O  O350  1  0.39665628  0.41792563  0.22645070  1
  O  O351  1  0.41479304  0.42606815  0.72873385  1
  O  O352  1  0.40252922  0.75580495  0.23944268  1
  O  O353  1  0.40232319  0.76519337  0.73624227  1
  O  O354  1  0.75386235  0.08512961  0.22175146  1
  O  O355  1  0.73343419  0.08876142  0.73372903  1
  O  O356  1  0.73560168  0.42656400  0.23010595  1
  O  O357  1  0.73289296  0.43359933  0.72349690  1
  O  O358  1  0.74852060  0.76583575  0.22982173  1
  O  O359  1  0.74209817  0.75969079  0.72749315  1
