# generated using pymatgen
data_BaLaInIrO6
_symmetry_space_group_name_H-M   'P 1'
_cell_length_a   17.51443589
_cell_length_b   17.54435660
_cell_length_c   16.49972536
_cell_angle_alpha   90.04493607
_cell_angle_beta   89.99048641
_cell_angle_gamma   90.00600596
_symmetry_Int_Tables_number   1
_chemical_formula_structural   BaLaInIrO6
_chemical_formula_sum   'Ba36 La36 In36 Ir36 O216'
_cell_volume   5070.02584655
_cell_formula_units_Z   36
loop_
 _symmetry_equiv_pos_site_id
 _symmetry_equiv_pos_as_xyz
  1  'x, y, z'
loop_
 _atom_site_type_symbol
 _atom_site_label
 _atom_site_symmetry_multiplicity
 _atom_site_fract_x
 _atom_site_fract_y
 _atom_site_fract_z
 _atom_site_occupancy
  Ba  Ba0  1  0.33545061  0.84118700  0.12069523  1
  Ba  Ba1  1  0.66825059  0.17534028  0.12305485  1
  Ba  Ba2  1  0.99761801  0.50990562  0.12479837  1
  Ba  Ba3  1  0.99764844  0.17191267  0.62240014  1
  Ba  Ba4  1  0.82872104  0.01163889  0.62457807  1
  Ba  Ba5  1  0.50114418  0.67492839  0.12498349  1
  Ba  Ba6  1  0.32954945  0.15663692  0.87823968  1
  Ba  Ba7  1  0.16436031  0.32811250  0.87688686  1
  Ba  Ba8  1  0.16635617  0.66069593  0.87539361  1
  Ba  Ba9  1  0.83558996  0.99432430  0.87785811  1
  Ba  Ba10  1  0.32645669  0.15563848  0.37352316  1
  Ba  Ba11  1  1.00526382  0.50240473  0.62365429  1
  Ba  Ba12  1  0.50438507  0.65741937  0.87816163  1
  Ba  Ba13  1  0.16791479  0.32481076  0.37065244  1
  Ba  Ba14  1  0.83287670  0.67293250  0.12540216  1
  Ba  Ba15  1  0.16768191  0.99219050  0.87403978  1
  Ba  Ba16  1  -0.00378363  0.82611025  0.37884512  1
  Ba  Ba17  1  0.82840825  0.34342712  0.11796997  1
  Ba  Ba18  1  0.16579221  0.00886215  0.62394544  1
  Ba  Ba19  1  0.33464023  0.84475699  0.62820790  1
  Ba  Ba20  1  0.49851409  0.00750702  0.11815509  1
  Ba  Ba21  1  -0.00101937  0.15811332  0.37490828  1
  Ba  Ba22  1  0.66724590  0.15615753  0.87363325  1
  Ba  Ba23  1  0.16534928  0.00510271  0.12571728  1
  Ba  Ba24  1  0.83696877  0.65500778  0.87812361  1
  Ba  Ba25  1  0.66750399  0.84171123  0.11843455  1
  Ba  Ba26  1  0.83383584  0.99102546  0.37601125  1
  Ba  Ba27  1  0.16320909  0.98895588  0.37373899  1
  Ba  Ba28  1  0.83319044  0.33982739  0.62566762  1
  Ba  Ba29  1  -0.00714960  0.16122947  0.87409352  1
  Ba  Ba30  1  0.67105028  0.82563676  0.87659834  1
  Ba  Ba31  1  0.49447820  0.01271259  0.62544420  1
  Ba  Ba32  1  0.83567237  0.32267665  0.37140976  1
  Ba  Ba33  1  0.66824462  0.17903063  0.62557363  1
  Ba  Ba34  1  0.82822816  0.00891948  0.12567049  1
  Ba  Ba35  1  0.83146476  0.32710223  0.87319576  1
  La  La36  1  0.50703257  0.31452361  0.87645546  1
  La  La37  1  -0.00202700  0.83237052  0.88830297  1
  La  La38  1  1.00599405  0.84598963  0.62870757  1
  La  La39  1  0.66527389  0.14974071  0.37429116  1
  La  La40  1  0.33795626  0.51281648  0.63072322  1
  La  La41  1  0.49376010  0.68400831  0.63262404  1
  La  La42  1  0.83702216  0.65202456  0.37662643  1
  La  La43  1  0.50512602  0.98434878  0.87363256  1
  La  La44  1  0.17116092  0.32665014  0.61201557  1
  La  La45  1  -0.00324594  0.48278120  0.37518777  1
  La  La46  1  0.32993685  0.48764774  0.37114482  1
  La  La47  1  0.66653655  0.48998397  0.87851029  1
  La  La48  1  0.49533353  0.34589121  0.63114115  1
  La  La49  1  0.50437563  0.98186865  0.37163426  1
  La  La50  1  0.32853637  0.82404430  0.37168918  1
  La  La51  1  0.66557604  0.48714541  0.37202780  1
  La  La52  1  0.33269092  0.17705105  0.63282200  1
  La  La53  1  0.50568518  0.65665762  0.37377978  1
  La  La54  1  0.67399441  0.51171312  0.12341209  1
  La  La55  1  -0.00603854  0.48387040  0.87462525  1
  La  La56  1  0.33171937  0.49218662  0.87834512  1
  La  La57  1  0.66186263  0.81936647  0.36825318  1
  La  La58  1  0.33835143  0.17966690  0.12165327  1
  La  La59  1  0.16369316  0.34493971  0.12605924  1
  La  La60  1  1.00129862  0.84713992  0.13036197  1
  La  La61  1  0.67413328  0.50745741  0.62842849  1
  La  La62  1  0.49895404  0.34604079  0.11996614  1
  La  La63  1  0.83625370  0.67932692  0.62767895  1
  La  La64  1  0.67327627  0.84907557  0.63287696  1
  La  La65  1  0.33208897  0.81796634  0.87790665  1
  La  La66  1  0.16963285  0.65458829  0.37547687  1
  La  La67  1  0.15820564  0.68672630  0.12528111  1
  La  La68  1  0.51121465  0.31702366  0.37399836  1
  La  La69  1  0.99593497  0.18265353  0.12579260  1
  La  La70  1  0.33602928  0.51424368  0.11913264  1
  La  La71  1  0.16104357  0.68261643  0.62376918  1
  In  In72  1  0.16712250  0.16360330  0.24530480  1
  In  In73  1  0.16808455  0.49973641  0.75064617  1
  In  In74  1  0.33467752  0.33597772  0.75497950  1
  In  In75  1  0.16991159  0.83252500  0.75258320  1
  In  In76  1  0.49998856  0.49951218  0.24759791  1
  In  In77  1  0.66579191  0.33485515  0.49995280  1
  In  In78  1  0.16989413  0.49948513  0.49893883  1
  In  In79  1  0.83233969  0.49814706  0.25206681  1
  In  In80  1  0.33490289  0.33641072  -0.00081648  1
  In  In81  1  0.33974068  0.33580176  0.49714962  1
  In  In82  1  0.49829363  0.83111205  -0.00049373  1
  In  In83  1  0.66830615  0.66457063  -0.00062562  1
  In  In84  1  0.49681679  0.16464721  0.24756705  1
  In  In85  1  0.33370760  0.66698945  0.24951397  1
  In  In86  1  0.66584148  -0.00181083  0.24722832  1
  In  In87  1  0.00117771  0.66355663  0.75001196  1
  In  In88  1  0.83024721  0.17019737  -0.00007139  1
  In  In89  1  0.00012521  0.33406938  0.74635884  1
  In  In90  1  0.50091990  0.83206848  0.49975052  1
  In  In91  1  0.83733021  0.82934904  0.75204512  1
  In  In92  1  0.00073640  0.66842792  0.25369263  1
  In  In93  1  0.00020604  0.00496523  0.00453368  1
  In  In94  1  0.66355705  -0.00183062  0.49910839  1
  In  In95  1  0.66611045  0.66473779  0.50308655  1
  In  In96  1  0.16631278  0.16782798  0.00330186  1
  In  In97  1  0.49795271  0.16821760  0.49905158  1
  In  In98  1  -0.00366949  -0.00108959  0.50022186  1
  In  In99  1  0.50169008  0.50176351  0.50175113  1
  In  In100  1  0.66504570  0.66410715  0.74770506  1
  In  In101  1  0.16643712  0.16902596  0.75188234  1
  In  In102  1  0.33717809  0.66617187  0.50167451  1
  In  In103  1  0.83099793  0.82939983  0.50077467  1
  In  In104  1  0.33546984  0.00057215  0.49894946  1
  In  In105  1  0.00065287  -0.00121752  0.75175797  1
  In  In106  1  0.16799084  0.16315013  0.49638531  1
  In  In107  1  0.16710332  0.50383056  0.24829499  1
  Ir  Ir108  1  0.66220049  -0.00005637  0.75325814  1
  Ir  Ir109  1  0.33506459  -0.00104570  -0.00126852  1
  Ir  Ir110  1  0.82938960  0.82916579  0.25049637  1
  Ir  Ir111  1  0.66923578  0.66719896  0.25376159  1
  Ir  Ir112  1  0.83282456  0.17088411  0.25148617  1
  Ir  Ir113  1  0.66452494  0.00004200  -0.00502231  1
  Ir  Ir114  1  0.49920297  0.49829230  -0.00095946  1
  Ir  Ir115  1  0.82748104  0.16876706  0.74713253  1
  Ir  Ir116  1  0.83335736  0.49949564  -0.00213614  1
  Ir  Ir117  1  0.50046862  0.16771354  0.75272829  1
  Ir  Ir118  1  0.49980483  0.16601409  -0.00124300  1
  Ir  Ir119  1  0.49622307  0.83249124  0.25047901  1
  Ir  Ir120  1  0.16575822  0.83406848  0.25203659  1
  Ir  Ir121  1  0.82935413  0.17182787  0.49877583  1
  Ir  Ir122  1  0.33727856  0.66460444  0.75263866  1
  Ir  Ir123  1  0.83524604  0.50312725  0.50366091  1
  Ir  Ir124  1  -0.00682467  -0.00082258  0.24835953  1
  Ir  Ir125  1  -0.00307250  0.33502135  0.49586900  1
  Ir  Ir126  1  0.65947773  0.33606236  0.00002260  1
  Ir  Ir127  1  0.33604843  -0.00394914  0.24528817  1
  Ir  Ir128  1  0.50226626  0.49780202  0.75272437  1
  Ir  Ir129  1  0.00266174  0.66900826  0.00251039  1
  Ir  Ir130  1  0.00131528  0.33929675  0.00732658  1
  Ir  Ir131  1  0.66029969  0.33654234  0.75353854  1
  Ir  Ir132  1  0.32908642  0.66382821  -0.00187363  1
  Ir  Ir133  1  0.00143990  0.66307592  0.49934153  1
  Ir  Ir134  1  0.83669860  0.83128078  0.00446431  1
  Ir  Ir135  1  0.66565640  0.33302956  0.24830216  1
  Ir  Ir136  1  0.49980942  0.83440482  0.75026625  1
  Ir  Ir137  1  0.16594287  0.82626638  0.49520239  1
  Ir  Ir138  1  0.33970360  -0.00029224  0.75575626  1
  Ir  Ir139  1  0.00004147  0.33297159  0.24686978  1
  Ir  Ir140  1  0.33753536  0.33680799  0.24377004  1
  Ir  Ir141  1  0.83241252  0.49872896  0.74858446  1
  Ir  Ir142  1  0.16600608  0.50401509  0.00218185  1
  Ir  Ir143  1  0.16731098  0.83228102  0.00321081  1
  O  O144  1  0.30227326  0.32960645  0.12689277  1
  O  O145  1  0.30946743  0.32305308  0.62703231  1
  O  O146  1  0.29562576  0.65504197  0.11840178  1
  O  O147  1  0.30165215  0.65262172  0.63319054  1
  O  O148  1  0.31249903  0.99245811  0.12110804  1
  O  O149  1  0.32122749  0.99672465  0.63575735  1
  O  O150  1  0.63386044  0.32955639  0.12380317  1
  O  O151  1  0.63366306  0.33701401  0.63156852  1
  O  O152  1  0.65043545  0.65040420  0.13183765  1
  O  O153  1  0.62645240  0.64227606  0.62585258  1
  O  O154  1  0.65051570  1.00158415  0.11715832  1
  O  O155  1  0.64312714  0.99342292  0.63285569  1
  O  O156  1  0.97630701  0.33261287  0.12799768  1
  O  O157  1  0.98296578  0.33951120  0.61519709  1
  O  O158  1  0.98328253  0.66662289  0.12226254  1
  O  O159  1  0.97117724  0.65692040  0.61552594  1
  O  O160  1  0.97689761  0.98473040  0.13051004  1
  O  O161  1  0.97800053  0.98179409  0.62656702  1
  O  O162  1  0.20452000  0.16528431  0.12651827  1
  O  O163  1  0.19717639  0.17438640  0.62395602  1
  O  O164  1  0.19888583  0.49183163  0.12131636  1
  O  O165  1  0.19927780  0.47469696  0.62415136  1
  O  O166  1  0.18927199  0.82509199  0.12890216  1
  O  O167  1  0.18821835  0.81953406  0.61499126  1
  O  O168  1  0.51928839  0.16343268  0.11769433  1
  O  O169  1  0.51949395  0.16880316  0.63379205  1
  O  O170  1  0.53600922  0.48909770  0.11878786  1
  O  O171  1  0.53801177  0.48397296  0.63466283  1
  O  O172  1  0.51578890  0.83437261  0.13069740  1
  O  O173  1  0.53392410  0.83021050  0.62971769  1
  O  O174  1  0.85666326  0.17100150  0.13126156  1
  O  O175  1  0.84449149  0.17272534  0.62278329  1
  O  O176  1  0.84641155  0.50118416  0.12098538  1
  O  O177  1  0.85803418  0.49513436  0.62619709  1
  O  O178  1  0.86292105  0.82764203  0.12880877  1
  O  O179  1  0.86927591  0.81833743  0.62456790  1
  O  O180  1  0.15160475  0.16891524  0.36803510  1
  O  O181  1  0.14477354  0.16957599  0.87878750  1
  O  O182  1  0.13058373  0.51545047  0.37387036  1
  O  O183  1  0.13174297  0.50946842  0.88676406  1
  O  O184  1  0.14390080  0.82964562  0.37307325  1
  O  O185  1  0.13772296  0.83081074  0.88347013  1
  O  O186  1  0.47302644  0.18651961  0.37028194  1
  O  O187  1  0.47809305  0.17605181  0.87656047  1
  O  O188  1  0.46465518  0.51816073  0.37293000  1
  O  O189  1  0.46742545  0.50502162  0.87525652  1
  O  O190  1  0.46643368  0.83554631  0.36789141  1
  O  O191  1  0.46946913  0.83737886  0.87045328  1
  O  O192  1  0.80258072  0.17070617  0.37607008  1
  O  O193  1  0.81864688  0.17016777  0.86727508  1
  O  O194  1  0.80309612  0.51077739  0.38336578  1
  O  O195  1  0.80330639  0.49882487  0.87160512  1
  O  O196  1  0.79893331  0.82820152  0.37040409  1
  O  O197  1  0.82178106  0.83283690  0.88370874  1
  O  O198  1  0.00971849  -0.00005265  0.36708315  1
  O  O199  1  0.01459030  -0.00906765  0.87987089  1
  O  O200  1  0.01857823  0.34035184  0.37000554  1
  O  O201  1  0.01481134  0.34062631  0.88639249  1
  O  O202  1  0.03389251  0.66966158  0.38198302  1
  O  O203  1  0.01770310  0.68447937  0.88200243  1
  O  O204  1  0.36518936  -0.00132290  0.36300892  1
  O  O205  1  0.36779848  0.00410492  0.87813966  1
  O  O206  1  0.37528847  0.34878959  0.36198292  1
  O  O207  1  0.37389002  0.35137464  0.87831898  1
  O  O208  1  0.37070973  0.68330007  0.37528286  1
  O  O209  1  0.35859156  0.67679825  0.87512826  1
  O  O210  1  0.68590610  0.01021827  0.37237116  1
  O  O211  1  0.68502426  -0.00350095  0.87328710  1
  O  O212  1  0.68723805  0.34899316  0.36663198  1
  O  O213  1  0.68208877  0.35072552  0.87740531  1
  O  O214  1  0.70005415  0.67981605  0.37282756  1
  O  O215  1  0.68374543  0.65904345  0.87279462  1
  O  O216  1  0.06827834  0.10156998  0.03401010  1
  O  O217  1  0.07335706  0.08861351  0.51370338  1
  O  O218  1  0.08204468  0.42579008  0.03072165  1
  O  O219  1  0.07237522  0.42070749  0.50508265  1
  O  O220  1  0.07227450  0.76284882  0.03084548  1
  O  O221  1  0.06859933  0.75736692  0.52675093  1
  O  O222  1  0.40161288  0.09739325  0.02279986  1
  O  O223  1  0.39585757  0.10761713  0.52571078  1
  O  O224  1  0.40791743  0.43214616  0.02952777  1
  O  O225  1  0.40552443  0.43462089  0.53617027  1
  O  O226  1  0.40192533  0.75251171  0.01068846  1
  O  O227  1  0.41240556  0.75612913  0.53179046  1
  O  O228  1  0.73744772  0.08778700  0.00910771  1
  O  O229  1  0.73733313  0.10235977  0.50752095  1
  O  O230  1  0.72883874  0.43315011  0.01886358  1
  O  O231  1  0.73614132  0.43948516  0.52011667  1
  O  O232  1  0.75034699  0.75685371  0.01600588  1
  O  O233  1  0.73681154  0.75667673  0.53913264  1
  O  O234  1  0.08959369  0.26842185  0.03470211  1
  O  O235  1  0.08794482  0.26500616  0.51518406  1
  O  O236  1  0.09817718  0.60032743  0.02845528  1
  O  O237  1  0.10061284  0.60286755  0.52354899  1
  O  O238  1  0.09042655  0.91461517  0.02235384  1
  O  O239  1  0.09309626  0.91167400  0.51594609  1
  O  O240  1  0.43307697  0.26021726  0.02455297  1
  O  O241  1  0.44627956  0.27890458  0.51703434  1
  O  O242  1  0.41985583  0.58719415  0.02389902  1
  O  O243  1  0.43306413  0.59591843  0.53916489  1
  O  O244  1  0.42431965  0.92841037  0.00686275  1
  O  O245  1  0.43218567  0.93183286  0.50422691  1
  O  O246  1  0.74983526  0.26391330  0.01103438  1
  O  O247  1  0.76277548  0.26373326  0.51078733  1
  O  O248  1  0.75781935  0.58257952  0.01782259  1
  O  O249  1  0.77013771  0.59550972  0.52611543  1
  O  O250  1  0.76134686  0.92282781  0.01728938  1
  O  O251  1  0.74898833  0.91742814  0.52791106  1
  O  O252  1  0.24420290  0.06104525  0.26086752  1
  O  O253  1  0.25052081  0.06718566  0.76461754  1
  O  O254  1  0.25089211  0.41144309  0.26783693  1
  O  O255  1  0.25078696  0.41876929  0.78689124  1
  O  O256  1  0.23462131  0.74156298  0.27484103  1
  O  O257  1  0.25042081  0.74069547  0.77024271  1
  O  O258  1  0.56813718  0.06981361  0.27396553  1
  O  O259  1  0.56527755  0.06962651  0.77558274  1
  O  O260  1  0.56985751  0.39879737  0.26846600  1
  O  O261  1  0.56438741  0.40230220  0.78044154  1
  O  O262  1  0.56851468  0.73723820  0.27653833  1
  O  O263  1  0.56609509  0.74125750  0.76109198  1
  O  O264  1  0.90149268  0.07388790  0.26775727  1
  O  O265  1  0.89852750  0.07943213  0.75838476  1
  O  O266  1  0.91516638  0.41087228  0.26908173  1
  O  O267  1  0.90306743  0.41098404  0.76868365  1
  O  O268  1  0.89649449  0.73575148  0.27442766  1
  O  O269  1  0.89732653  0.72223525  0.75479545  1
  O  O270  1  0.26859731  0.24923702  0.26219920  1
  O  O271  1  0.26680887  0.23829650  0.76594921  1
  O  O272  1  0.26122928  0.57512074  0.28458522  1
  O  O273  1  0.27403666  0.57157221  0.77497945  1
  O  O274  1  0.26820625  0.89861804  0.27077843  1
  O  O275  1  0.27480464  0.90423498  0.77746750  1
  O  O276  1  0.60076754  0.23980945  0.27351634  1
  O  O277  1  0.59042946  0.24346717  0.77627558  1
  O  O278  1  0.59882965  0.57462547  0.27735020  1
  O  O279  1  0.59645861  0.55839891  0.77573128  1
  O  O280  1  0.58941509  0.89971319  0.27555390  1
  O  O281  1  0.59012162  0.90724529  0.77607742  1
  O  O282  1  0.93053486  0.23784089  0.26105550  1
  O  O283  1  0.91738463  0.24200172  0.75837972  1
  O  O284  1  0.92723239  0.57329987  0.28125963  1
  O  O285  1  0.92926930  0.56051113  0.77334512  1
  O  O286  1  0.92521392  0.89797104  0.26321253  1
  O  O287  1  0.93882106  0.89067555  0.77265825  1
  O  O288  1  0.25951245  0.24603711  0.48725849  1
  O  O289  1  0.26074307  0.24481621  0.98897573  1
  O  O290  1  0.26572901  0.57351588  0.46883023  1
  O  O291  1  0.26104215  0.56989518  0.97570222  1
  O  O292  1  0.26116023  0.89148372  0.47558910  1
  O  O293  1  0.26623560  0.90144456  0.97414467  1
  O  O294  1  0.60070242  0.23599705  0.46911226  1
  O  O295  1  0.58928582  0.24235626  0.97564391  1
  O  O296  1  0.59920838  0.56915651  0.46456147  1
  O  O297  1  0.59472300  0.56065377  0.98106459  1
  O  O298  1  0.59384113  0.90102372  0.46225183  1
  O  O299  1  0.58864276  0.91434627  0.97839895  1
  O  O300  1  0.92457043  0.24382144  0.48218904  1
  O  O301  1  0.92877316  0.25014671  0.99566697  1
  O  O302  1  0.93390068  0.56825070  0.47135574  1
  O  O303  1  0.93453619  0.57025030  0.97703480  1
  O  O304  1  0.92140453  0.90608377  0.48473296  1
  O  O305  1  0.92860703  0.89883488  0.99349910  1
  O  O306  1  0.23922137  0.06490140  0.48244860  1
  O  O307  1  0.24521363  0.06654591  0.98725569  1
  O  O308  1  0.25052609  0.41377434  0.46472237  1
  O  O309  1  0.24141903  0.41940984  0.98017324  1
  O  O310  1  0.23428321  0.73481564  0.47439626  1
  O  O311  1  0.24318257  0.74349776  0.97838846  1
  O  O312  1  0.56520614  0.06865135  0.47239679  1
  O  O313  1  0.56844406  0.06869960  0.97179164  1
  O  O314  1  0.57222308  0.40713912  0.46678828  1
  O  O315  1  0.56187236  0.40148586  0.97734003  1
  O  O316  1  0.57151579  0.73548267  0.46725913  1
  O  O317  1  0.57787576  0.74266471  0.99074834  1
  O  O318  1  0.90004883  0.08375150  0.48863112  1
  O  O319  1  0.90602638  0.07909162  0.99065802  1
  O  O320  1  0.90874537  0.41434239  0.47322184  1
  O  O321  1  0.91222693  0.41554687  0.97937963  1
  O  O322  1  0.90273746  0.72307707  0.47702711  1
  O  O323  1  0.91270442  0.74448062  0.98012049  1
  O  O324  1  0.08893184  0.26126748  0.21765159  1
  O  O325  1  0.10198562  0.27338756  0.72217974  1
  O  O326  1  0.10402814  0.60657564  0.22749865  1
  O  O327  1  0.10425901  0.60027068  0.72353582  1
  O  O328  1  0.08569310  0.92392728  0.22861971  1
  O  O329  1  0.09674250  0.92115460  0.72915705  1
  O  O330  1  0.42696376  0.26635286  0.21426464  1
  O  O331  1  0.43693806  0.26336223  0.73234942  1
  O  O332  1  0.41901875  0.58549616  0.21778418  1
  O  O333  1  0.43324559  0.59319633  0.72456842  1
  O  O334  1  0.43374878  0.93014608  0.23431379  1
  O  O335  1  0.43504335  0.93220553  0.74240190  1
  O  O336  1  0.76293244  0.26560103  0.23171145  1
  O  O337  1  0.75308096  0.26599906  0.73554629  1
  O  O338  1  0.75765562  0.59499584  0.23994128  1
  O  O339  1  0.76393662  0.58830930  0.71893951  1
  O  O340  1  0.75966633  0.91801491  0.23397139  1
  O  O341  1  0.75062535  0.92382041  0.73431709  1
  O  O342  1  0.05915638  0.09251960  0.22539457  1
  O  O343  1  0.07401475  0.09352388  0.73483378  1
  O  O344  1  0.07710175  0.41955955  0.23091644  1
  O  O345  1  0.06632581  0.43495702  0.75381739  1
  O  O346  1  0.07193966  0.76796706  0.22794633  1
  O  O347  1  0.07596216  0.75722281  0.71987722  1
  O  O348  1  0.39588988  0.09372170  0.22164442  1
  O  O349  1  0.40399759  0.10144662  0.73170269  1
  O  O350  1  0.40511113  0.42513407  0.21251533  1
  O  O351  1  0.40960891  0.43429956  0.72269636  1
  O  O352  1  0.40727715  0.76232389  0.22988428  1
  O  O353  1  0.41005318  0.75776201  0.72812013  1
  O  O354  1  0.74092876  0.10292278  0.24104052  1
  O  O355  1  0.73294809  0.09264668  0.73279269  1
  O  O356  1  0.72746322  0.43281080  0.23047947  1
  O  O357  1  0.72847214  0.43425611  0.73360033  1
  O  O358  1  0.73441979  0.76246705  0.23106045  1
  O  O359  1  0.73677013  0.76034942  0.72280721  1
