# generated using pymatgen
data_BaLaInIrO6
_symmetry_space_group_name_H-M   'P 1'
_cell_length_a   17.54294850
_cell_length_b   17.57559969
_cell_length_c   16.51164336
_cell_angle_alpha   89.99340366
_cell_angle_beta   89.97815208
_cell_angle_gamma   90.02943108
_symmetry_Int_Tables_number   1
_chemical_formula_structural   BaLaInIrO6
_chemical_formula_sum   'Ba36 La36 In36 Ir36 O216'
_cell_volume   5090.99826037
_cell_formula_units_Z   36
loop_
 _symmetry_equiv_pos_site_id
 _symmetry_equiv_pos_as_xyz
  1  'x, y, z'
loop_
 _atom_site_type_symbol
 _atom_site_label
 _atom_site_symmetry_multiplicity
 _atom_site_fract_x
 _atom_site_fract_y
 _atom_site_fract_z
 _atom_site_occupancy
  Ba  Ba0  1  0.16793703  0.66247352  0.87586675  1
  Ba  Ba1  1  0.83542123  0.31867637  0.37481727  1
  Ba  Ba2  1  0.66410933  0.15083572  0.37129553  1
  Ba  Ba3  1  0.99748318  0.84472996  0.12172050  1
  Ba  Ba4  1  0.66651201  0.82602125  0.37249904  1
  Ba  Ba5  1  1.00268283  0.50966652  0.62261882  1
  Ba  Ba6  1  0.33418180  0.49276865  0.87804518  1
  Ba  Ba7  1  0.16737976  0.32796847  0.87450188  1
  Ba  Ba8  1  0.33165854  0.49270536  0.37485808  1
  Ba  Ba9  1  0.83129592  0.67517847  0.12527333  1
  Ba  Ba10  1  0.66583738  0.84246162  0.62656776  1
  Ba  Ba11  1  0.32828363  0.82684787  0.87498334  1
  Ba  Ba12  1  0.16829224  0.99310686  0.37668636  1
  Ba  Ba13  1  0.66733286  0.50955469  0.62675001  1
  Ba  Ba14  1  0.50221184  0.65645000  0.87889211  1
  Ba  Ba15  1  1.00339564  0.17097846  0.62573407  1
  Ba  Ba16  1  0.82800080  0.00270645  0.12292068  1
  Ba  Ba17  1  0.66729884  0.49109798  0.87599192  1
  Ba  Ba18  1  0.83471617  0.65893357  0.87381221  1
  Ba  Ba19  1  0.50438368  0.32540730  0.87481915  1
  Ba  Ba20  1  0.33491325  0.51312650  0.12938239  1
  Ba  Ba21  1  0.66796895  0.17483751  0.12827252  1
  Ba  Ba22  1  0.82783413  0.34211834  0.12867058  1
  Ba  Ba23  1  0.16798067  0.99552843  0.87083404  1
  Ba  Ba24  1  0.82987013  0.67876763  0.62445850  1
  Ba  Ba25  1  0.00275952  0.83170205  0.87583014  1
  Ba  Ba26  1  0.16840854  0.00534960  0.62649518  1
  Ba  Ba27  1  0.33036395  0.50613887  0.62839054  1
  Ba  Ba28  1  0.33210763  0.15948235  0.87426510  1
  Ba  Ba29  1  0.50028726  0.34445678  0.13039627  1
  Ba  Ba30  1  0.16752407  0.32399557  0.37600592  1
  Ba  Ba31  1  0.83296642  0.00666865  0.62700584  1
  Ba  Ba32  1  0.00416271  0.16037858  0.87578450  1
  Ba  Ba33  1  0.16883764  0.34160355  0.62687490  1
  Ba  Ba34  1  0.83389755  0.32327806  0.87622512  1
  Ba  Ba35  1  0.16606800  0.67020793  0.62278601  1
  La  La36  1  0.50532858  0.98393449  0.37628122  1
  La  La37  1  0.82883129  0.99568498  0.37864529  1
  La  La38  1  0.49426099  0.34653820  0.62692657  1
  La  La39  1  0.32815476  0.82023559  0.37424183  1
  La  La40  1  0.83498379  0.64981592  0.38019082  1
  La  La41  1  0.83483719  0.98965072  0.87424421  1
  La  La42  1  0.33740771  0.84887385  0.62405689  1
  La  La43  1  -0.00555075  0.48207254  0.38017506  1
  La  La44  1  -0.00897487  0.82573453  0.37846892  1
  La  La45  1  0.67393634  0.17797259  0.62282710  1
  La  La46  1  1.00019469  0.84329009  0.63135565  1
  La  La47  1  1.00741699  0.51711443  0.11910039  1
  La  La48  1  0.66299978  0.15983996  0.87713009  1
  La  La49  1  0.33698604  0.17988917  0.62664492  1
  La  La50  1  0.50536142  0.98431669  0.87397565  1
  La  La51  1  0.67139402  0.84669393  0.12482228  1
  La  La52  1  0.15962199  0.68514762  0.12112320  1
  La  La53  1  0.49371869  0.66678563  0.62810834  1
  La  La54  1  0.66873750  0.51247769  0.12236917  1
  La  La55  1  0.16714165  0.65368489  0.37386593  1
  La  La56  1  0.33421668  0.15312395  0.37258710  1
  La  La57  1  0.50316733  0.65017151  0.36879053  1
  La  La58  1  0.16661702  0.35214347  0.12392424  1
  La  La59  1  -0.00389093  0.14713025  0.37247845  1
  La  La60  1  0.82903964  0.34932991  0.62273218  1
  La  La61  1  0.17043197  0.00900617  0.11745786  1
  La  La62  1  0.34006692  0.18287396  0.12470676  1
  La  La63  1  0.99686112  0.17584456  0.12488555  1
  La  La64  1  0.66197164  0.48336850  0.37144384  1
  La  La65  1  0.49441523  0.01770839  0.12752634  1
  La  La66  1  0.49469351  0.68416680  0.12708860  1
  La  La67  1  0.66187041  0.81783831  0.88052502  1
  La  La68  1  0.49784169  0.01538439  0.61817829  1
  La  La69  1  -0.01084792  0.48399628  0.86693843  1
  La  La70  1  0.50908411  0.31392329  0.38003852  1
  La  La71  1  0.33168327  0.84696900  0.12601020  1
  In  In72  1  0.16367914  0.83801017  0.25240452  1
  In  In73  1  0.49690711  0.82901225  0.49656863  1
  In  In74  1  0.16276653  0.50219084  0.75292299  1
  In  In75  1  0.66591507  0.66696571  0.75034679  1
  In  In76  1  0.00165037  -0.00356897  0.49977105  1
  In  In77  1  0.83403194  0.49996018  0.25084750  1
  In  In78  1  0.66778527  0.32978647  0.74767381  1
  In  In79  1  0.16979074  0.83336455  0.74582385  1
  In  In80  1  0.16985117  0.16664413  0.24965341  1
  In  In81  1  0.83122364  0.83218870  -0.00163168  1
  In  In82  1  0.66398348  0.66702401  0.49484743  1
  In  In83  1  0.17072817  0.16773471  0.00402304  1
  In  In84  1  0.66323884  0.00189665  -0.00108650  1
  In  In85  1  0.83070479  0.83213602  0.25225153  1
  In  In86  1  0.50054086  0.83264152  0.75004955  1
  In  In87  1  0.16623916  0.50309427  -0.00236284  1
  In  In88  1  0.33604451  0.33507783  0.25343744  1
  In  In89  1  -0.00022068  0.33243663  0.00265372  1
  In  In90  1  -0.00225070  0.00173782  0.75250747  1
  In  In91  1  0.00203945  0.33080138  0.24788983  1
  In  In92  1  0.50150826  0.50129323  0.75301007  1
  In  In93  1  0.33401822  0.66901449  0.00305146  1
  In  In94  1  0.33492770  0.33321708  0.75286552  1
  In  In95  1  0.50221742  0.50276224  0.49883726  1
  In  In96  1  -0.00050601  0.67208620  0.50016833  1
  In  In97  1  0.66688172  0.33209046  0.00313345  1
  In  In98  1  0.83534753  0.50255668  0.00128502  1
  In  In99  1  0.33710380  0.33216434  0.49673283  1
  In  In100  1  0.00170548  0.32625801  0.50042333  1
  In  In101  1  0.33313500  0.67090303  0.49721644  1
  In  In102  1  0.83173198  0.16053597  0.24831364  1
  In  In103  1  0.83276930  0.16367952  0.50084988  1
  In  In104  1  0.16914746  0.16670442  0.74802751  1
  In  In105  1  -0.00032266  0.66851379  0.25264549  1
  In  In106  1  0.33708687  -0.00008358  -0.00297079  1
  In  In107  1  0.16490018  0.50012981  0.49765702  1
  Ir  Ir108  1  0.17233886  0.16236873  0.49604618  1
  Ir  Ir109  1  0.49818738  0.16471930  -0.00204563  1
  Ir  Ir110  1  0.82950428  0.83647615  0.74967772  1
  Ir  Ir111  1  0.66483177  0.32936064  0.49875864  1
  Ir  Ir112  1  0.33879211  0.00333541  0.49762439  1
  Ir  Ir113  1  0.66737168  0.00259370  0.75090131  1
  Ir  Ir114  1  0.16761228  0.83577985  0.00298532  1
  Ir  Ir115  1  0.50750429  0.15911482  0.74721273  1
  Ir  Ir116  1  -0.00694186  0.33043062  0.74820450  1
  Ir  Ir117  1  0.33275360  0.67096556  0.24956602  1
  Ir  Ir118  1  0.33882524  -0.00254712  0.25229117  1
  Ir  Ir119  1  0.00077406  0.00017807  0.24623594  1
  Ir  Ir120  1  0.33795848  0.33246229  0.00490924  1
  Ir  Ir121  1  0.34333079  0.00115766  0.74247835  1
  Ir  Ir122  1  0.50448953  0.16320555  0.50171929  1
  Ir  Ir123  1  0.33277635  0.67061437  0.74998185  1
  Ir  Ir124  1  0.50216414  0.50313625  0.24926974  1
  Ir  Ir125  1  0.82789470  0.49845292  0.49902386  1
  Ir  Ir126  1  0.50186309  0.50010863  0.00742547  1
  Ir  Ir127  1  0.49652067  0.83402735  0.24622305  1
  Ir  Ir128  1  0.66189063  0.33393898  0.25418361  1
  Ir  Ir129  1  0.83573959  0.50008933  0.74626337  1
  Ir  Ir130  1  0.66323250  -0.00216726  0.50156701  1
  Ir  Ir131  1  0.82957669  0.16677906  0.75044448  1
  Ir  Ir132  1  0.83298212  0.16289213  -0.00269346  1
  Ir  Ir133  1  -0.00243452  0.00302511  0.00425841  1
  Ir  Ir134  1  0.16582222  0.83564134  0.49694680  1
  Ir  Ir135  1  0.16513100  0.50540075  0.24583645  1
  Ir  Ir136  1  0.83141283  0.83626445  0.49916353  1
  Ir  Ir137  1  0.66178268  0.66586565  0.24750822  1
  Ir  Ir138  1  -0.00498866  0.67115349  0.75112247  1
  Ir  Ir139  1  0.50180812  0.83544167  0.00627961  1
  Ir  Ir140  1  0.65778788  -0.00382089  0.25210414  1
  Ir  Ir141  1  0.00164017  0.66926320  -0.00328743  1
  Ir  Ir142  1  0.65900361  0.66719679  0.00747953  1
  Ir  Ir143  1  0.49789697  0.16325258  0.25034283  1
  O  O144  1  0.31009193  0.32589307  0.12636742  1
  O  O145  1  0.32440132  0.31630966  0.62237056  1
  O  O146  1  0.29959038  0.67170741  0.13271788  1
  O  O147  1  0.32232408  0.66609098  0.62881701  1
  O  O148  1  0.30922277  0.98600864  0.13307914  1
  O  O149  1  0.31771699  0.98845624  0.61976963  1
  O  O150  1  0.64806108  0.32803375  0.13392150  1
  O  O151  1  0.63449409  0.31576328  0.61677730  1
  O  O152  1  0.62841799  0.65351978  0.12879930  1
  O  O153  1  0.63305142  0.66861939  0.62205640  1
  O  O154  1  0.63017991  0.98896480  0.12990634  1
  O  O155  1  0.63358232  0.99535743  0.62679333  1
  O  O156  1  0.97235714  0.31189279  0.12612843  1
  O  O157  1  0.96463551  0.32721861  0.62792390  1
  O  O158  1  0.98093799  0.65782334  0.11856366  1
  O  O159  1  0.97755872  0.67036333  0.63043044  1
  O  O160  1  0.97579671  1.00355556  0.12577106  1
  O  O161  1  0.98191337  0.98428994  0.62566993  1
  O  O162  1  0.20444656  0.14432533  0.12892712  1
  O  O163  1  0.20146541  0.16099308  0.61519459  1
  O  O164  1  0.18706789  0.49785140  0.12868137  1
  O  O165  1  0.17588331  0.50479379  0.62668530  1
  O  O166  1  0.19359240  0.83188209  0.12442343  1
  O  O167  1  0.20205953  0.83101504  0.61456297  1
  O  O168  1  0.52170238  0.15205569  0.12421734  1
  O  O169  1  0.53893728  0.14903273  0.62392866  1
  O  O170  1  0.53299965  0.49956334  0.12955107  1
  O  O171  1  0.51600733  0.52068328  0.62465183  1
  O  O172  1  0.53520483  0.82379797  0.12735051  1
  O  O173  1  0.51503860  0.81072857  0.62269754  1
  O  O174  1  0.86006343  0.15728542  0.11867550  1
  O  O175  1  0.85218459  0.16071178  0.63132067  1
  O  O176  1  0.86929374  0.50653045  0.12661717  1
  O  O177  1  0.85461446  0.48841423  0.62232970  1
  O  O178  1  0.84254931  0.83358764  0.12618358  1
  O  O179  1  0.86158766  0.83337598  0.62520194  1
  O  O180  1  0.13640549  0.16397788  0.37647271  1
  O  O181  1  0.15855614  0.17048810  0.87684769  1
  O  O182  1  0.13297770  0.51190638  0.36292151  1
  O  O183  1  0.12675591  0.49942334  0.87591375  1
  O  O184  1  0.12933811  0.84088858  0.37847945  1
  O  O185  1  0.15637356  0.83826899  0.88146086  1
  O  O186  1  0.47144088  0.17379706  0.37684640  1
  O  O187  1  0.47971221  0.16960499  0.87060548  1
  O  O188  1  0.47925411  0.51181017  0.36772296  1
  O  O189  1  0.48419465  0.49946878  0.88691241  1
  O  O190  1  0.46330176  0.84782751  0.36518174  1
  O  O191  1  0.47739642  0.84698459  0.88423287  1
  O  O192  1  0.81325779  0.15173517  0.37421511  1
  O  O193  1  0.79909593  0.16841433  0.87346137  1
  O  O194  1  0.79796460  0.50767117  0.37946224  1
  O  O195  1  0.81951043  0.50179677  0.86746728  1
  O  O196  1  0.81564240  0.85444764  0.37879343  1
  O  O197  1  0.79938881  0.84361694  0.87077178  1
  O  O198  1  0.01865490  0.00443620  0.36694046  1
  O  O199  1  0.01697145  0.00120645  0.88508814  1
  O  O200  1  0.01886388  0.34467832  0.37300860  1
  O  O201  1  0.01475996  0.33635243  0.86984148  1
  O  O202  1  0.03333428  0.69269456  0.37534421  1
  O  O203  1  0.01943616  0.67804620  0.87413007  1
  O  O204  1  0.37173680  0.01279791  0.37459527  1
  O  O205  1  0.36974511  0.00204690  0.86570219  1
  O  O206  1  0.37473283  0.33306635  0.37454730  1
  O  O207  1  0.35486342  0.33027621  0.88454939  1
  O  O208  1  0.36789593  0.68080230  0.36584527  1
  O  O209  1  0.35121454  0.67553933  0.87177333  1
  O  O210  1  0.69116133  -0.00182504  0.37647944  1
  O  O211  1  0.69637774  0.01756865  0.86913686  1
  O  O212  1  0.68653128  0.34451198  0.37602058  1
  O  O213  1  0.67970694  0.32523610  0.87514544  1
  O  O214  1  0.69890358  0.67186188  0.36372722  1
  O  O215  1  0.68283427  0.67851179  0.88791390  1
  O  O216  1  0.06858738  0.09257788  0.02987976  1
  O  O217  1  0.08197446  0.09184616  0.51207626  1
  O  O218  1  0.07508994  0.42810012  0.03335694  1
  O  O219  1  0.06602406  0.42804495  0.50483993  1
  O  O220  1  0.07625369  0.76146590  0.02180360  1
  O  O221  1  0.06943819  0.77558486  0.52553100  1
  O  O222  1  0.40646954  0.09746326  0.02796900  1
  O  O223  1  0.40645400  0.09884982  0.52610365  1
  O  O224  1  0.40658692  0.43023767  0.02121078  1
  O  O225  1  0.41743801  0.42177473  0.52521606  1
  O  O226  1  0.40820803  0.76805379  0.03356444  1
  O  O227  1  0.38612564  0.77938275  0.50913512  1
  O  O228  1  0.74017430  0.09640140  0.01248341  1
  O  O229  1  0.72899108  0.09168124  0.52285467  1
  O  O230  1  0.73780676  0.43080181  0.02511270  1
  O  O231  1  0.73733007  0.42138708  0.52337615  1
  O  O232  1  0.72231122  0.76367066  0.02109739  1
  O  O233  1  0.74135713  0.76624453  0.51166975  1
  O  O234  1  0.10008349  0.26332496  0.02901299  1
  O  O235  1  0.10364241  0.25136268  0.51751155  1
  O  O236  1  0.09294887  0.60237912  0.02502983  1
  O  O237  1  0.09205044  0.59894011  0.50127713  1
  O  O238  1  0.09710979  0.93512632  0.02371519  1
  O  O239  1  0.09746683  0.92209144  0.51985192  1
  O  O240  1  0.42949662  0.25740184  0.02607529  1
  O  O241  1  0.44311993  0.25676144  0.52467667  1
  O  O242  1  0.43651413  0.59727929  0.02729809  1
  O  O243  1  0.43946654  0.61180626  0.50679270  1
  O  O244  1  0.43723056  0.93047337  0.02718086  1
  O  O245  1  0.43192210  0.93736113  0.51915928  1
  O  O246  1  0.76459876  0.25329314  0.01705787  1
  O  O247  1  0.75920791  0.26240353  0.52428622  1
  O  O248  1  0.74948306  0.59540921  0.02218595  1
  O  O249  1  0.76340537  0.59250221  0.51272730  1
  O  O250  1  0.74970470  0.92198295  0.01375612  1
  O  O251  1  0.76386902  0.93381558  0.51352034  1
  O  O252  1  0.25299910  0.06901589  0.27508809  1
  O  O253  1  0.25496487  0.06927497  0.75874602  1
  O  O254  1  0.23480201  0.41214882  0.26157886  1
  O  O255  1  0.24276716  0.41094676  0.76535917  1
  O  O256  1  0.24237606  0.73987012  0.27862994  1
  O  O257  1  0.24148574  0.73899677  0.76162305  1
  O  O258  1  0.56229241  0.06555574  0.27186339  1
  O  O259  1  0.57019754  0.06311818  0.77421172  1
  O  O260  1  0.56833702  0.40701826  0.28090693  1
  O  O261  1  0.57316398  0.40094319  0.74685013  1
  O  O262  1  0.56150435  0.73359223  0.26743135  1
  O  O263  1  0.58148854  0.75117219  0.78104658  1
  O  O264  1  0.90377614  0.05797803  0.27115023  1
  O  O265  1  0.89472254  0.07340418  0.77717054  1
  O  O266  1  0.90830238  0.40855153  0.27329649  1
  O  O267  1  0.90562070  0.40735049  0.76729297  1
  O  O268  1  0.89906850  0.73668186  0.28085954  1
  O  O269  1  0.90263424  0.74611937  0.76851142  1
  O  O270  1  0.27087872  0.23238523  0.27490190  1
  O  O271  1  0.26773169  0.23455559  0.75279788  1
  O  O272  1  0.25634059  0.58158105  0.27651617  1
  O  O273  1  0.26274628  0.58167911  0.76640851  1
  O  O274  1  0.27340699  0.90235658  0.27202022  1
  O  O275  1  0.27254224  0.90968137  0.75364175  1
  O  O276  1  0.58498946  0.24320397  0.27807029  1
  O  O277  1  0.60474890  0.21895622  0.76280693  1
  O  O278  1  0.59817311  0.56963237  0.27401165  1
  O  O279  1  0.59370205  0.57532935  0.77256837  1
  O  O280  1  0.58238455  0.90857308  0.27627608  1
  O  O281  1  0.60099892  0.91161299  0.78157223  1
  O  O282  1  0.93779252  0.22166572  0.26784440  1
  O  O283  1  0.92256987  0.23525467  0.76899583  1
  O  O284  1  0.92662510  0.57565659  0.28873394  1
  O  O285  1  0.92938812  0.57122207  0.77094409  1
  O  O286  1  0.93825800  0.90283094  0.26826086  1
  O  O287  1  0.91399432  0.91103766  0.77168905  1
  O  O288  1  0.26798273  0.22747338  0.47478583  1
  O  O289  1  0.27481486  0.23843112  0.99940780  1
  O  O290  1  0.25424702  0.58425216  0.47366442  1
  O  O291  1  0.25980492  0.57652951  0.98551834  1
  O  O292  1  0.26837966  0.90325377  0.47328035  1
  O  O293  1  0.26292403  0.90084101  0.99637730  1
  O  O294  1  0.59692725  0.23489118  0.47636708  1
  O  O295  1  0.59389172  0.22884596  0.98075688  1
  O  O296  1  0.60121030  0.56659136  0.46470945  1
  O  O297  1  0.59763564  0.56617839  0.99341950  1
  O  O298  1  0.59075658  0.91014227  0.48100452  1
  O  O299  1  0.59338411  0.90121177  0.97546488  1
  O  O300  1  0.93426418  0.22845592  0.47437825  1
  O  O301  1  0.92467855  0.22917627  0.98676585  1
  O  O302  1  0.91910216  0.56991878  0.47268617  1
  O  O303  1  0.93919166  0.57438851  0.97657945  1
  O  O304  1  0.92845442  0.89701727  0.48230057  1
  O  O305  1  0.92121568  0.91704984  0.98207888  1
  O  O306  1  0.25003867  0.07556036  0.47212369  1
  O  O307  1  0.23816913  0.06471796  0.98978283  1
  O  O308  1  0.24366234  0.40821103  0.48309533  1
  O  O309  1  0.24415372  0.39959776  0.99383590  1
  O  O310  1  0.22987303  0.74479084  0.46594749  1
  O  O311  1  0.23488079  0.74424729  0.99441745  1
  O  O312  1  0.56448266  0.06209712  0.48053382  1
  O  O313  1  0.56294534  0.06877553  0.97484266  1
  O  O314  1  0.57360639  0.39786879  0.47808741  1
  O  O315  1  0.56999868  0.40941879  0.99248232  1
  O  O316  1  0.56507150  0.73453241  0.46318438  1
  O  O317  1  0.56599252  0.73939409  0.99015669  1
  O  O318  1  0.90471115  0.06513342  0.47625155  1
  O  O319  1  0.89993966  0.06680598  0.97615010  1
  O  O320  1  0.89869481  0.40918217  0.48430028  1
  O  O321  1  0.91406359  0.41383588  0.97770280  1
  O  O322  1  0.89804999  0.74151221  0.47256948  1
  O  O323  1  0.91089329  0.73999430  0.98442780  1
  O  O324  1  0.10685072  0.26765137  0.22049051  1
  O  O325  1  0.08347757  0.26131149  0.73272274  1
  O  O326  1  0.09879012  0.59733085  0.22214496  1
  O  O327  1  0.08227381  0.60129010  0.73894023  1
  O  O328  1  0.10004617  0.94154383  0.22376989  1
  O  O329  1  0.08583811  0.91635158  0.73491847  1
  O  O330  1  0.42691112  0.24942605  0.22839888  1
  O  O331  1  0.44386628  0.25169432  0.72068729  1
  O  O332  1  0.43522377  0.60270453  0.22730513  1
  O  O333  1  0.42598082  0.60386575  0.73684830  1
  O  O334  1  0.43022620  0.92772702  0.21802298  1
  O  O335  1  0.43741117  0.93522641  0.72349656  1
  O  O336  1  0.75228339  0.25948724  0.24096473  1
  O  O337  1  0.76451704  0.25880588  0.71865598  1
  O  O338  1  0.74962694  0.59316692  0.22645197  1
  O  O339  1  0.76382845  0.58830911  0.73324013  1
  O  O340  1  0.74406766  0.92136950  0.23340667  1
  O  O341  1  0.76007491  0.93247600  0.73530169  1
  O  O342  1  0.06202734  0.09873640  0.23054287  1
  O  O343  1  0.07921426  0.08860706  0.73670918  1
  O  O344  1  0.07344512  0.43788727  0.22084411  1
  O  O345  1  0.06098095  0.42090200  0.73661376  1
  O  O346  1  0.07866624  0.75769762  0.22078033  1
  O  O347  1  0.06409520  0.76167192  0.72977680  1
  O  O348  1  0.40530189  0.09222345  0.22239431  1
  O  O349  1  0.41212765  0.09517476  0.71702956  1
  O  O350  1  0.41237070  0.43279736  0.23353504  1
  O  O351  1  0.41524320  0.41947567  0.73035797  1
  O  O352  1  0.40288197  0.76479134  0.21876563  1
  O  O353  1  0.39909423  0.76410139  0.72854821  1
  O  O354  1  0.73380425  0.08032167  0.23206681  1
  O  O355  1  0.73118050  0.10176021  0.72780116  1
  O  O356  1  0.72722065  0.43008010  0.23367072  1
  O  O357  1  0.75083489  0.42218362  0.72692976  1
  O  O358  1  0.72432544  0.75980577  0.22257175  1
  O  O359  1  0.74324827  0.76299186  0.73711960  1
