# generated using pymatgen
data_BaLaInIrO6
_symmetry_space_group_name_H-M   'P 1'
_cell_length_a   17.51685229
_cell_length_b   17.53287832
_cell_length_c   16.47531475
_cell_angle_alpha   89.96797052
_cell_angle_beta   89.98718828
_cell_angle_gamma   90.01068144
_symmetry_Int_Tables_number   1
_chemical_formula_structural   BaLaInIrO6
_chemical_formula_sum   'Ba36 La36 In36 Ir36 O216'
_cell_volume   5059.91149832
_cell_formula_units_Z   36
loop_
 _symmetry_equiv_pos_site_id
 _symmetry_equiv_pos_as_xyz
  1  'x, y, z'
loop_
 _atom_site_type_symbol
 _atom_site_label
 _atom_site_symmetry_multiplicity
 _atom_site_fract_x
 _atom_site_fract_y
 _atom_site_fract_z
 _atom_site_occupancy
  Ba  Ba0  1  0.66269575  0.82366067  0.87007106  1
  Ba  Ba1  1  0.16603153  0.32220549  0.37279125  1
  Ba  Ba2  1  0.49914418  0.99538279  0.87509704  1
  Ba  Ba3  1  0.33397296  0.48940780  0.87837239  1
  Ba  Ba4  1  -0.00222166  0.82968884  0.37151247  1
  Ba  Ba5  1  0.83735224  0.66020641  0.37436795  1
  Ba  Ba6  1  0.66423866  0.49383302  0.87686950  1
  Ba  Ba7  1  0.33758348  0.17290982  0.12807114  1
  Ba  Ba8  1  0.50215965  0.32053774  0.87463545  1
  Ba  Ba9  1  1.00123279  0.84401839  0.12158340  1
  Ba  Ba10  1  0.33704453  0.82532814  0.87624826  1
  Ba  Ba11  1  0.83148505  0.32781194  0.37653654  1
  Ba  Ba12  1  0.83237875  0.33932576  0.12988118  1
  Ba  Ba13  1  0.50002924  0.00724555  0.12131548  1
  Ba  Ba14  1  0.16436783  0.34404321  0.62334311  1
  Ba  Ba15  1  0.33400074  0.84268695  0.62498483  1
  Ba  Ba16  1  0.16649571  0.65843630  0.87801481  1
  Ba  Ba17  1  0.33085337  0.84063729  0.11960187  1
  Ba  Ba18  1  0.50153313  0.67186124  0.12282172  1
  Ba  Ba19  1  0.83028776  0.34530433  0.62789477  1
  Ba  Ba20  1  0.66815341  0.51427379  0.62770132  1
  Ba  Ba21  1  0.50362241  0.00544075  0.62720888  1
  Ba  Ba22  1  0.16347878  0.68101971  0.12069712  1
  Ba  Ba23  1  0.16182476  0.33629873  0.12628302  1
  Ba  Ba24  1  0.66942537  0.49497351  0.37642394  1
  Ba  Ba25  1  0.49723790  0.67403581  0.62372158  1
  Ba  Ba26  1  0.33325312  0.82480653  0.36964271  1
  Ba  Ba27  1  0.83017889  0.67494190  0.12326816  1
  Ba  Ba28  1  0.99842268  0.17105144  0.12705316  1
  Ba  Ba29  1  0.66620200  0.16065496  0.37642017  1
  Ba  Ba30  1  1.00378748  0.50546139  0.13003478  1
  Ba  Ba31  1  0.82826694  0.67921168  0.62579545  1
  Ba  Ba32  1  0.66472390  0.82744214  0.37325322  1
  Ba  Ba33  1  -0.00190796  0.16098192  0.37044292  1
  Ba  Ba34  1  0.66742249  0.17494439  0.12796393  1
  Ba  Ba35  1  0.83462033  0.65162109  0.87255613  1
  La  La36  1  0.16935192  0.98894544  0.36941135  1
  La  La37  1  0.33225565  0.48654609  0.37581320  1
  La  La38  1  0.82455402  0.01104935  0.61787463  1
  La  La39  1  0.50274903  0.98638117  0.37026408  1
  La  La40  1  0.17302358  0.98645716  0.87795311  1
  La  La41  1  0.83987899  0.98241490  0.87829435  1
  La  La42  1  0.49308509  0.34629314  0.12505465  1
  La  La43  1  0.16514921  0.68238707  0.62612942  1
  La  La44  1  0.16902104  0.31778107  0.88005831  1
  La  La45  1  -0.00350948  0.15054412  0.87891692  1
  La  La46  1  0.16522750  0.00889926  0.12452854  1
  La  La47  1  0.66223549  0.15823083  0.88057877  1
  La  La48  1  0.50808116  0.65412455  0.86921134  1
  La  La49  1  0.83128891  0.32140775  0.87605081  1
  La  La50  1  0.83531668  0.01296649  0.12927783  1
  La  La51  1  0.50738652  0.65567261  0.37447610  1
  La  La52  1  -0.00610672  0.48290614  0.37866351  1
  La  La53  1  0.83937416  0.98861541  0.37120504  1
  La  La54  1  0.33805760  0.17889100  0.62821478  1
  La  La55  1  -0.00274321  0.48364721  0.87791929  1
  La  La56  1  0.33111119  0.14982019  0.37418418  1
  La  La57  1  0.67233161  0.51314995  0.12589383  1
  La  La58  1  1.00102283  0.52011663  0.62548143  1
  La  La59  1  0.67044277  0.18158623  0.63103518  1
  La  La60  1  -0.00419800  0.81512185  0.87693173  1
  La  La61  1  0.33337110  0.51420816  0.12576929  1
  La  La62  1  0.16417341  0.01375105  0.62369720  1
  La  La63  1  0.49619297  0.34477100  0.62575519  1
  La  La64  1  1.00184841  0.84717117  0.62233407  1
  La  La65  1  1.00350312  0.18238575  0.62337802  1
  La  La66  1  0.66517792  0.84438470  0.62454693  1
  La  La67  1  0.17048970  0.65303653  0.36848229  1
  La  La68  1  0.33650859  0.15900037  0.87664012  1
  La  La69  1  0.33948495  0.51406531  0.63255716  1
  La  La70  1  0.67633642  0.85695714  0.12075725  1
  La  La71  1  0.50870870  0.31727759  0.37719811  1
  In  In72  1  -0.00132993  0.66347233  0.00118993  1
  In  In73  1  0.33006022  0.66584386  0.49550154  1
  In  In74  1  0.49749696  0.16305375  0.50135490  1
  In  In75  1  0.66619022  0.00269977  0.49563226  1
  In  In76  1  0.83420601  0.83418877  0.49927407  1
  In  In77  1  0.33210732  0.33102528  0.75244069  1
  In  In78  1  0.66517802  0.33349451  0.50285463  1
  In  In79  1  0.49692054  0.49861304  0.50067495  1
  In  In80  1  0.83580457  0.16548694  0.75165070  1
  In  In81  1  0.16782190  0.50079325  0.50072201  1
  In  In82  1  0.83352503  0.50264257  0.50418760  1
  In  In83  1  0.83211874  0.49591169  0.00034299  1
  In  In84  1  0.17009209  0.16683075  0.49924814  1
  In  In85  1  0.33267339  0.32964975  0.00399746  1
  In  In86  1  -0.00073805  0.32960783  0.25118034  1
  In  In87  1  -0.00189397  0.00009245  0.74951247  1
  In  In88  1  0.49982686  0.83436709  0.74841577  1
  In  In89  1  0.00390690  0.66970974  0.49725879  1
  In  In90  1  -0.00263885  0.32769516  -0.00177649  1
  In  In91  1  -0.00047739  0.00473571  0.50008539  1
  In  In92  1  0.83441038  0.50157713  0.25168778  1
  In  In93  1  0.50296672  0.83312706  -0.00031495  1
  In  In94  1  0.50217061  0.83156761  0.24432189  1
  In  In95  1  0.16850168  0.49829682  0.25183351  1
  In  In96  1  0.49865406  0.49827167  0.24985271  1
  In  In97  1  0.16568100  0.49788267  0.74978834  1
  In  In98  1  0.16547067  0.16535350  0.75038058  1
  In  In99  1  0.66748075  0.67127184  -0.00046608  1
  In  In100  1  0.83276404  0.83272215  0.24596199  1
  In  In101  1  0.33043431  0.66635789  0.75328866  1
  In  In102  1  0.16355531  0.83649544  0.74918408  1
  In  In103  1  0.33437518  -0.00151225  0.24572707  1
  In  In104  1  0.67175436  0.00171254  0.75238745  1
  In  In105  1  0.66366097  0.33300946  0.00372465  1
  In  In106  1  0.16487339  0.49760033  -0.00021373  1
  In  In107  1  0.49800041  0.83334881  0.49782420  1
  Ir  Ir108  1  0.16439637  0.83461212  0.25035202  1
  Ir  Ir109  1  0.16428874  0.16061683  -0.00084383  1
  Ir  Ir110  1  0.33629794  0.33079994  0.49899690  1
  Ir  Ir111  1  0.32867089  0.00412733  0.74950928  1
  Ir  Ir112  1  0.33498891  0.66550205  0.24849157  1
  Ir  Ir113  1  0.50075139  0.16456790  0.00122762  1
  Ir  Ir114  1  0.50279001  0.49709576  0.75122696  1
  Ir  Ir115  1  0.66919624  0.00603206  0.24822260  1
  Ir  Ir116  1  -0.00225302  0.33193050  0.50687848  1
  Ir  Ir117  1  0.32906020  0.00055952  0.50181012  1
  Ir  Ir118  1  0.66633673  0.33351385  0.75269545  1
  Ir  Ir119  1  0.50352640  0.16727882  0.75156421  1
  Ir  Ir120  1  0.83512532  0.16648777  0.50153929  1
  Ir  Ir121  1  0.67432940  0.00643530  0.00061458  1
  Ir  Ir122  1  0.33763550  0.33079897  0.25464177  1
  Ir  Ir123  1  0.83477778  0.84014989  -0.00301577  1
  Ir  Ir124  1  0.83593780  0.49598135  0.75192350  1
  Ir  Ir125  1  -0.00345771  0.66847267  0.74753188  1
  Ir  Ir126  1  0.66417228  0.66710062  0.25207139  1
  Ir  Ir127  1  0.32957836  0.00382618  -0.00468350  1
  Ir  Ir128  1  0.00304012  0.00277924  0.24687424  1
  Ir  Ir129  1  -0.00022006  0.33409236  0.74941972  1
  Ir  Ir130  1  0.33537161  0.66550091  0.00260863  1
  Ir  Ir131  1  0.83813743  0.83408530  0.75230664  1
  Ir  Ir132  1  0.00246751  0.00100127  -0.00129503  1
  Ir  Ir133  1  0.16643639  0.83721903  0.49746861  1
  Ir  Ir134  1  0.49791271  0.16922709  0.24948506  1
  Ir  Ir135  1  0.83166167  0.16350976  -0.00162113  1
  Ir  Ir136  1  0.65874611  0.33007021  0.24995101  1
  Ir  Ir137  1  0.66420386  0.67040386  0.49884707  1
  Ir  Ir138  1  0.00650879  0.67015141  0.25143950  1
  Ir  Ir139  1  0.49806264  0.49966646  0.00178760  1
  Ir  Ir140  1  0.66867128  0.66756179  0.74574833  1
  Ir  Ir141  1  0.82970892  0.16427381  0.25311323  1
  Ir  Ir142  1  0.16498923  0.83927861  0.00043355  1
  Ir  Ir143  1  0.17005555  0.16143733  0.24970089  1
  O  O144  1  0.31151118  0.32556657  0.13499819  1
  O  O145  1  0.31145285  0.31632786  0.61925732  1
  O  O146  1  0.30830213  0.65478043  0.12693861  1
  O  O147  1  0.29783662  0.65253753  0.62229818  1
  O  O148  1  0.30373921  1.00205039  0.11637914  1
  O  O149  1  0.29810354  0.99915365  0.62568725  1
  O  O150  1  0.62865805  0.32700055  0.13117046  1
  O  O151  1  0.63432466  0.32144419  0.63349559  1
  O  O152  1  0.64991328  0.65549426  0.13184460  1
  O  O153  1  0.64646802  0.67798069  0.62190804  1
  O  O154  1  0.64748684  0.99643800  0.12392089  1
  O  O155  1  0.65634180  0.98785483  0.62447144  1
  O  O156  1  0.98284954  0.32435835  0.12435201  1
  O  O157  1  0.97602452  0.31738342  0.62959912  1
  O  O158  1  0.98239109  0.66731088  0.13235698  1
  O  O159  1  0.97769799  0.66090249  0.62943761  1
  O  O160  1  0.97130807  1.00007733  0.12247784  1
  O  O161  1  0.96039676  0.98754680  0.62663431  1
  O  O162  1  0.19084701  0.15109791  0.12256360  1
  O  O163  1  0.20219208  0.15578751  0.62400628  1
  O  O164  1  0.19966078  0.49139692  0.12707817  1
  O  O165  1  0.20319603  0.49408529  0.62374274  1
  O  O166  1  0.18513136  0.83901301  0.12527327  1
  O  O167  1  0.18511232  0.82367410  0.61671829  1
  O  O168  1  0.52087225  0.15907387  0.12611346  1
  O  O169  1  0.53355664  0.16102342  0.63154227  1
  O  O170  1  0.53037875  0.48941658  0.12217031  1
  O  O171  1  0.52023876  0.48302105  0.63131956  1
  O  O172  1  0.54053224  0.83193994  0.12225923  1
  O  O173  1  0.53034371  0.83445184  0.62284326  1
  O  O174  1  0.85219188  0.15038566  0.12609647  1
  O  O175  1  0.86775184  0.15258685  0.62124291  1
  O  O176  1  0.85062984  0.50194913  0.12730223  1
  O  O177  1  0.86467263  0.50125506  0.63250436  1
  O  O178  1  0.84986264  0.84390874  0.11749451  1
  O  O179  1  0.86634950  0.83478467  0.63368667  1
  O  O180  1  0.15063604  0.15856151  0.37052121  1
  O  O181  1  0.13404567  0.16886944  0.87901321  1
  O  O182  1  0.13010641  0.51000201  0.37739840  1
  O  O183  1  0.13038313  0.50516120  0.87171919  1
  O  O184  1  0.14473669  0.85288365  0.37442151  1
  O  O185  1  0.13437007  0.84894386  0.87899159  1
  O  O186  1  0.46730651  0.18139666  0.37016548  1
  O  O187  1  0.47217961  0.16818345  0.87671784  1
  O  O188  1  0.46877186  0.51372640  0.37411975  1
  O  O189  1  0.48043718  0.51458806  0.87768217  1
  O  O190  1  0.48423581  0.84810104  0.36998030  1
  O  O191  1  0.48802545  0.84041601  0.87502045  1
  O  O192  1  0.81168088  0.17443831  0.37849893  1
  O  O193  1  0.80100068  0.17695573  0.87881174  1
  O  O194  1  0.82045531  0.50224345  0.37714773  1
  O  O195  1  0.81419111  0.48989405  0.86879507  1
  O  O196  1  0.81508676  0.84950599  0.36986331  1
  O  O197  1  0.81160627  0.84343111  0.87488983  1
  O  O198  1  0.03278981  0.00571809  0.36778054  1
  O  O199  1  0.03560399  0.01038367  0.87899066  1
  O  O200  1  0.01519141  0.33861049  0.38621557  1
  O  O201  1  0.03102968  0.34215550  0.86673062  1
  O  O202  1  0.03627393  0.67647775  0.37061271  1
  O  O203  1  0.01529874  0.67792517  0.86718967  1
  O  O204  1  0.36031916  0.00939648  0.38126034  1
  O  O205  1  0.35139431  0.01887359  0.87085774  1
  O  O206  1  0.37268155  0.34327669  0.37747083  1
  O  O207  1  0.35442198  0.32132549  0.87836488  1
  O  O208  1  0.36926157  0.66907965  0.36564824  1
  O  O209  1  0.36729470  0.66635312  0.88361562  1
  O  O210  1  0.70204836  0.00557369  0.36693698  1
  O  O211  1  0.70480369  0.01743210  0.88038284  1
  O  O212  1  0.67750204  0.33264042  0.36949247  1
  O  O213  1  0.69440673  0.33384276  0.87335785  1
  O  O214  1  0.68699367  0.66815258  0.37550640  1
  O  O215  1  0.68411699  0.66392807  0.86544877  1
  O  O216  1  0.07345312  0.08976060  0.02332180  1
  O  O217  1  0.07311484  0.09463888  0.53420003  1
  O  O218  1  0.06615456  0.42574661  0.00809817  1
  O  O219  1  0.06224316  0.42876691  0.52393481  1
  O  O220  1  0.07365775  0.76856148  0.00513344  1
  O  O221  1  0.07200361  0.77441657  0.52310494  1
  O  O222  1  0.40064245  0.09786745  0.00925785  1
  O  O223  1  0.38969570  0.09976186  0.52076858  1
  O  O224  1  0.40740898  0.42833381  0.02920265  1
  O  O225  1  0.39726141  0.42254581  0.52878648  1
  O  O226  1  0.40671422  0.75289630  0.01925400  1
  O  O227  1  0.40420177  0.75861928  0.51273614  1
  O  O228  1  0.74321452  0.09471115  0.02196041  1
  O  O229  1  0.74071200  0.10083241  0.52654896  1
  O  O230  1  0.72969498  0.42981902  0.02839169  1
  O  O231  1  0.73949698  0.42580815  0.51832046  1
  O  O232  1  0.73823478  0.77576668  0.02122393  1
  O  O233  1  0.72936035  0.76663205  0.51827226  1
  O  O234  1  0.09716505  0.25174735  0.00934206  1
  O  O235  1  0.08770752  0.25846162  0.51941274  1
  O  O236  1  0.09382648  0.59428659  0.01658991  1
  O  O237  1  0.10117804  0.60212697  0.53045345  1
  O  O238  1  0.10032540  0.93629671  0.02223412  1
  O  O239  1  0.10296687  0.93294521  0.52190695  1
  O  O240  1  0.43490253  0.25856216  0.02584718  1
  O  O241  1  0.42793566  0.26386043  0.52643971  1
  O  O242  1  0.41929023  0.58530163  0.02839780  1
  O  O243  1  0.41467165  0.58149984  0.52800215  1
  O  O244  1  0.41788094  0.93019756  0.01114067  1
  O  O245  1  0.42054437  0.93613529  0.51531493  1
  O  O246  1  0.76500493  0.25729937  0.01438266  1
  O  O247  1  0.75986410  0.25123803  0.52686997  1
  O  O248  1  0.75238545  0.58986644  0.01447205  1
  O  O249  1  0.75437170  0.60086362  0.51388382  1
  O  O250  1  0.77117611  0.94026142  0.02039253  1
  O  O251  1  0.76440821  0.93086797  0.52109266  1
  O  O252  1  0.24157324  0.07264974  0.27284038  1
  O  O253  1  0.23192304  0.06323648  0.76993641  1
  O  O254  1  0.25502640  0.40668686  0.28136884  1
  O  O255  1  0.22843164  0.39225530  0.77497937  1
  O  O256  1  0.23536423  0.73621238  0.27332848  1
  O  O257  1  0.23058846  0.73910276  0.75834015  1
  O  O258  1  0.56816525  0.07284882  0.27376959  1
  O  O259  1  0.58053120  0.08466263  0.77643127  1
  O  O260  1  0.56346837  0.39464215  0.27012779  1
  O  O261  1  0.57407124  0.40392511  0.76843077  1
  O  O262  1  0.57083148  0.73208877  0.27399915  1
  O  O263  1  0.57529135  0.73145568  0.76586898  1
  O  O264  1  0.90170055  0.06960948  0.27082985  1
  O  O265  1  0.90707210  0.07273041  0.79075120  1
  O  O266  1  0.91474440  0.41338368  0.27294229  1
  O  O267  1  0.90386109  0.39890563  0.77709749  1
  O  O268  1  0.91367608  0.74041106  0.26218221  1
  O  O269  1  0.90327746  0.73972752  0.77228426  1
  O  O270  1  0.26733710  0.23292052  0.27785153  1
  O  O271  1  0.26662963  0.22761748  0.77209303  1
  O  O272  1  0.26736836  0.57367712  0.27544259  1
  O  O273  1  0.26530133  0.56617669  0.76623125  1
  O  O274  1  0.25048020  0.90966950  0.26695883  1
  O  O275  1  0.25874549  0.91442008  0.77150155  1
  O  O276  1  0.58741117  0.23939421  0.27241629  1
  O  O277  1  0.60248092  0.23351842  0.77399028  1
  O  O278  1  0.59131071  0.57745441  0.26976628  1
  O  O279  1  0.59074848  0.57575385  0.77085955  1
  O  O280  1  0.59622686  0.92007160  0.26407150  1
  O  O281  1  0.59920479  0.90736475  0.75788247  1
  O  O282  1  0.91519044  0.23857997  0.26447832  1
  O  O283  1  0.93469500  0.23807507  0.77628412  1
  O  O284  1  0.94148756  0.57853548  0.27599591  1
  O  O285  1  0.93632181  0.56242909  0.76916038  1
  O  O286  1  0.92409475  0.92136635  0.26447678  1
  O  O287  1  0.93239099  0.89787865  0.78084055  1
  O  O288  1  0.27356730  0.23467978  0.47433401  1
  O  O289  1  0.25564925  0.22853416  0.97450484  1
  O  O290  1  0.25882719  0.57353471  0.45640968  1
  O  O291  1  0.26521771  0.57638662  0.98796226  1
  O  O292  1  0.26056440  0.90746670  0.47661082  1
  O  O293  1  0.25568551  0.91391901  0.97401228  1
  O  O294  1  0.58916363  0.24017852  0.48664676  1
  O  O295  1  0.59450138  0.23195501  0.98006001  1
  O  O296  1  0.59026956  0.58029876  0.48274600  1
  O  O297  1  0.58263282  0.57396616  0.98763921  1
  O  O298  1  0.59026878  0.91076354  0.47937318  1
  O  O299  1  0.60706500  0.91468387  0.98903813  1
  O  O300  1  0.93322231  0.23191605  0.49155453  1
  O  O301  1  0.92388562  0.22856184  0.96846218  1
  O  O302  1  0.94059708  0.56400822  0.48594714  1
  O  O303  1  0.93018229  0.56590471  0.97392818  1
  O  O304  1  0.92622810  0.91389752  0.47800491  1
  O  O305  1  0.93270922  0.90827561  0.96912510  1
  O  O306  1  0.23491241  0.06223901  0.47719907  1
  O  O307  1  0.23286898  0.06975612  0.97360613  1
  O  O308  1  0.24922701  0.40310545  0.47441890  1
  O  O309  1  0.23345755  0.39589405  0.97595550  1
  O  O310  1  0.22427881  0.73835391  0.47548677  1
  O  O311  1  0.24538539  0.74361727  0.98131975  1
  O  O312  1  0.56295460  0.06703641  0.47074654  1
  O  O313  1  0.58127493  0.07707368  0.97557909  1
  O  O314  1  0.56026686  0.39810867  0.48447417  1
  O  O315  1  0.56443277  0.40858268  0.98511217  1
  O  O316  1  0.57080974  0.73266249  0.47462913  1
  O  O317  1  0.56910456  0.73236167  0.97226567  1
  O  O318  1  0.89660511  0.07278345  0.47496336  1
  O  O319  1  0.90463722  0.06727735  0.97457567  1
  O  O320  1  0.91101141  0.40224880  0.49068613  1
  O  O321  1  0.89742475  0.39397981  0.97220108  1
  O  O322  1  0.90861981  0.74156658  0.48562502  1
  O  O323  1  0.90573616  0.74874798  0.98046400  1
  O  O324  1  0.09387112  0.24606430  0.23935609  1
  O  O325  1  0.09008339  0.26353336  0.73156106  1
  O  O326  1  0.09894205  0.60317352  0.23859248  1
  O  O327  1  0.09060583  0.60290927  0.72164449  1
  O  O328  1  0.09911437  0.93394303  0.22694125  1
  O  O329  1  0.09354348  0.92984432  0.71477089  1
  O  O330  1  0.43416788  0.26623715  0.22813932  1
  O  O331  1  0.43349884  0.25643327  0.72214590  1
  O  O332  1  0.41788358  0.58950306  0.22442523  1
  O  O333  1  0.42871832  0.58282717  0.73225309  1
  O  O334  1  0.42557352  0.92571107  0.23247684  1
  O  O335  1  0.41833510  0.93525001  0.73543381  1
  O  O336  1  0.75471374  0.25977040  0.23433603  1
  O  O337  1  0.75421002  0.25984595  0.73267631  1
  O  O338  1  0.75139782  0.59396533  0.23569215  1
  O  O339  1  0.76621464  0.59063344  0.73260508  1
  O  O340  1  0.75869913  0.93480354  0.22268074  1
  O  O341  1  0.77990343  0.93313936  0.73603905  1
  O  O342  1  0.08477944  0.08472768  0.22149748  1
  O  O343  1  0.06721399  0.09820207  0.72142977  1
  O  O344  1  0.08081577  0.41834375  0.24294589  1
  O  O345  1  0.05728525  0.43181798  0.72351645  1
  O  O346  1  0.07401136  0.76451384  0.23206723  1
  O  O347  1  0.05685816  0.76742856  0.72826633  1
  O  O348  1  0.40823356  0.09881216  0.24404821  1
  O  O349  1  0.39970082  0.10282990  0.73099124  1
  O  O350  1  0.40207446  0.42354580  0.22477099  1
  O  O351  1  0.41034483  0.42473761  0.72785745  1
  O  O352  1  0.40415958  0.75343607  0.22700944  1
  O  O353  1  0.40787078  0.75607254  0.73321845  1
  O  O354  1  0.74557898  0.08842546  0.22796146  1
  O  O355  1  0.74278478  0.09592572  0.71707275  1
  O  O356  1  0.72448782  0.42415971  0.22853133  1
  O  O357  1  0.73790052  0.42795608  0.73188853  1
  O  O358  1  0.72976814  0.76268437  0.22620719  1
  O  O359  1  0.73743392  0.77041856  0.72521786  1
