# generated using pymatgen
data_BaLaInIrO6
_symmetry_space_group_name_H-M   'P 1'
_cell_length_a   17.52466525
_cell_length_b   17.54026002
_cell_length_c   16.50993668
_cell_angle_alpha   89.97289842
_cell_angle_beta   89.98836056
_cell_angle_gamma   90.02932805
_symmetry_Int_Tables_number   1
_chemical_formula_structural   BaLaInIrO6
_chemical_formula_sum   'Ba36 La36 In36 Ir36 O216'
_cell_volume   5074.94162772
_cell_formula_units_Z   36
loop_
 _symmetry_equiv_pos_site_id
 _symmetry_equiv_pos_as_xyz
  1  'x, y, z'
loop_
 _atom_site_type_symbol
 _atom_site_label
 _atom_site_symmetry_multiplicity
 _atom_site_fract_x
 _atom_site_fract_y
 _atom_site_fract_z
 _atom_site_occupancy
  Ba  Ba0  1  0.67075147  0.18147530  0.62635564  1
  Ba  Ba1  1  0.00091482  0.82491947  0.37508858  1
  Ba  Ba2  1  0.16502256  0.34129427  0.12519148  1
  Ba  Ba3  1  0.66388278  0.49069718  0.37705233  1
  Ba  Ba4  1  0.17033218  0.66077972  0.37321013  1
  Ba  Ba5  1  0.82960359  0.34308559  0.62745194  1
  Ba  Ba6  1  0.50247480  0.32833303  0.37729112  1
  Ba  Ba7  1  0.16912764  0.00618785  0.12596652  1
  Ba  Ba8  1  0.83496354  0.65551819  0.87089187  1
  Ba  Ba9  1  0.49623956  0.34251314  0.12528607  1
  Ba  Ba10  1  0.82843415  0.34346458  0.12596167  1
  Ba  Ba11  1  0.16577324  0.00640276  0.62609259  1
  Ba  Ba12  1  0.49311351  0.01199943  0.12872422  1
  Ba  Ba13  1  0.66621097  0.50889472  0.62615126  1
  Ba  Ba14  1  0.66659565  0.17662434  0.12795551  1
  Ba  Ba15  1  0.33352693  0.17884332  0.62486969  1
  Ba  Ba16  1  0.33419999  0.84408505  0.12726128  1
  Ba  Ba17  1  0.16423170  0.34097192  0.62015539  1
  Ba  Ba18  1  1.00033276  0.50565014  0.62399022  1
  Ba  Ba19  1  -0.00487666  0.49232535  0.87479777  1
  Ba  Ba20  1  0.83199258  0.66873798  0.62252920  1
  Ba  Ba21  1  0.82843761  0.99369684  0.37484859  1
  Ba  Ba22  1  1.00196943  0.17618546  0.62478090  1
  Ba  Ba23  1  0.99974140  0.84231234  0.12962925  1
  Ba  Ba24  1  0.99683869  0.83414006  0.62484899  1
  Ba  Ba25  1  0.33480293  0.17710063  0.12391875  1
  Ba  Ba26  1  0.50111519  0.64824984  0.37294946  1
  Ba  Ba27  1  0.17444144  0.67635677  0.12685643  1
  Ba  Ba28  1  0.16747495  0.99134571  0.87581944  1
  Ba  Ba29  1  0.83393411  0.65515355  0.37355759  1
  Ba  Ba30  1  0.33108539  0.49133494  0.87583211  1
  Ba  Ba31  1  0.33548903  0.50985113  0.62308435  1
  Ba  Ba32  1  0.16617476  0.32450115  0.37364082  1
  Ba  Ba33  1  0.50364704  0.32610701  0.87123957  1
  Ba  Ba34  1  0.66738771  0.48664141  0.87383747  1
  Ba  Ba35  1  0.33289487  0.48718614  0.37488985  1
  La  La36  1  0.16525070  0.98557582  0.37333349  1
  La  La37  1  0.49498299  0.01882686  0.62231279  1
  La  La38  1  0.49306306  0.68069504  0.12931925  1
  La  La39  1  0.32916561  0.81876203  0.36738748  1
  La  La40  1  0.50996244  0.64824426  0.87866569  1
  La  La41  1  -0.00225429  0.82059685  0.88001753  1
  La  La42  1  0.16918490  0.65687745  0.87651130  1
  La  La43  1  0.33054107  0.15572657  0.87783959  1
  La  La44  1  0.32930508  0.82373962  0.88011051  1
  La  La45  1  0.83473404  0.31975263  0.87477619  1
  La  La46  1  0.83913835  0.98709372  0.87681662  1
  La  La47  1  0.66455827  0.15810385  0.87390724  1
  La  La48  1  0.33770191  0.50866331  0.13516624  1
  La  La49  1  -0.00273466  0.15177104  0.38098668  1
  La  La50  1  0.66705450  0.51463627  0.12570507  1
  La  La51  1  0.33216428  0.15973095  0.37349975  1
  La  La52  1  1.00691971  0.17960699  0.12605371  1
  La  La53  1  0.67296619  0.84690627  0.12347860  1
  La  La54  1  1.00327154  0.52201094  0.12516035  1
  La  La55  1  0.82943472  0.67742043  0.12060916  1
  La  La56  1  0.49755331  0.67679071  0.62033411  1
  La  La57  1  -0.00159898  0.15513320  0.87643924  1
  La  La58  1  0.66302328  0.81166935  0.87522662  1
  La  La59  1  0.65982509  0.80754387  0.37563266  1
  La  La60  1  0.67573301  0.84329211  0.62341186  1
  La  La61  1  0.65695522  0.15606643  0.38076604  1
  La  La62  1  -0.00082743  0.49052127  0.37218618  1
  La  La63  1  0.49596021  0.35249885  0.62122807  1
  La  La64  1  0.83246133  0.32111719  0.37853979  1
  La  La65  1  0.82669611  0.01590407  0.12466901  1
  La  La66  1  0.49806581  0.99051205  0.87326300  1
  La  La67  1  0.15877694  0.67322535  0.62472193  1
  La  La68  1  0.33737015  0.83885284  0.61467661  1
  La  La69  1  0.17227126  0.31818284  0.87061147  1
  La  La70  1  0.50800419  0.98081883  0.37669415  1
  La  La71  1  0.82431033  0.01322875  0.61827022  1
  In  In72  1  0.33412878  0.33536474  -0.00089644  1
  In  In73  1  0.50130955  0.83388062  -0.00071154  1
  In  In74  1  0.17117347  0.83244764  0.50020790  1
  In  In75  1  0.16428982  0.16576936  0.00152756  1
  In  In76  1  0.33745826  -0.00241826  0.74863333  1
  In  In77  1  0.83006257  0.83117670  0.49600249  1
  In  In78  1  -0.00103115  0.66287728  0.49651987  1
  In  In79  1  0.33730099  0.67109922  0.74984443  1
  In  In80  1  -0.00215727  0.33630385  0.00186670  1
  In  In81  1  0.83343804  0.50032084  0.24776415  1
  In  In82  1  0.66722974  -0.00085512  -0.00417218  1
  In  In83  1  0.16743336  0.49937108  0.75157944  1
  In  In84  1  0.33578789  0.33239934  0.74965366  1
  In  In85  1  0.50156881  0.16809960  -0.00174379  1
  In  In86  1  0.33541963  0.00166039  0.25308754  1
  In  In87  1  0.50298199  0.83476664  0.74739416  1
  In  In88  1  0.16550046  0.49970434  0.00099876  1
  In  In89  1  0.33958135  0.66694598  -0.00162063  1
  In  In90  1  0.83252952  0.83362872  0.75048884  1
  In  In91  1  0.50074808  0.50243367  0.74995321  1
  In  In92  1  0.16698356  0.49913342  0.24980431  1
  In  In93  1  0.33720671  -0.00086260  0.49489692  1
  In  In94  1  -0.00290446  0.33441771  0.50046144  1
  In  In95  1  0.83402201  0.16561272  0.74971982  1
  In  In96  1  0.83551319  0.16874724  0.25019726  1
  In  In97  1  0.66720620  -0.00126810  0.75027884  1
  In  In98  1  0.83303886  0.49905247  0.00017409  1
  In  In99  1  0.83234873  0.83409251  0.24948677  1
  In  In100  1  0.16579724  0.16490174  0.49701174  1
  In  In101  1  -0.00236281  -0.00230122  0.50492999  1
  In  In102  1  0.66390447  -0.00063479  0.24917941  1
  In  In103  1  0.00040937  0.66555334  0.74990703  1
  In  In104  1  0.66637384  0.33514202  0.24993842  1
  In  In105  1  0.17029735  0.83255991  0.75290731  1
  In  In106  1  0.16591659  0.16369828  0.75051293  1
  In  In107  1  -0.00398336  -0.00115787  0.00503780  1
  Ir  Ir108  1  0.65970455  -0.00122928  0.50027112  1
  Ir  Ir109  1  0.33342230  0.33039983  0.25382361  1
  Ir  Ir110  1  0.16363725  0.83415978  0.00097976  1
  Ir  Ir111  1  0.33900768  0.66636700  0.25133688  1
  Ir  Ir112  1  0.66378898  0.66531787  0.75203289  1
  Ir  Ir113  1  0.16984833  0.50133335  0.49795517  1
  Ir  Ir114  1  0.33668896  0.33281037  0.49639872  1
  Ir  Ir115  1  0.82576936  0.16665559  0.49713756  1
  Ir  Ir116  1  0.50213348  0.49950898  0.24901383  1
  Ir  Ir117  1  0.00027452  0.66636035  0.24758584  1
  Ir  Ir118  1  0.50263475  0.16805246  0.74679415  1
  Ir  Ir119  1  0.66708405  0.33215690  0.75100550  1
  Ir  Ir120  1  0.50593188  0.82972132  0.49989697  1
  Ir  Ir121  1  0.82821019  0.49579587  0.49787028  1
  Ir  Ir122  1  0.33478723  0.66640372  0.49844902  1
  Ir  Ir123  1  0.66642051  0.33236346  0.50226568  1
  Ir  Ir124  1  0.50081820  0.49988337  0.49808026  1
  Ir  Ir125  1  0.33590923  0.00026576  -0.00044053  1
  Ir  Ir126  1  -0.00032887  0.67289910  0.00317681  1
  Ir  Ir127  1  0.83086584  0.16673194  -0.00168643  1
  Ir  Ir128  1  0.16182083  0.16583897  0.25218942  1
  Ir  Ir129  1  0.16620673  0.83362398  0.24769446  1
  Ir  Ir130  1  0.50584485  0.50169813  0.00635338  1
  Ir  Ir131  1  0.49656608  0.16875399  0.25788138  1
  Ir  Ir132  1  0.83068960  0.83168766  -0.00037899  1
  Ir  Ir133  1  0.66084287  0.66364515  0.50093295  1
  Ir  Ir134  1  0.50037225  0.16905485  0.50121587  1
  Ir  Ir135  1  -0.00375730  -0.00098763  0.75551420  1
  Ir  Ir136  1  0.50385443  0.82944360  0.25501006  1
  Ir  Ir137  1  0.66440811  0.66613544  0.00171595  1
  Ir  Ir138  1  0.66796065  0.33373709  -0.00117998  1
  Ir  Ir139  1  -0.00331689  0.33249880  0.25374041  1
  Ir  Ir140  1  0.00000775  0.00237014  0.25097084  1
  Ir  Ir141  1  -0.00001501  0.33423580  0.75341263  1
  Ir  Ir142  1  0.66197392  0.66684518  0.24407263  1
  Ir  Ir143  1  0.82965173  0.49649106  0.74883502  1
  O  O144  1  0.31803280  0.33691186  0.13329616  1
  O  O145  1  0.31825926  0.33488118  0.61550818  1
  O  O146  1  0.32584603  0.65219364  0.13037279  1
  O  O147  1  0.30274510  0.67003823  0.61635134  1
  O  O148  1  0.32047829  1.00030392  0.12304403  1
  O  O149  1  0.31865176  0.98100056  0.62062354  1
  O  O150  1  0.64834581  0.32769842  0.11797564  1
  O  O151  1  0.63603013  0.33180166  0.62724333  1
  O  O152  1  0.63040476  0.65985240  0.12291653  1
  O  O153  1  0.63264850  0.66407049  0.62648158  1
  O  O154  1  0.64060798  0.98802070  0.12254401  1
  O  O155  1  0.62873898  0.98461906  0.61968891  1
  O  O156  1  0.97458392  0.31498158  0.13545637  1
  O  O157  1  0.97888929  0.33371926  0.63193753  1
  O  O158  1  0.96678576  0.66494892  0.12523244  1
  O  O159  1  0.98262465  0.66314808  0.62305305  1
  O  O160  1  0.96338918  1.00027992  0.13205424  1
  O  O161  1  0.96340304  0.99544963  0.63619649  1
  O  O162  1  0.18290922  0.16540282  0.13318313  1
  O  O163  1  0.18223761  0.16157679  0.62412265  1
  O  O164  1  0.20113645  0.49925492  0.12644267  1
  O  O165  1  0.18689931  0.49853841  0.61676002  1
  O  O166  1  0.18660073  0.83390939  0.12457362  1
  O  O167  1  0.20405848  0.82286132  0.62557408  1
  O  O168  1  0.51767254  0.16494694  0.13653989  1
  O  O169  1  0.52730121  0.15477392  0.62278367  1
  O  O170  1  0.53205229  0.50084035  0.12761069  1
  O  O171  1  0.51559335  0.49856854  0.61781654  1
  O  O172  1  0.53598630  0.82424077  0.13353382  1
  O  O173  1  0.54069792  0.81833784  0.61857198  1
  O  O174  1  0.86574211  0.15943742  0.11920891  1
  O  O175  1  0.85062533  0.16174686  0.61770189  1
  O  O176  1  0.86793243  0.49981737  0.12383186  1
  O  O177  1  0.84790263  0.49937572  0.62046556  1
  O  O178  1  0.84942072  0.81475389  0.11885851  1
  O  O179  1  0.84307871  0.82463710  0.62371497  1
  O  O180  1  0.13221008  0.16775518  0.36805881  1
  O  O181  1  0.13208968  0.17424023  0.87488719  1
  O  O182  1  0.13976222  0.50392297  0.37642778  1
  O  O183  1  0.14175266  0.52166893  0.87750341  1
  O  O184  1  0.15087293  0.83824375  0.36735821  1
  O  O185  1  0.13423141  0.83543916  0.88269445  1
  O  O186  1  0.46824724  0.17456756  0.38065704  1
  O  O187  1  0.47006016  0.17043406  0.86395166  1
  O  O188  1  0.48142517  0.49440511  0.37189346  1
  O  O189  1  0.48540512  0.50872419  0.88441114  1
  O  O190  1  0.47048250  0.83872705  0.37822598  1
  O  O191  1  0.46669598  0.84863706  0.87349425  1
  O  O192  1  0.79529453  0.17048846  0.37953172  1
  O  O193  1  0.80018134  0.17389831  0.87938115  1
  O  O194  1  0.81313716  0.49460625  0.37861928  1
  O  O195  1  0.81564089  0.50060420  0.86961313  1
  O  O196  1  0.79278870  0.83580207  0.37156424  1
  O  O197  1  0.79785150  0.84611420  0.88045835  1
  O  O198  1  0.03071752  0.01055929  0.36801113  1
  O  O199  1  0.01714868  0.01084490  0.87552019  1
  O  O200  1  0.01689548  0.35234542  0.37060884  1
  O  O201  1  0.03038272  0.33533790  0.87218086  1
  O  O202  1  0.02062623  0.65954682  0.36628819  1
  O  O203  1  0.03010761  0.67823032  0.88317508  1
  O  O204  1  0.37533651  0.01292854  0.37428955  1
  O  O205  1  0.36415628  0.00731782  0.87922638  1
  O  O206  1  0.35422380  0.32368272  0.37523661  1
  O  O207  1  0.35808563  0.33918061  0.87466992  1
  O  O208  1  0.35769915  0.68078434  0.37429595  1
  O  O209  1  0.37886713  0.68618338  0.87637602  1
  O  O210  1  0.67832775  0.01354169  0.37968251  1
  O  O211  1  0.70562400  0.01770562  0.87464156  1
  O  O212  1  0.69306682  0.33407063  0.38204039  1
  O  O213  1  0.69709999  0.33271158  0.87449928  1
  O  O214  1  0.68574573  0.67195129  0.37200524  1
  O  O215  1  0.68926389  0.67377423  0.87683463  1
  O  O216  1  0.06112625  0.09925056  0.01899015  1
  O  O217  1  0.06418027  0.09593214  0.50719217  1
  O  O218  1  0.06140151  0.43739181  0.02994688  1
  O  O219  1  0.07648045  0.43434929  0.50653294  1
  O  O220  1  0.06735340  0.76799319  0.01662179  1
  O  O221  1  0.08575236  0.74961969  0.51787537  1
  O  O222  1  0.40354056  0.09200290  0.01013166  1
  O  O223  1  0.41238723  0.09720104  0.52113430  1
  O  O224  1  0.40658346  0.44335777  0.02685905  1
  O  O225  1  0.41105693  0.42494558  0.51816518  1
  O  O226  1  0.41405069  0.75768772  0.03113778  1
  O  O227  1  0.41070338  0.75891182  0.52634136  1
  O  O228  1  0.74470994  0.09531588  0.02542730  1
  O  O229  1  0.73558841  0.08948950  0.52359014  1
  O  O230  1  0.72928561  0.43143029  0.02225575  1
  O  O231  1  0.73501765  0.42546567  0.51959341  1
  O  O232  1  0.73110942  0.76399658  0.02286571  1
  O  O233  1  0.72204654  0.76133843  0.51590259  1
  O  O234  1  0.08579406  0.25759935  0.02227676  1
  O  O235  1  0.08769145  0.25878051  0.50772743  1
  O  O236  1  0.08561915  0.60178129  0.02631764  1
  O  O237  1  0.10452751  0.59239683  0.51819451  1
  O  O238  1  0.09278982  0.92382367  0.01806619  1
  O  O239  1  0.10033186  0.93036915  0.50493346  1
  O  O240  1  0.42801748  0.25944096  0.01375186  1
  O  O241  1  0.43467183  0.26628512  0.52390943  1
  O  O242  1  0.44612886  0.59852919  0.02129091  1
  O  O243  1  0.43213731  0.59664251  0.51983392  1
  O  O244  1  0.42751744  0.93278149  0.01353827  1
  O  O245  1  0.44293058  0.92443880  0.52269398  1
  O  O246  1  0.76608887  0.26609895  0.01063823  1
  O  O247  1  0.76046107  0.26387787  0.51305703  1
  O  O248  1  0.75750463  0.59824350  0.02877166  1
  O  O249  1  0.75595259  0.59250898  0.51291331  1
  O  O250  1  0.76817326  0.92614904  0.02698747  1
  O  O251  1  0.75050002  0.93035419  0.52821532  1
  O  O252  1  0.23166238  0.07443292  0.27730438  1
  O  O253  1  0.24989905  0.07656751  0.77384259  1
  O  O254  1  0.24493268  0.40263566  0.26635871  1
  O  O255  1  0.23261501  0.39942783  0.77100220  1
  O  O256  1  0.24998775  0.74763042  0.26988872  1
  O  O257  1  0.24513616  0.74073670  0.79322771  1
  O  O258  1  0.56415356  0.07487833  0.27935642  1
  O  O259  1  0.56969030  0.07437860  0.77570322  1
  O  O260  1  0.57048250  0.40901373  0.26402707  1
  O  O261  1  0.57835206  0.40385579  0.75717595  1
  O  O262  1  0.57116062  0.73672480  0.27151403  1
  O  O263  1  0.57125734  0.73238612  0.77809135  1
  O  O264  1  0.91642882  0.07721199  0.27615123  1
  O  O265  1  0.90713928  0.07097633  0.78188461  1
  O  O266  1  0.90349094  0.39844568  0.27618911  1
  O  O267  1  0.89861630  0.39982696  0.77273202  1
  O  O268  1  0.90826894  0.73648084  0.26122833  1
  O  O269  1  0.91667185  0.75056911  0.77809887  1
  O  O270  1  0.26254482  0.23164235  0.27532752  1
  O  O271  1  0.26314916  0.23717980  0.77967821  1
  O  O272  1  0.26550090  0.57818100  0.26548572  1
  O  O273  1  0.26201931  0.57834508  0.76790656  1
  O  O274  1  0.25661438  0.90764030  0.27323678  1
  O  O275  1  0.27199345  0.89803966  0.77542211  1
  O  O276  1  0.59406511  0.23137317  0.27698506  1
  O  O277  1  0.60109783  0.23407263  0.77323511  1
  O  O278  1  0.59898068  0.56784631  0.25972087  1
  O  O279  1  0.59538220  0.57665098  0.77207065  1
  O  O280  1  0.59556728  0.89836787  0.28062759  1
  O  O281  1  0.60486439  0.89786088  0.77945114  1
  O  O282  1  0.93183280  0.23991974  0.28464142  1
  O  O283  1  0.92935484  0.24151811  0.77925953  1
  O  O284  1  0.93492819  0.57059846  0.26627470  1
  O  O285  1  0.91842594  0.56884205  0.76060722  1
  O  O286  1  0.92801383  0.91423049  0.27011906  1
  O  O287  1  0.92757459  0.91067981  0.78580178  1
  O  O288  1  0.26974698  0.23841218  0.47773491  1
  O  O289  1  0.25931891  0.23640555  0.97175356  1
  O  O290  1  0.26436800  0.57512801  0.47797920  1
  O  O291  1  0.25611373  0.58450894  0.97851819  1
  O  O292  1  0.27104289  0.90034287  0.46721242  1
  O  O293  1  0.26405259  0.90166459  0.97959525  1
  O  O294  1  0.59850841  0.23596011  0.47939458  1
  O  O295  1  0.60655853  0.23595577  0.97622207  1
  O  O296  1  0.59179749  0.57069381  0.48363005  1
  O  O297  1  0.60157079  0.56890538  0.98579337  1
  O  O298  1  0.59733478  0.90009986  0.46952650  1
  O  O299  1  0.60179833  0.89777043  0.97258527  1
  O  O300  1  0.91527554  0.23787058  0.46832250  1
  O  O301  1  0.92303190  0.23187399  0.97143106  1
  O  O302  1  0.92524273  0.55875374  0.47604925  1
  O  O303  1  0.92913264  0.58341068  0.98889025  1
  O  O304  1  0.91992038  0.91178024  0.48121310  1
  O  O305  1  0.92240824  0.90119406  0.97404845  1
  O  O306  1  0.24018572  0.07072316  0.46414667  1
  O  O307  1  0.24677480  0.07186786  0.98132963  1
  O  O308  1  0.24286702  0.40390117  0.47825118  1
  O  O309  1  0.23026978  0.39878110  0.97411465  1
  O  O310  1  0.25564736  0.74345473  0.47465881  1
  O  O311  1  0.23804896  0.74666163  0.97826793  1
  O  O312  1  0.56579607  0.07222897  0.47353054  1
  O  O313  1  0.57225776  0.07336487  0.96634911  1
  O  O314  1  0.56916673  0.40070306  0.49391797  1
  O  O315  1  0.57292356  0.40267452  0.98605713  1
  O  O316  1  0.56976683  0.73424466  0.47812634  1
  O  O317  1  0.57309210  0.73314851  0.97290453  1
  O  O318  1  0.89883818  0.07988176  0.48173730  1
  O  O319  1  0.89294037  0.07031236  0.97779769  1
  O  O320  1  0.89583625  0.40314410  0.47923571  1
  O  O321  1  0.89655218  0.39748281  0.97554550  1
  O  O322  1  0.90629708  0.73860009  0.47881147  1
  O  O323  1  0.90565598  0.74334258  0.97623358  1
  O  O324  1  0.08846835  0.25795973  0.22939712  1
  O  O325  1  0.09017721  0.26595531  0.73742445  1
  O  O326  1  0.08676367  0.59294804  0.22467222  1
  O  O327  1  0.09931862  0.59746848  0.72911302  1
  O  O328  1  0.09461013  0.92953170  0.23537384  1
  O  O329  1  0.08514547  0.92719176  0.73501038  1
  O  O330  1  0.42768594  0.26074164  0.23798873  1
  O  O331  1  0.44130409  0.26104282  0.71977112  1
  O  O332  1  0.43036608  0.59259929  0.22427466  1
  O  O333  1  0.43874577  0.60561394  0.72941656  1
  O  O334  1  0.43422069  0.92046324  0.24321672  1
  O  O335  1  0.44730842  0.94283708  0.73094623  1
  O  O336  1  0.76433857  0.26468772  0.24367697  1
  O  O337  1  0.75871667  0.26347018  0.74326976  1
  O  O338  1  0.75790721  0.60234655  0.21896473  1
  O  O339  1  0.75876642  0.59216436  0.73243285  1
  O  O340  1  0.75976179  0.92538696  0.21500692  1
  O  O341  1  0.76426694  0.93012915  0.71848989  1
  O  O342  1  0.06631136  0.09991758  0.22718667  1
  O  O343  1  0.06479281  0.08834448  0.73805662  1
  O  O344  1  0.05932617  0.42980850  0.22934933  1
  O  O345  1  0.06670596  0.42363299  0.73643566  1
  O  O346  1  0.07413446  0.75736226  0.23031229  1
  O  O347  1  0.08451511  0.75354898  0.72712414  1
  O  O348  1  0.40320329  0.10429001  0.24211954  1
  O  O349  1  0.41498938  0.09803008  0.72725554  1
  O  O350  1  0.40305554  0.43232765  0.23164144  1
  O  O351  1  0.41382650  0.42368389  0.72880234  1
  O  O352  1  0.41333024  0.75740057  0.22861018  1
  O  O353  1  0.40651687  0.76867374  0.71124471  1
  O  O354  1  0.74896275  0.08550461  0.22898243  1
  O  O355  1  0.74569618  0.08790276  0.72228980  1
  O  O356  1  0.73280443  0.43655695  0.22472475  1
  O  O357  1  0.73757012  0.42525816  0.73326776  1
  O  O358  1  0.72714090  0.76102520  0.22309222  1
  O  O359  1  0.72670937  0.76232182  0.73616486  1
