# generated using pymatgen
data_BaLaInIrO6
_symmetry_space_group_name_H-M   'P 1'
_cell_length_a   17.53554665
_cell_length_b   17.56897520
_cell_length_c   16.50267044
_cell_angle_alpha   90.00700375
_cell_angle_beta   90.01496741
_cell_angle_gamma   90.02735568
_symmetry_Int_Tables_number   1
_chemical_formula_structural   BaLaInIrO6
_chemical_formula_sum   'Ba36 La36 In36 Ir36 O216'
_cell_volume   5084.16806141
_cell_formula_units_Z   36
loop_
 _symmetry_equiv_pos_site_id
 _symmetry_equiv_pos_as_xyz
  1  'x, y, z'
loop_
 _atom_site_type_symbol
 _atom_site_label
 _atom_site_symmetry_multiplicity
 _atom_site_fract_x
 _atom_site_fract_y
 _atom_site_fract_z
 _atom_site_occupancy
  Ba  Ba0  1  0.17052612  0.66083327  0.37657823  1
  Ba  Ba1  1  0.67085376  0.15632318  0.87199018  1
  Ba  Ba2  1  0.16367885  0.32605152  0.37268357  1
  Ba  Ba3  1  0.83056454  0.67490839  0.12478990  1
  Ba  Ba4  1  0.99791168  0.17182217  0.12386664  1
  Ba  Ba5  1  0.83401450  0.98821400  0.87360326  1
  Ba  Ba6  1  0.16452219  0.99634712  0.37356491  1
  Ba  Ba7  1  0.33675971  0.16434566  0.37563282  1
  Ba  Ba8  1  0.66567138  0.50856148  0.62476388  1
  Ba  Ba9  1  0.66321446  0.15588128  0.37742213  1
  Ba  Ba10  1  -0.00389305  0.49190987  0.88211632  1
  Ba  Ba11  1  0.50493496  0.99707075  0.87347956  1
  Ba  Ba12  1  0.33148348  0.17792870  0.62355874  1
  Ba  Ba13  1  0.66389588  0.48754829  0.87630859  1
  Ba  Ba14  1  0.67237030  0.17812726  0.12327835  1
  Ba  Ba15  1  0.49930378  0.01223536  0.12682288  1
  Ba  Ba16  1  0.33745181  0.82764635  0.87881672  1
  Ba  Ba17  1  0.00108375  0.82378675  0.37478483  1
  Ba  Ba18  1  0.16687982  0.67168836  0.12901631  1
  Ba  Ba19  1  0.16985371  0.33745357  0.12708003  1
  Ba  Ba20  1  0.16328743  0.00635846  0.12419141  1
  Ba  Ba21  1  0.66418204  0.50719129  0.12620917  1
  Ba  Ba22  1  0.83617040  0.65570060  0.87843671  1
  Ba  Ba23  1  0.49882995  0.65460608  0.37573464  1
  Ba  Ba24  1  0.16458780  0.32740345  0.87405968  1
  Ba  Ba25  1  0.49961538  0.67237318  0.62572649  1
  Ba  Ba26  1  1.00190225  0.17866383  0.62257282  1
  Ba  Ba27  1  0.49954518  0.34423131  0.61941283  1
  Ba  Ba28  1  0.50301624  0.65839164  0.87529099  1
  Ba  Ba29  1  0.33080315  0.49371858  0.37507235  1
  Ba  Ba30  1  1.00203817  0.83949485  0.12761079  1
  Ba  Ba31  1  0.83878844  0.65163256  0.37589696  1
  Ba  Ba32  1  0.16793779  0.65988190  0.88312009  1
  Ba  Ba33  1  0.32977895  0.49465778  0.87456736  1
  Ba  Ba34  1  0.33283964  0.84330900  0.12601981  1
  Ba  Ba35  1  0.49925168  0.34156758  0.12782100  1
  La  La36  1  0.49636258  0.67660068  0.12259924  1
  La  La37  1  -0.00241484  0.82019674  0.88285606  1
  La  La38  1  0.84154736  0.31913686  0.87342597  1
  La  La39  1  0.82282868  0.34840141  0.12786256  1
  La  La40  1  0.82595913  0.01918530  0.62129837  1
  La  La41  1  0.16949959  0.67821301  0.62705608  1
  La  La42  1  0.33204949  0.82407412  0.37062301  1
  La  La43  1  1.00077689  0.51712364  0.62332145  1
  La  La44  1  0.00118715  0.48917990  0.37286693  1
  La  La45  1  0.33620165  0.51402769  0.62214532  1
  La  La46  1  0.65769064  0.48176433  0.37523810  1
  La  La47  1  0.82598996  0.68086989  0.62679935  1
  La  La48  1  0.83915224  0.98576039  0.37221012  1
  La  La49  1  0.16783107  0.98986098  0.87198723  1
  La  La50  1  0.83594627  0.31600781  0.37406193  1
  La  La51  1  -0.01016914  0.15073867  0.87477294  1
  La  La52  1  0.50313800  0.32142602  0.37431487  1
  La  La53  1  0.16550415  0.01781373  0.62674013  1
  La  La54  1  0.50011430  0.32717313  0.87719238  1
  La  La55  1  0.67131337  0.84589540  0.11966134  1
  La  La56  1  0.50587855  0.98637061  0.37728245  1
  La  La57  1  0.66977782  0.84277832  0.62426206  1
  La  La58  1  0.33784452  0.84448912  0.62015055  1
  La  La59  1  0.33936205  0.51892749  0.12769702  1
  La  La60  1  0.82782400  0.35004182  0.62340211  1
  La  La61  1  0.32704762  0.17059575  0.12417027  1
  La  La62  1  0.49958474  0.01317792  0.62589030  1
  La  La63  1  0.67567634  0.18664619  0.62556168  1
  La  La64  1  0.66462878  0.81693705  0.37363553  1
  La  La65  1  0.82894576  0.01061557  0.12822146  1
  La  La66  1  0.65821073  0.81925598  0.87495597  1
  La  La67  1  0.16284533  0.35410697  0.62115495  1
  La  La68  1  1.00434893  0.84263518  0.62715958  1
  La  La69  1  -0.00556510  0.14975080  0.37237415  1
  La  La70  1  0.33807526  0.15915814  0.87950650  1
  La  La71  1  0.99977086  0.51363208  0.12947495  1
  In  In72  1  0.33450727  -0.00005373  0.49862819  1
  In  In73  1  0.16700129  0.49910506  0.25032847  1
  In  In74  1  0.33297804  0.33397517  0.74837779  1
  In  In75  1  0.50498811  0.83424309  0.25100045  1
  In  In76  1  0.50364824  0.16897036  0.74484756  1
  In  In77  1  0.33576526  0.33436834  0.00059853  1
  In  In78  1  -0.00143338  0.33460881  0.74553165  1
  In  In79  1  0.66774153  0.66300464  0.49738119  1
  In  In80  1  -0.00025829  0.66774830  0.74807868  1
  In  In81  1  0.16182418  0.16719882  -0.00361409  1
  In  In82  1  -0.00378384  -0.00047548  0.50338896  1
  In  In83  1  0.66730589  0.66434021  0.00175688  1
  In  In84  1  0.49863423  0.49765604  0.00086510  1
  In  In85  1  0.16649385  0.83600012  0.00120827  1
  In  In86  1  0.49757182  0.49733930  0.74915401  1
  In  In87  1  0.16363954  0.50287069  0.74917036  1
  In  In88  1  0.33461567  0.33431276  0.25173724  1
  In  In89  1  0.82973744  0.83192007  0.24966934  1
  In  In90  1  0.16657662  0.49677848  0.00344613  1
  In  In91  1  0.66785915  0.66543054  0.74976658  1
  In  In92  1  -0.00308559  -0.00387543  0.74952025  1
  In  In93  1  0.50058839  0.83433590  0.74561239  1
  In  In94  1  -0.00130936  0.66594666  0.00362563  1
  In  In95  1  0.83541240  0.49840962  0.75112045  1
  In  In96  1  -0.00567499  0.33072784  0.24691541  1
  In  In97  1  -0.00082692  0.66602331  0.25498797  1
  In  In98  1  0.50314368  0.16666398  0.50146743  1
  In  In99  1  0.16373445  0.16959999  0.75197769  1
  In  In100  1  0.67032233  0.00116452  -0.00275476  1
  In  In101  1  0.16394746  0.17083685  0.49736835  1
  In  In102  1  0.50347164  0.16934116  0.00066497  1
  In  In103  1  0.16978058  0.83476569  0.50310061  1
  In  In104  1  0.33172542  -0.00046960  0.74737486  1
  In  In105  1  0.33675431  0.00406644  0.25031853  1
  In  In106  1  0.50198907  0.83719730  0.00070483  1
  In  In107  1  0.83397510  0.83425853  0.50181743  1
  Ir  Ir108  1  0.33560026  0.66987933  0.00202773  1
  Ir  Ir109  1  0.82640231  0.49511532  0.25517611  1
  Ir  Ir110  1  0.67297010  0.33050944  0.74982467  1
  Ir  Ir111  1  0.66565657  0.66430902  0.25210802  1
  Ir  Ir112  1  0.83514434  0.83446051  0.75037573  1
  Ir  Ir113  1  -0.00822326  0.33161001  0.00356472  1
  Ir  Ir114  1  0.83348561  0.16663381  0.74796833  1
  Ir  Ir115  1  0.50466372  0.16970214  0.25193084  1
  Ir  Ir116  1  0.33279472  0.66662073  0.50229836  1
  Ir  Ir117  1  0.50128657  0.50199651  0.25303203  1
  Ir  Ir118  1  0.16745758  0.83361828  0.74761835  1
  Ir  Ir119  1  0.16531769  0.50301949  0.50261760  1
  Ir  Ir120  1  0.32848358  0.67032954  0.75046125  1
  Ir  Ir121  1  0.33020803  0.00498617  -0.00277499  1
  Ir  Ir122  1  0.33686772  0.67080793  0.25123787  1
  Ir  Ir123  1  0.16823916  0.83568643  0.25352318  1
  Ir  Ir124  1  0.67178253  -0.00312484  0.74187890  1
  Ir  Ir125  1  0.16286304  0.16480198  0.24977013  1
  Ir  Ir126  1  0.83131565  0.16433478  0.25243653  1
  Ir  Ir127  1  -0.00176280  0.66223623  0.50409281  1
  Ir  Ir128  1  0.50363981  0.83422027  0.49940056  1
  Ir  Ir129  1  -0.00220530  0.00011867  0.24909264  1
  Ir  Ir130  1  0.83006029  0.16876305  0.49847387  1
  Ir  Ir131  1  0.67118644  0.33654724  0.49872383  1
  Ir  Ir132  1  -0.00579370  0.33745771  0.49798314  1
  Ir  Ir133  1  0.83782824  0.16708012  0.00151585  1
  Ir  Ir134  1  0.49783451  0.49752813  0.49472131  1
  Ir  Ir135  1  -0.00328149  -0.00029538  0.00023599  1
  Ir  Ir136  1  0.67047942  0.00103736  0.25668591  1
  Ir  Ir137  1  0.83202946  0.49291597  0.00515252  1
  Ir  Ir138  1  0.83565779  0.49643382  0.49612714  1
  Ir  Ir139  1  0.67443368  0.33095633  -0.00190661  1
  Ir  Ir140  1  0.66920642  0.33327041  0.25092265  1
  Ir  Ir141  1  0.33106035  0.33801618  0.49841153  1
  Ir  Ir142  1  0.83225039  0.83800912  -0.00149029  1
  Ir  Ir143  1  0.66795826  -0.00189889  0.49980501  1
  O  O144  1  0.32377212  0.30507072  0.12845363  1
  O  O145  1  0.30018117  0.33267230  0.61507419  1
  O  O146  1  0.31652059  0.65882966  0.12621979  1
  O  O147  1  0.30479547  0.65519888  0.62695145  1
  O  O148  1  0.31420028  1.00665551  0.11861188  1
  O  O149  1  0.29585096  0.98080512  0.62332785  1
  O  O150  1  0.64961119  0.33302609  0.12410573  1
  O  O151  1  0.65000874  0.32517479  0.62477715  1
  O  O152  1  0.63499882  0.66285036  0.13437339  1
  O  O153  1  0.65204593  0.66758946  0.62173291  1
  O  O154  1  0.65157168  0.98679690  0.13626143  1
  O  O155  1  0.63837217  0.98465813  0.61995926  1
  O  O156  1  0.95802811  0.32377652  0.12199512  1
  O  O157  1  0.96171980  0.33032981  0.61422545  1
  O  O158  1  0.97806122  0.65773752  0.12904489  1
  O  O159  1  0.96348848  0.65923855  0.62024261  1
  O  O160  1  0.96586828  0.99702395  0.12259914  1
  O  O161  1  0.95947961  0.98142101  0.62632036  1
  O  O162  1  0.18964520  0.16365135  0.12726496  1
  O  O163  1  0.18122857  0.15443870  0.62377900  1
  O  O164  1  0.20302350  0.49763994  0.12729469  1
  O  O165  1  0.19715011  0.49549623  0.61876120  1
  O  O166  1  0.18241526  0.83689137  0.13307242  1
  O  O167  1  0.20064545  0.82047385  0.63051375  1
  O  O168  1  0.52023103  0.17153314  0.13338691  1
  O  O169  1  0.54259565  0.15727848  0.62120065  1
  O  O170  1  0.51633856  0.51025230  0.13519797  1
  O  O171  1  0.51550530  0.50341629  0.61371856  1
  O  O172  1  0.53583032  0.82450322  0.12759205  1
  O  O173  1  0.53535425  0.82719642  0.61635981  1
  O  O174  1  0.85209377  0.14718081  0.12791309  1
  O  O175  1  0.85292592  0.15532537  0.62240850  1
  O  O176  1  0.85965251  0.48568411  0.13170682  1
  O  O177  1  0.86469410  0.48476569  0.61495913  1
  O  O178  1  0.84996998  0.84045936  0.11906511  1
  O  O179  1  0.86788471  0.82536877  0.63124132  1
  O  O180  1  0.13170522  0.16738026  0.36933409  1
  O  O181  1  0.12241261  0.17087128  0.87455517  1
  O  O182  1  0.13569156  0.50473169  0.38291561  1
  O  O183  1  0.14583428  0.50446647  0.87574429  1
  O  O184  1  0.15153791  0.83381886  0.37442202  1
  O  O185  1  0.13384110  0.84601401  0.86681444  1
  O  O186  1  0.49091346  0.17339234  0.37287216  1
  O  O187  1  0.47786783  0.17102355  0.87124040  1
  O  O188  1  0.48194795  0.48994705  0.37366121  1
  O  O189  1  0.48179861  0.47722888  0.87512095  1
  O  O190  1  0.47189243  0.84533306  0.38082453  1
  O  O191  1  0.48860777  0.84432868  0.87288660  1
  O  O192  1  0.80803625  0.18014704  0.37542476  1
  O  O193  1  0.81694439  0.18214010  0.87485011  1
  O  O194  1  0.79614255  0.50020404  0.37580454  1
  O  O195  1  0.81723921  0.49480009  0.88390811  1
  O  O196  1  0.79872646  0.84502935  0.37547486  1
  O  O197  1  0.79932683  0.83582247  0.87271411  1
  O  O198  1  0.01289735  0.00945397  0.36990152  1
  O  O199  1  0.02526464  0.00539648  0.87938290  1
  O  O200  1  0.01379485  0.34938414  0.37838575  1
  O  O201  1  0.00978752  0.33795653  0.88235731  1
  O  O202  1  0.01898320  0.65825890  0.38554082  1
  O  O203  1  0.01195604  0.67825649  0.87489987  1
  O  O204  1  0.37110008  0.00730118  0.37524518  1
  O  O205  1  0.35366277  0.01274866  0.87777261  1
  O  O206  1  0.36497245  0.33911305  0.38002480  1
  O  O207  1  0.36676086  0.34149523  0.87356062  1
  O  O208  1  0.35380844  0.68680116  0.37735752  1
  O  O209  1  0.35407754  0.67565075  0.87579512  1
  O  O210  1  0.70290336  0.00555804  0.37911433  1
  O  O211  1  0.68695361  0.00020356  0.86254338  1
  O  O212  1  0.69917264  0.34238321  0.37501974  1
  O  O213  1  0.70492627  0.33087678  0.87333535  1
  O  O214  1  0.69185703  0.67643003  0.37071819  1
  O  O215  1  0.69062208  0.68332630  0.87536650  1
  O  O216  1  0.06682354  0.08805376  0.01617831  1
  O  O217  1  0.06343124  0.09730481  0.50631085  1
  O  O218  1  0.05422521  0.42372264  0.03169051  1
  O  O219  1  0.06431498  0.43446475  0.52344093  1
  O  O220  1  0.07325372  0.76219575  0.00660154  1
  O  O221  1  0.06777553  0.75499484  0.53064909  1
  O  O222  1  0.39459256  0.10194170  0.01565536  1
  O  O223  1  0.41649026  0.08650226  0.53000500  1
  O  O224  1  0.39941878  0.43689269  0.03378121  1
  O  O225  1  0.39892273  0.43301987  0.52073332  1
  O  O226  1  0.41143428  0.75469544  0.02451787  1
  O  O227  1  0.40371347  0.76744441  0.52163427  1
  O  O228  1  0.75157593  0.09134488  0.01798141  1
  O  O229  1  0.73344395  0.09761813  0.52719715  1
  O  O230  1  0.74351459  0.42085733  0.02376363  1
  O  O231  1  0.74270121  0.42756853  0.51935178  1
  O  O232  1  0.73902916  0.77197623  0.02138325  1
  O  O233  1  0.74036106  0.76290166  0.52468319  1
  O  O234  1  0.08386117  0.26553287  0.01873305  1
  O  O235  1  0.08988668  0.27521867  0.52109125  1
  O  O236  1  0.08411354  0.58250551  0.02599309  1
  O  O237  1  0.09474652  0.59542603  0.53222479  1
  O  O238  1  0.08428863  0.92962863  0.01246889  1
  O  O239  1  0.09412562  0.92625968  0.53241550  1
  O  O240  1  0.44027149  0.26956133  0.00222656  1
  O  O241  1  0.42190688  0.26527964  0.50957902  1
  O  O242  1  0.42584906  0.60031061  0.02306873  1
  O  O243  1  0.42372619  0.59123182  0.51705624  1
  O  O244  1  0.42063706  0.93328093  0.01507442  1
  O  O245  1  0.43881200  0.92495884  0.52694831  1
  O  O246  1  0.77299231  0.26381844  0.02294463  1
  O  O247  1  0.76561746  0.26661934  0.52331444  1
  O  O248  1  0.76288762  0.58457294  0.01958143  1
  O  O249  1  0.77434871  0.59204546  0.52238124  1
  O  O250  1  0.76874434  0.93057867  0.02332349  1
  O  O251  1  0.76021782  0.93431173  0.52837221  1
  O  O252  1  0.23759928  0.07967765  0.26465396  1
  O  O253  1  0.22897990  0.06240296  0.76871377  1
  O  O254  1  0.24173963  0.40761665  0.26971699  1
  O  O255  1  0.23145175  0.40206267  0.75292924  1
  O  O256  1  0.24954032  0.75132692  0.27620538  1
  O  O257  1  0.23013812  0.73696324  0.76563136  1
  O  O258  1  0.57021955  0.06594957  0.27391275  1
  O  O259  1  0.57933989  0.06190211  0.75395642  1
  O  O260  1  0.57275849  0.40444982  0.27763040  1
  O  O261  1  0.57825112  0.39318729  0.76804529  1
  O  O262  1  0.57946743  0.73727352  0.27532580  1
  O  O263  1  0.57892248  0.74695726  0.76835665  1
  O  O264  1  0.90117495  0.07030855  0.27557018  1
  O  O265  1  0.90159381  0.07575518  0.76664072  1
  O  O266  1  0.88880407  0.39960495  0.27310776  1
  O  O267  1  0.89274903  0.39113666  0.76115675  1
  O  O268  1  0.90710339  0.74266414  0.26703895  1
  O  O269  1  0.89941518  0.74238272  0.76657811  1
  O  O270  1  0.25221980  0.23506459  0.26453718  1
  O  O271  1  0.26875907  0.22886255  0.77913720  1
  O  O272  1  0.26200125  0.58537600  0.26578103  1
  O  O273  1  0.26071498  0.58113979  0.76231320  1
  O  O274  1  0.25991295  0.90691967  0.27242456  1
  O  O275  1  0.25450574  0.90138356  0.77299928  1
  O  O276  1  0.59660334  0.24511470  0.27343979  1
  O  O277  1  0.60870873  0.23717271  0.75906491  1
  O  O278  1  0.60123714  0.56713295  0.27817990  1
  O  O279  1  0.59015338  0.57163968  0.76329334  1
  O  O280  1  0.60341242  0.90920231  0.28445425  1
  O  O281  1  0.61293219  0.90070056  0.75831697  1
  O  O282  1  0.92272860  0.23304026  0.27881726  1
  O  O283  1  0.92802084  0.23122770  0.77276548  1
  O  O284  1  0.92332422  0.55624169  0.27207822  1
  O  O285  1  0.93595168  0.56386125  0.75602876  1
  O  O286  1  0.92370423  0.91515553  0.26936494  1
  O  O287  1  0.93285616  0.89327688  0.77671552  1
  O  O288  1  0.26030573  0.24964116  0.47896730  1
  O  O289  1  0.26868116  0.22710096  0.98164798  1
  O  O290  1  0.26294109  0.57079648  0.48591762  1
  O  O291  1  0.26465640  0.58192864  0.99043587  1
  O  O292  1  0.27573939  0.89188733  0.47947078  1
  O  O293  1  0.25487912  0.91749458  0.97727691  1
  O  O294  1  0.59635554  0.25023298  0.48320948  1
  O  O295  1  0.60477762  0.24480594  0.97793926  1
  O  O296  1  0.59505834  0.56291094  0.47407901  1
  O  O297  1  0.59065786  0.57235111  0.98558018  1
  O  O298  1  0.60172236  0.90106530  0.47265168  1
  O  O299  1  0.60922244  0.89902637  0.98662524  1
  O  O300  1  0.92750496  0.23868283  0.46916202  1
  O  O301  1  0.92893141  0.23582115  0.97346122  1
  O  O302  1  0.93539896  0.55977946  0.47962385  1
  O  O303  1  0.91954408  0.56474457  0.99773044  1
  O  O304  1  0.92034046  0.91130099  0.47168102  1
  O  O305  1  0.92947223  0.90324267  0.97478651  1
  O  O306  1  0.23709944  0.07236883  0.48781806  1
  O  O307  1  0.23703405  0.06941467  0.96947280  1
  O  O308  1  0.23457392  0.40848497  0.48154314  1
  O  O309  1  0.23593326  0.40079098  0.98657235  1
  O  O310  1  0.23988004  0.73195567  0.49620555  1
  O  O311  1  0.24859862  0.74461676  0.99086461  1
  O  O312  1  0.57274435  0.05963850  0.47780720  1
  O  O313  1  0.57782175  0.07593938  0.99051615  1
  O  O314  1  0.57318368  0.40469005  0.47128810  1
  O  O315  1  0.57966684  0.39605270  0.98116500  1
  O  O316  1  0.57554745  0.74793010  0.47273463  1
  O  O317  1  0.57711068  0.74242780  0.98403778  1
  O  O318  1  0.89290274  0.07395446  0.47531286  1
  O  O319  1  0.90949505  0.07504991  0.97662589  1
  O  O320  1  0.89738688  0.40108755  0.47018259  1
  O  O321  1  0.89359938  0.39342387  0.98573750  1
  O  O322  1  0.90950158  0.73394940  0.48694888  1
  O  O323  1  0.90313922  0.74993499  0.98239144  1
  O  O324  1  0.08907476  0.25145434  0.23441918  1
  O  O325  1  0.09845740  0.27177007  0.72020288  1
  O  O326  1  0.08441101  0.58451446  0.23301160  1
  O  O327  1  0.09596353  0.59996438  0.71544189  1
  O  O328  1  0.08978542  0.92560358  0.23315704  1
  O  O329  1  0.10079385  0.92500209  0.71992597  1
  O  O330  1  0.43956666  0.26407940  0.25149901  1
  O  O331  1  0.43271254  0.26471588  0.73038206  1
  O  O332  1  0.43099037  0.59868660  0.22700873  1
  O  O333  1  0.41637166  0.59886139  0.73563858  1
  O  O334  1  0.42997893  0.92708573  0.23714206  1
  O  O335  1  0.42665577  0.92442038  0.71319461  1
  O  O336  1  0.76762390  0.26480356  0.23079376  1
  O  O337  1  0.76886363  0.26301707  0.72279033  1
  O  O338  1  0.75927378  0.59174656  0.23348751  1
  O  O339  1  0.76979275  0.59782332  0.72623206  1
  O  O340  1  0.76458875  0.93722280  0.23500217  1
  O  O341  1  0.77037764  0.93160933  0.71977852  1
  O  O342  1  0.06848879  0.09248127  0.23498956  1
  O  O343  1  0.07102471  0.08697247  0.72879178  1
  O  O344  1  0.06100342  0.42933158  0.23306033  1
  O  O345  1  0.06520372  0.43310731  0.71419116  1
  O  O346  1  0.08353060  0.75876963  0.24161117  1
  O  O347  1  0.07318485  0.76776249  0.72211390  1
  O  O348  1  0.40877164  0.10735903  0.22839819  1
  O  O349  1  0.41422309  0.08656282  0.72308882  1
  O  O350  1  0.40695319  0.43797622  0.22942657  1
  O  O351  1  0.39910237  0.43547916  0.71719023  1
  O  O352  1  0.41306907  0.75420481  0.23130404  1
  O  O353  1  0.39524445  0.76227293  0.72516801  1
  O  O354  1  0.74125513  0.09074345  0.22919650  1
  O  O355  1  0.73779183  0.09601212  0.71885304  1
  O  O356  1  0.73566087  0.42585138  0.23318488  1
  O  O357  1  0.73878459  0.42168896  0.72974147  1
  O  O358  1  0.72671468  0.76299055  0.22833636  1
  O  O359  1  0.74384728  0.77060825  0.72093511  1
