# generated using pymatgen
data_BaLaInIrO6
_symmetry_space_group_name_H-M   'P 1'
_cell_length_a   17.54083752
_cell_length_b   17.57768768
_cell_length_c   16.51756653
_cell_angle_alpha   89.98876888
_cell_angle_beta   90.02488622
_cell_angle_gamma   89.97351259
_symmetry_Int_Tables_number   1
_chemical_formula_structural   BaLaInIrO6
_chemical_formula_sum   'Ba36 La36 In36 Ir36 O216'
_cell_volume   5092.81661805
_cell_formula_units_Z   36
loop_
 _symmetry_equiv_pos_site_id
 _symmetry_equiv_pos_as_xyz
  1  'x, y, z'
loop_
 _atom_site_type_symbol
 _atom_site_label
 _atom_site_symmetry_multiplicity
 _atom_site_fract_x
 _atom_site_fract_y
 _atom_site_fract_z
 _atom_site_occupancy
  Ba  Ba0  1  1.00485942  0.83955073  0.62313306  1
  Ba  Ba1  1  0.83394574  0.99315557  0.37670482  1
  Ba  Ba2  1  0.49918328  0.67702172  0.12510351  1
  Ba  Ba3  1  0.49581671  0.67781798  0.61956557  1
  Ba  Ba4  1  0.16127230  0.34178890  0.62222031  1
  Ba  Ba5  1  0.16371964  0.32715338  0.87354499  1
  Ba  Ba6  1  0.67151549  0.17618381  0.62744759  1
  Ba  Ba7  1  0.99827549  0.17767079  0.12760262  1
  Ba  Ba8  1  0.67174401  0.17364875  0.11946835  1
  Ba  Ba9  1  0.33692357  0.84441865  0.12440875  1
  Ba  Ba10  1  -0.00053427  0.82292832  0.87636321  1
  Ba  Ba11  1  0.50158401  0.00772486  0.12278965  1
  Ba  Ba12  1  0.66500246  0.49105551  0.37942051  1
  Ba  Ba13  1  0.33080335  0.82549775  0.37458172  1
  Ba  Ba14  1  0.50096710  0.99176304  0.87098530  1
  Ba  Ba15  1  0.16860226  0.99219767  0.87282682  1
  Ba  Ba16  1  0.16879248  0.67953273  0.62862037  1
  Ba  Ba17  1  -0.00427863  0.49529592  0.37483100  1
  Ba  Ba18  1  0.16772448  0.34175065  0.12668241  1
  Ba  Ba19  1  0.83574964  0.65568506  0.87761924  1
  Ba  Ba20  1  0.50075891  0.65720079  0.87256090  1
  Ba  Ba21  1  0.66597406  0.83741090  0.12091436  1
  Ba  Ba22  1  0.66964234  0.15410678  0.86984248  1
  Ba  Ba23  1  0.33354370  0.15716630  0.38212088  1
  Ba  Ba24  1  0.83366500  0.67569179  0.61902016  1
  Ba  Ba25  1  0.83378181  0.66011876  0.37545104  1
  Ba  Ba26  1  0.33116792  0.49348604  0.87112788  1
  Ba  Ba27  1  0.50121261  0.32557830  0.37587608  1
  Ba  Ba28  1  0.33315744  0.17449906  0.62690715  1
  Ba  Ba29  1  0.66537397  0.82168164  0.87454662  1
  Ba  Ba30  1  0.16883049  0.66004731  0.87285802  1
  Ba  Ba31  1  1.00034075  0.17212768  0.62367936  1
  Ba  Ba32  1  0.83293511  0.67431319  0.12809780  1
  Ba  Ba33  1  0.66550499  0.50742630  0.13059340  1
  Ba  Ba34  1  0.32939090  0.49011221  0.37878003  1
  Ba  Ba35  1  -0.00183720  0.82432510  0.37856803  1
  La  La36  1  0.33652729  0.84793497  0.62442258  1
  La  La37  1  0.34216865  0.51407433  0.12234192  1
  La  La38  1  0.16892036  0.98499802  0.37826743  1
  La  La39  1  1.00493187  0.85214873  0.12746622  1
  La  La40  1  0.83816531  0.31847848  0.87635941  1
  La  La41  1  0.50582880  0.32276816  0.87548940  1
  La  La42  1  0.49939323  0.01425736  0.62568921  1
  La  La43  1  0.49533879  0.34226647  0.12704026  1
  La  La44  1  0.17233922  0.31585285  0.37791342  1
  La  La45  1  0.49347064  0.34726501  0.62420358  1
  La  La46  1  0.66798081  0.51190047  0.62868940  1
  La  La47  1  1.00221459  0.51676396  0.12504117  1
  La  La48  1  0.16179595  0.01293669  0.62124167  1
  La  La49  1  -0.00966920  0.14889111  0.87849905  1
  La  La50  1  0.33540138  0.51890868  0.62597661  1
  La  La51  1  0.33159134  0.17133991  0.12706112  1
  La  La52  1  -0.00355580  0.15382866  0.37452664  1
  La  La53  1  0.17208582  0.65275441  0.38305413  1
  La  La54  1  1.00634328  0.52068184  0.62482370  1
  La  La55  1  0.82584743  0.00921828  0.12066066  1
  La  La56  1  0.82928796  0.34659329  0.62812746  1
  La  La57  1  0.83835413  0.98249127  0.87561526  1
  La  La58  1  0.82992118  0.34998173  0.12447864  1
  La  La59  1  0.16188475  0.68449644  0.12764343  1
  La  La60  1  0.66377448  0.49226631  0.87608046  1
  La  La61  1  0.66006775  0.15012525  0.37460749  1
  La  La62  1  0.66278222  0.81608046  0.37508844  1
  La  La63  1  0.83256596  0.01245185  0.62395682  1
  La  La64  1  0.16581773  0.01612053  0.12449237  1
  La  La65  1  0.33400148  0.15804828  0.87221068  1
  La  La66  1  0.32887981  0.81809075  0.87735699  1
  La  La67  1  0.67220409  0.84761740  0.62604811  1
  La  La68  1  0.00485365  0.49776953  0.87528261  1
  La  La69  1  0.50424096  0.64985248  0.37053160  1
  La  La70  1  0.83330807  0.31994644  0.37054227  1
  La  La71  1  0.50253215  0.98716803  0.37576898  1
  In  In72  1  0.49748479  0.49740253  0.50034698  1
  In  In73  1  0.66690733  0.32934259  0.24939378  1
  In  In74  1  0.33312319  0.00329001  0.25471488  1
  In  In75  1  0.66765080  0.66713300  0.74800245  1
  In  In76  1  0.66726354  0.66335757  -0.00031129  1
  In  In77  1  0.33446419  0.33269199  -0.00251324  1
  In  In78  1  -0.00018770  0.33703347  0.00217111  1
  In  In79  1  0.49988291  0.49723262  -0.00195166  1
  In  In80  1  0.32912465  0.66667049  0.00177215  1
  In  In81  1  0.50239235  0.16981080  0.74766614  1
  In  In82  1  0.50151919  0.16895612  0.49990144  1
  In  In83  1  0.83463354  0.49729750  0.75134903  1
  In  In84  1  0.33364534  0.00043648  0.74870489  1
  In  In85  1  0.00160050  0.66959795  0.25235407  1
  In  In86  1  0.32999783  0.00268707  0.00113384  1
  In  In87  1  0.16354658  0.16902834  0.75050358  1
  In  In88  1  0.16777042  0.50023254  0.74707511  1
  In  In89  1  0.50059063  0.17062049  0.00026273  1
  In  In90  1  -0.00465615  0.33451376  0.74728536  1
  In  In91  1  0.83140996  0.16747018  0.49862507  1
  In  In92  1  0.16688061  0.50064139  0.24945003  1
  In  In93  1  0.00066508  0.66984156  0.75151798  1
  In  In94  1  0.00091659  -0.00394558  0.74713228  1
  In  In95  1  0.83544067  0.83516888  0.25232279  1
  In  In96  1  0.83422286  0.49736404  0.50015034  1
  In  In97  1  0.49958592  0.83374258  0.25249892  1
  In  In98  1  0.83756786  0.83101194  0.00218059  1
  In  In99  1  0.66371325  0.66757172  0.50204580  1
  In  In100  1  0.16363345  0.16817591  -0.00210919  1
  In  In101  1  -0.00242350  0.33337207  0.49610543  1
  In  In102  1  0.66748953  -0.00030646  -0.00509847  1
  In  In103  1  0.49827735  0.83449571  -0.00343525  1
  In  In104  1  0.00092716  0.33656646  0.25065052  1
  In  In105  1  0.32939747  0.66778097  0.25424541  1
  In  In106  1  0.33148218  0.33055138  0.25313540  1
  In  In107  1  0.66798500  -0.00339372  0.25030848  1
  Ir  Ir108  1  0.66570325  -0.00412340  0.50114099  1
  Ir  Ir109  1  0.17396646  0.83374497  0.74971924  1
  Ir  Ir110  1  0.33712267  0.33672205  0.74604359  1
  Ir  Ir111  1  0.00499829  0.66957742  0.50029942  1
  Ir  Ir112  1  0.83254266  0.16401841  0.75385982  1
  Ir  Ir113  1  0.66547161  0.66385512  0.25383471  1
  Ir  Ir114  1  0.83307405  0.83591317  0.74393824  1
  Ir  Ir115  1  0.83166576  0.83831289  0.50407453  1
  Ir  Ir116  1  0.16403549  0.16266403  0.25572816  1
  Ir  Ir117  1  0.16811643  0.50203759  0.00353836  1
  Ir  Ir118  1  0.66744658  0.33159279  0.50595091  1
  Ir  Ir119  1  0.49855705  0.49713665  0.24841836  1
  Ir  Ir120  1  0.49976813  0.83691006  0.50242405  1
  Ir  Ir121  1  0.50034164  0.49426078  0.74819818  1
  Ir  Ir122  1  0.50130938  0.16764542  0.25184925  1
  Ir  Ir123  1  -0.00192935  0.00024746  0.00425107  1
  Ir  Ir124  1  0.83242371  0.49503742  0.00175048  1
  Ir  Ir125  1  0.16574412  0.50277544  0.50179772  1
  Ir  Ir126  1  0.16227544  0.83750501  0.24957248  1
  Ir  Ir127  1  0.00308691  0.66313081  0.00276258  1
  Ir  Ir128  1  0.33729120  0.67009176  0.74481836  1
  Ir  Ir129  1  0.50011865  0.83494753  0.74137130  1
  Ir  Ir130  1  0.16976238  0.83507568  0.49987504  1
  Ir  Ir131  1  0.67178338  0.33438835  -0.00551059  1
  Ir  Ir132  1  0.33422158  0.67123438  0.50228978  1
  Ir  Ir133  1  0.16506632  0.16237405  0.49655823  1
  Ir  Ir134  1  0.83390545  0.16694987  0.24999750  1
  Ir  Ir135  1  0.00104307  -0.00136016  0.49719753  1
  Ir  Ir136  1  0.00260835  0.00443696  0.25019866  1
  Ir  Ir137  1  0.83642036  0.16644201  -0.00036097  1
  Ir  Ir138  1  0.83166779  0.49812517  0.24935494  1
  Ir  Ir139  1  0.66626154  0.33473988  0.74874150  1
  Ir  Ir140  1  0.32836372  0.33456186  0.50588692  1
  Ir  Ir141  1  0.16321103  0.83343988  0.00139460  1
  Ir  Ir142  1  0.67045627  -0.00412801  0.74364631  1
  Ir  Ir143  1  0.33224185  -0.00256664  0.50319952  1
  O  O144  1  0.31729651  0.30731524  0.12650405  1
  O  O145  1  0.30916237  0.33152741  0.62604747  1
  O  O146  1  0.29881724  0.65497268  0.12817113  1
  O  O147  1  0.31610953  0.66239094  0.62328636  1
  O  O148  1  0.30240777  1.00444870  0.13069427  1
  O  O149  1  0.29865432  0.98851587  0.62112470  1
  O  O150  1  0.63832215  0.33046250  0.11537625  1
  O  O151  1  0.63131749  0.32721263  0.62801051  1
  O  O152  1  0.64931922  0.66439455  0.13467260  1
  O  O153  1  0.64226372  0.65272347  0.62556715  1
  O  O154  1  0.65633514  1.00080740  0.12428714  1
  O  O155  1  0.63661407  0.98637223  0.62179752  1
  O  O156  1  0.96431181  0.33110703  0.12651317  1
  O  O157  1  0.96342537  0.32315636  0.61997973  1
  O  O158  1  0.98328609  0.65748995  0.12094744  1
  O  O159  1  0.98485340  0.66602225  0.62092838  1
  O  O160  1  0.96649304  0.99445358  0.12758201  1
  O  O161  1  0.96996842  0.99737452  0.61753981  1
  O  O162  1  0.19342168  0.15587811  0.13536827  1
  O  O163  1  0.18543871  0.15331478  0.61552867  1
  O  O164  1  0.20425254  0.49829532  0.12119993  1
  O  O165  1  0.19847984  0.49896585  0.61820342  1
  O  O166  1  0.18666749  0.82401256  0.12597819  1
  O  O167  1  0.20196264  0.83202843  0.62504032  1
  O  O168  1  0.51926772  0.17270304  0.13381138  1
  O  O169  1  0.52305644  0.15662771  0.62238374  1
  O  O170  1  0.51713574  0.48618336  0.12969352  1
  O  O171  1  0.52932700  0.48843306  0.62891845  1
  O  O172  1  0.51615407  0.83350260  0.12694717  1
  O  O173  1  0.53420004  0.83156882  0.62032673  1
  O  O174  1  0.85395711  0.14621832  0.12554701  1
  O  O175  1  0.84996997  0.15317877  0.63089410  1
  O  O176  1  0.86343297  0.48726908  0.12478335  1
  O  O177  1  0.87130310  0.48355170  0.62379424  1
  O  O178  1  0.86994895  0.83425487  0.12647959  1
  O  O179  1  0.85589541  0.83759694  0.62393132  1
  O  O180  1  0.13375745  0.17174183  0.37582684  1
  O  O181  1  0.12547262  0.16589130  0.87490956  1
  O  O182  1  0.14350662  0.51300530  0.38376762  1
  O  O183  1  0.13947910  0.50307643  0.88146564  1
  O  O184  1  0.14295029  0.85024893  0.37532457  1
  O  O185  1  0.14610001  0.83560582  0.87400115  1
  O  O186  1  0.48454108  0.16550623  0.37221022  1
  O  O187  1  0.46887013  0.18224717  0.87070585  1
  O  O188  1  0.48003449  0.50271639  0.36936925  1
  O  O189  1  0.48020896  0.49276317  0.86655066  1
  O  O190  1  0.47788520  0.85046613  0.38595820  1
  O  O191  1  0.46580940  0.83840341  0.85793790  1
  O  O192  1  0.79729486  0.17846072  0.36929983  1
  O  O193  1  0.81388552  0.18120427  0.87739602  1
  O  O194  1  0.81381330  0.50433799  0.36867856  1
  O  O195  1  0.80240141  0.49848467  0.88202857  1
  O  O196  1  0.80125456  0.83892753  0.38483779  1
  O  O197  1  0.81707810  0.84353350  0.86482913  1
  O  O198  1  0.03413221  0.01181540  0.37261971  1
  O  O199  1  0.01706159  0.00722594  0.88190967  1
  O  O200  1  0.03797753  0.34335220  0.37419523  1
  O  O201  1  0.01314696  0.35993636  0.87592511  1
  O  O202  1  0.03360977  0.66566173  0.38034048  1
  O  O203  1  0.01865242  0.65950976  0.88278293  1
  O  O204  1  0.36353851  0.00176694  0.38498363  1
  O  O205  1  0.34953376  0.02032854  0.87452953  1
  O  O206  1  0.34842758  0.33135382  0.38610518  1
  O  O207  1  0.36778562  0.34011133  0.86439016  1
  O  O208  1  0.36598979  0.67062322  0.38477857  1
  O  O209  1  0.34954484  0.67542278  0.86583764  1
  O  O210  1  0.68453162  0.01071505  0.38175202  1
  O  O211  1  0.70296412  -0.00217707  0.86171341  1
  O  O212  1  0.69638527  0.33577358  0.38395368  1
  O  O213  1  0.70250337  0.34826620  0.87069301  1
  O  O214  1  0.68298501  0.67154279  0.37383087  1
  O  O215  1  0.68437418  0.65486668  0.87104997  1
  O  O216  1  0.06650546  0.08742994  0.02480060  1
  O  O217  1  0.07665292  0.08553252  0.51925528  1
  O  O218  1  0.07101339  0.44147379  0.02383865  1
  O  O219  1  0.07092509  0.43873514  0.52578705  1
  O  O220  1  0.06753956  0.76131023  0.02944818  1
  O  O221  1  0.08002492  0.76250931  0.51573835  1
  O  O222  1  0.39360834  0.11151903  0.01790034  1
  O  O223  1  0.40687158  0.08308007  0.52427100  1
  O  O224  1  0.40356390  0.42805618  0.02994121  1
  O  O225  1  0.39986214  0.42496658  0.52925047  1
  O  O226  1  0.39624161  0.76493935  0.00097167  1
  O  O227  1  0.40147815  0.77047929  0.52500250  1
  O  O228  1  0.75002353  0.09417625  0.01218766  1
  O  O229  1  0.73915696  0.08545638  0.51797805  1
  O  O230  1  0.74063924  0.42609039  0.02366004  1
  O  O231  1  0.73168182  0.42286556  0.53501328  1
  O  O232  1  0.74604080  0.75535868  0.01221428  1
  O  O233  1  0.73548973  0.77111200  0.52083500  1
  O  O234  1  0.09303312  0.26271749  0.01922377  1
  O  O235  1  0.09478188  0.25238204  0.51080568  1
  O  O236  1  0.09985608  0.59637444  0.03046031  1
  O  O237  1  0.09683908  0.59693042  0.52392812  1
  O  O238  1  0.09109830  0.92984258  0.03231278  1
  O  O239  1  0.10094891  0.93150118  0.52063234  1
  O  O240  1  0.44640242  0.27831266  0.01254642  1
  O  O241  1  0.42559432  0.26768288  0.52428498  1
  O  O242  1  0.42061187  0.58808739  0.01999960  1
  O  O243  1  0.41443141  0.58877498  0.52120066  1
  O  O244  1  0.42376607  0.93060649  0.01274249  1
  O  O245  1  0.42910664  0.93008883  0.53194044  1
  O  O246  1  0.77158810  0.26682018  0.02074378  1
  O  O247  1  0.76353185  0.26898606  0.52454762  1
  O  O248  1  0.76755772  0.58484619  0.01982944  1
  O  O249  1  0.75124284  0.58313475  0.51860823  1
  O  O250  1  0.77304800  0.93517065  0.00984362  1
  O  O251  1  0.76172351  0.92982167  0.53130238  1
  O  O252  1  0.22886318  0.06949311  0.27929756  1
  O  O253  1  0.24672278  0.08399051  0.76397913  1
  O  O254  1  0.23267979  0.39906805  0.27653651  1
  O  O255  1  0.24515844  0.40469700  0.76405839  1
  O  O256  1  0.22203858  0.74052653  0.27270884  1
  O  O257  1  0.24959512  0.74498126  0.77366042  1
  O  O258  1  0.56710215  0.07171525  0.27531684  1
  O  O259  1  0.58196566  0.06754381  0.75847743  1
  O  O260  1  0.57239519  0.40762100  0.26404023  1
  O  O261  1  0.56852070  0.39996609  0.77213310  1
  O  O262  1  0.57406513  0.73283785  0.27956717  1
  O  O263  1  0.56742396  0.74474924  0.76122355  1
  O  O264  1  0.91461762  0.08068464  0.27962168  1
  O  O265  1  0.90009399  0.07136849  0.77674273  1
  O  O266  1  0.89463229  0.40273303  0.27048103  1
  O  O267  1  0.88604597  0.38887579  0.76526042  1
  O  O268  1  0.90897949  0.74229607  0.27007867  1
  O  O269  1  0.90173600  0.74446157  0.76187141  1
  O  O270  1  0.25309717  0.23258751  0.27381606  1
  O  O271  1  0.27172030  0.24373509  0.77226996  1
  O  O272  1  0.25247292  0.58085760  0.28319306  1
  O  O273  1  0.26678035  0.57765429  0.75501326  1
  O  O274  1  0.25013182  0.90878527  0.26996116  1
  O  O275  1  0.26904151  0.89733155  0.76789550  1
  O  O276  1  0.60031133  0.22858431  0.27390433  1
  O  O277  1  0.59570240  0.24806478  0.77375037  1
  O  O278  1  0.58710579  0.57486012  0.27473121  1
  O  O279  1  0.59558900  0.55631944  0.76758502  1
  O  O280  1  0.59945563  0.90109508  0.28404772  1
  O  O281  1  0.59888858  0.90104953  0.75844079  1
  O  O282  1  0.92340131  0.23709447  0.27815327  1
  O  O283  1  0.92469381  0.22968754  0.78055716  1
  O  O284  1  0.92281387  0.56820691  0.25499240  1
  O  O285  1  0.93430241  0.56498074  0.77008091  1
  O  O286  1  0.93589839  0.91547805  0.26827708  1
  O  O287  1  0.92134484  0.90822204  0.76733952  1
  O  O288  1  0.25171809  0.24173479  0.47779409  1
  O  O289  1  0.26960890  0.23117581  0.97386740  1
  O  O290  1  0.25864909  0.58039560  0.47969483  1
  O  O291  1  0.25602198  0.56918138  0.98198770  1
  O  O292  1  0.25830802  0.90837604  0.47956373  1
  O  O293  1  0.25694243  0.89670587  0.97676851  1
  O  O294  1  0.60607132  0.23535842  0.47710322  1
  O  O295  1  0.60326731  0.24878507  0.97045114  1
  O  O296  1  0.57799962  0.58276476  0.47732713  1
  O  O297  1  0.59959671  0.56194571  0.98185993  1
  O  O298  1  0.59861639  0.90046020  0.47773989  1
  O  O299  1  0.59400405  0.90734956  0.97703403  1
  O  O300  1  0.92576081  0.23577465  0.46244429  1
  O  O301  1  0.92834259  0.23371876  0.97490154  1
  O  O302  1  0.93288756  0.58022006  0.49165003  1
  O  O303  1  0.93604391  0.55953420  0.98459346  1
  O  O304  1  0.92620091  0.91052397  0.48139940  1
  O  O305  1  0.93084233  0.91160693  0.98185552  1
  O  O306  1  0.23467232  0.06339316  0.47815110  1
  O  O307  1  0.22570631  0.06560518  0.99614914  1
  O  O308  1  0.23045578  0.40357201  0.47827922  1
  O  O309  1  0.23506407  0.40998779  0.98325093  1
  O  O310  1  0.23851667  0.73976151  0.47601712  1
  O  O311  1  0.22908388  0.74114922  0.98864298  1
  O  O312  1  0.57159269  0.06229087  0.48045563  1
  O  O313  1  0.57625079  0.08014729  0.98113817  1
  O  O314  1  0.57428333  0.39836304  0.49166351  1
  O  O315  1  0.58018394  0.40169736  0.96771877  1
  O  O316  1  0.56550663  0.74554843  0.47054761  1
  O  O317  1  0.57088147  0.73644323  0.98528875  1
  O  O318  1  0.91467417  0.07498916  0.47979765  1
  O  O319  1  0.90306765  0.06873112  0.97452591  1
  O  O320  1  0.89430985  0.39653043  0.47065191  1
  O  O321  1  0.89225091  0.40009445  0.98362219  1
  O  O322  1  0.90859346  0.74245975  0.48290530  1
  O  O323  1  0.91504622  0.73344935  0.98406922  1
  O  O324  1  0.09638523  0.25418545  0.23774705  1
  O  O325  1  0.08983803  0.26103906  0.73174496  1
  O  O326  1  0.09614974  0.59969622  0.22319797  1
  O  O327  1  0.09153195  0.59211417  0.73072517  1
  O  O328  1  0.09511354  0.93418193  0.22136890  1
  O  O329  1  0.10516207  0.92457459  0.72475003  1
  O  O330  1  0.43781192  0.26407855  0.23455711  1
  O  O331  1  0.43177811  0.27258456  0.72463727  1
  O  O332  1  0.42351958  0.58366473  0.23141624  1
  O  O333  1  0.42664132  0.58719048  0.72134896  1
  O  O334  1  0.43262488  0.93673943  0.24775529  1
  O  O335  1  0.43274276  0.92531474  0.71450310  1
  O  O336  1  0.76994027  0.26102120  0.22350247  1
  O  O337  1  0.76461678  0.26644618  0.72982698  1
  O  O338  1  0.75920877  0.59157563  0.23314718  1
  O  O339  1  0.75725430  0.58448695  0.72224263  1
  O  O340  1  0.77019560  0.93292008  0.22736760  1
  O  O341  1  0.76503418  0.92920075  0.71766141  1
  O  O342  1  0.07523993  0.09188696  0.22910462  1
  O  O343  1  0.07818473  0.08244046  0.72461642  1
  O  O344  1  0.06571915  0.43701277  0.22202522  1
  O  O345  1  0.06344673  0.43616698  0.72592549  1
  O  O346  1  0.07103987  0.77153809  0.22384033  1
  O  O347  1  0.08264702  0.76391095  0.73926573  1
  O  O348  1  0.40262281  0.10810147  0.23225475  1
  O  O349  1  0.41710455  0.08586149  0.72597045  1
  O  O350  1  0.40725302  0.42691854  0.22459237  1
  O  O351  1  0.40439967  0.43013522  0.71606581  1
  O  O352  1  0.40585399  0.75722992  0.23941081  1
  O  O353  1  0.40289531  0.77054781  0.72207326  1
  O  O354  1  0.74514885  0.09679484  0.23889189  1
  O  O355  1  0.74495444  0.08364952  0.72239376  1
  O  O356  1  0.74616527  0.42276845  0.23225042  1
  O  O357  1  0.72969707  0.42589632  0.72167113  1
  O  O358  1  0.73255384  0.75806562  0.24472036  1
  O  O359  1  0.73954128  0.76914944  0.72319733  1
