# generated using pymatgen
data_BaLaInIrO6
_symmetry_space_group_name_H-M   'P 1'
_cell_length_a   17.51272918
_cell_length_b   17.56091143
_cell_length_c   16.48430322
_cell_angle_alpha   89.94466095
_cell_angle_beta   89.99882169
_cell_angle_gamma   89.91979358
_symmetry_Int_Tables_number   1
_chemical_formula_structural   BaLaInIrO6
_chemical_formula_sum   'Ba36 La36 In36 Ir36 O216'
_cell_volume   5069.56680999
_cell_formula_units_Z   36
loop_
 _symmetry_equiv_pos_site_id
 _symmetry_equiv_pos_as_xyz
  1  'x, y, z'
loop_
 _atom_site_type_symbol
 _atom_site_label
 _atom_site_symmetry_multiplicity
 _atom_site_fract_x
 _atom_site_fract_y
 _atom_site_fract_z
 _atom_site_occupancy
  Ba  Ba0  1  0.99950411  0.17514842  0.62449707  1
  Ba  Ba1  1  0.33340668  0.49262284  0.37639382  1
  Ba  Ba2  1  0.99905001  0.83937990  0.12573138  1
  Ba  Ba3  1  0.83667525  0.99203987  0.86888257  1
  Ba  Ba4  1  0.49858335  0.67766344  0.12680085  1
  Ba  Ba5  1  0.16264220  0.67902315  0.62464418  1
  Ba  Ba6  1  0.49811882  0.31814702  0.87232526  1
  Ba  Ba7  1  0.66083973  0.82574983  0.87814796  1
  Ba  Ba8  1  0.16972090  0.99073297  0.87099543  1
  Ba  Ba9  1  0.33428132  0.82731832  0.87534582  1
  Ba  Ba10  1  0.32975776  0.15803155  0.87348878  1
  Ba  Ba11  1  0.50104114  0.00677113  0.12350189  1
  Ba  Ba12  1  0.16848310  0.33831692  0.12665544  1
  Ba  Ba13  1  0.66312995  0.82236764  0.37736122  1
  Ba  Ba14  1  0.33172400  0.48615566  0.87544833  1
  Ba  Ba15  1  0.17524990  0.99074014  0.37583484  1
  Ba  Ba16  1  0.50215275  0.65754431  0.37427553  1
  Ba  Ba17  1  1.00218977  0.84228184  0.61916069  1
  Ba  Ba18  1  0.99897612  0.50847427  0.62644525  1
  Ba  Ba19  1  0.66075080  0.15543120  0.87109651  1
  Ba  Ba20  1  0.66391862  0.15780999  0.37567298  1
  Ba  Ba21  1  0.00118652  0.49397899  0.87328314  1
  Ba  Ba22  1  0.83736433  0.65522735  0.37393026  1
  Ba  Ba23  1  0.00192014  0.15908599  0.37490493  1
  Ba  Ba24  1  0.66701894  0.17520371  0.61927172  1
  Ba  Ba25  1  0.16709809  0.66115292  0.37460479  1
  Ba  Ba26  1  0.33378789  0.15749216  0.37721077  1
  Ba  Ba27  1  0.66840798  0.84313955  0.12907998  1
  Ba  Ba28  1  0.50177535  0.33712868  0.62604263  1
  Ba  Ba29  1  0.33401539  0.50832330  0.62892719  1
  Ba  Ba30  1  0.50277652  0.99251606  0.37353177  1
  Ba  Ba31  1  0.16750649  0.32592237  0.87783835  1
  Ba  Ba32  1  0.33492867  0.17388083  0.12555647  1
  Ba  Ba33  1  0.82991176  0.65861922  0.87953725  1
  Ba  Ba34  1  0.49540246  0.33952504  0.12207270  1
  Ba  Ba35  1  0.99974006  0.50733129  0.12489606  1
  La  La36  1  0.16828964  0.01506128  0.12169520  1
  La  La37  1  0.17126603  0.32470998  0.38115366  1
  La  La38  1  0.33422169  0.18190145  0.62654367  1
  La  La39  1  0.49630491  0.01818384  0.62432059  1
  La  La40  1  0.49391765  0.68084803  0.62714398  1
  La  La41  1  0.16281864  0.01562157  0.62077422  1
  La  La42  1  -0.00488543  0.81549651  0.87005419  1
  La  La43  1  0.50747088  0.64799270  0.87710121  1
  La  La44  1  0.67005431  0.85161945  0.62635991  1
  La  La45  1  0.34167622  0.85080671  0.12708165  1
  La  La46  1  0.66380313  0.17785301  0.12675171  1
  La  La47  1  0.82675391  0.01686618  0.12273984  1
  La  La48  1  0.65886136  0.48458782  0.87551057  1
  La  La49  1  0.82633982  0.34838698  0.12773720  1
  La  La50  1  0.16553388  0.67817918  0.12235765  1
  La  La51  1  0.66939856  0.51533497  0.12529720  1
  La  La52  1  1.00725276  0.17761460  0.12233894  1
  La  La53  1  0.50160493  0.31935029  0.37837163  1
  La  La54  1  0.82878509  0.68329986  0.62915277  1
  La  La55  1  0.84183366  0.98937006  0.37377799  1
  La  La56  1  0.82184106  0.68176216  0.12486735  1
  La  La57  1  -0.00389455  0.15428875  0.87680611  1
  La  La58  1  0.33231812  0.85286345  0.62474903  1
  La  La59  1  0.32967992  0.82113291  0.37593315  1
  La  La60  1  0.82425873  0.35019107  0.62047353  1
  La  La61  1  0.33799199  0.51296053  0.12347329  1
  La  La62  1  0.83089827  0.01428118  0.62262101  1
  La  La63  1  0.65823784  0.48410314  0.37440782  1
  La  La64  1  0.83587755  0.31873681  0.37608673  1
  La  La65  1  0.17069703  0.65708343  0.87609516  1
  La  La66  1  0.00059704  0.81674882  0.37548005  1
  La  La67  1  0.16316560  0.34530100  0.62853307  1
  La  La68  1  0.49941061  0.99586952  0.88082679  1
  La  La69  1  0.67173459  0.51311616  0.62306616  1
  La  La70  1  0.84049826  0.32051808  0.87209360  1
  La  La71  1  -0.00207842  0.48248834  0.37729488  1
  In  In72  1  0.49980825  0.16648033  0.24877857  1
  In  In73  1  0.16763569  0.16597076  0.25201692  1
  In  In74  1  0.83610736  0.83623277  -0.00376148  1
  In  In75  1  0.49861516  0.83447522  0.74887362  1
  In  In76  1  0.49908658  0.83150078  -0.00077331  1
  In  In77  1  0.66352260  0.66767733  0.74974953  1
  In  In78  1  0.33383807  0.66799482  0.25070699  1
  In  In79  1  0.83153636  0.83454365  0.50010888  1
  In  In80  1  0.66649004  0.00097973  0.49696807  1
  In  In81  1  0.50072602  0.49740408  0.74971488  1
  In  In82  1  0.16947540  0.83527248  0.00038806  1
  In  In83  1  -0.00261016  0.66374922  0.50150424  1
  In  In84  1  0.50000644  0.49587013  0.24888906  1
  In  In85  1  0.50043089  0.83362426  0.50166593  1
  In  In86  1  0.83471886  0.16714132  0.49837568  1
  In  In87  1  -0.00101221  0.66395164  0.24734401  1
  In  In88  1  0.66905037  0.00236261  -0.00098862  1
  In  In89  1  0.49939487  0.49977843  0.50268291  1
  In  In90  1  0.16871422  0.49932737  0.00364977  1
  In  In91  1  0.66755940  0.33190927  0.00009879  1
  In  In92  1  -0.00470046  0.33441990  -0.00004418  1
  In  In93  1  0.66833845  0.33274636  0.74897184  1
  In  In94  1  0.00174012  -0.00186837  0.00118039  1
  In  In95  1  0.83473218  0.16679777  0.24873958  1
  In  In96  1  0.16435288  0.16790601  0.75001439  1
  In  In97  1  0.83457552  0.83648056  0.25111977  1
  In  In98  1  0.16910649  0.83703186  0.24728153  1
  In  In99  1  0.16682690  0.50021639  0.24985441  1
  In  In100  1  0.83281066  0.16798079  0.74972678  1
  In  In101  1  0.16736130  0.50245247  0.50094389  1
  In  In102  1  0.16695852  0.50269679  0.75011954  1
  In  In103  1  0.66669196  0.66504472  0.25500218  1
  In  In104  1  -0.00208093  0.66497921  0.00331512  1
  In  In105  1  0.00199068  -0.00291631  0.74631092  1
  In  In106  1  0.83235773  0.50373347  0.75131431  1
  In  In107  1  -0.00231861  0.33257370  0.24955660  1
  Ir  Ir108  1  0.33478494  -0.00140221  0.25272465  1
  Ir  Ir109  1  0.82634297  0.49828799  0.00329267  1
  Ir  Ir110  1  0.16856536  0.16878654  0.50233235  1
  Ir  Ir111  1  0.49861057  0.83782907  0.25097080  1
  Ir  Ir112  1  0.33178970  0.32932375  0.74909793  1
  Ir  Ir113  1  0.33159854  0.33058420  0.50014000  1
  Ir  Ir114  1  0.66491766  -0.00225826  0.74670613  1
  Ir  Ir115  1  0.49973642  0.49919622  0.00074599  1
  Ir  Ir116  1  -0.00016482  0.33347364  0.50362790  1
  Ir  Ir117  1  0.16575762  0.16655398  0.00137969  1
  Ir  Ir118  1  0.33223568  0.00237398  0.50307399  1
  Ir  Ir119  1  0.33336885  0.67335929  0.50860944  1
  Ir  Ir120  1  0.82894651  0.49597065  0.25217168  1
  Ir  Ir121  1  -0.00317695  0.33271886  0.74814536  1
  Ir  Ir122  1  0.66746045  0.33612826  0.49561193  1
  Ir  Ir123  1  0.16954202  0.83753363  0.50109721  1
  Ir  Ir124  1  0.49581230  0.16894855  0.50349116  1
  Ir  Ir125  1  0.33426592  0.67207550  0.75086511  1
  Ir  Ir126  1  0.33394686  0.33001517  0.00151346  1
  Ir  Ir127  1  0.16809159  0.83274920  0.74737612  1
  Ir  Ir128  1  0.49591357  0.16049581  0.74885011  1
  Ir  Ir129  1  0.00422476  -0.00115243  0.49340039  1
  Ir  Ir130  1  0.82964339  0.49721179  0.49452927  1
  Ir  Ir131  1  0.66990298  0.00330174  0.24734645  1
  Ir  Ir132  1  0.83268281  0.83408244  0.74821358  1
  Ir  Ir133  1  0.83556577  0.16945307  0.00189564  1
  Ir  Ir134  1  0.33487874  0.66609678  -0.00415107  1
  Ir  Ir135  1  0.66525461  0.66143513  0.00005481  1
  Ir  Ir136  1  0.66632655  0.66113712  0.50440923  1
  Ir  Ir137  1  0.33390310  0.33366603  0.25292080  1
  Ir  Ir138  1  0.33252165  -0.00072322  0.74520313  1
  Ir  Ir139  1  -0.00110012  0.67115453  0.75053197  1
  Ir  Ir140  1  0.33344957  0.00291412  -0.00116891  1
  Ir  Ir141  1  0.66720029  0.33352285  0.24971124  1
  Ir  Ir142  1  0.49849573  0.16460413  -0.00389423  1
  Ir  Ir143  1  0.00032923  -0.00008585  0.24964471  1
  O  O144  1  0.31456935  0.32822857  0.12837897  1
  O  O145  1  0.30093426  0.32315733  0.62324796  1
  O  O146  1  0.30464960  0.65757390  0.11567131  1
  O  O147  1  0.30895503  0.66507885  0.63035392  1
  O  O148  1  0.30550074  0.99066369  0.12706778  1
  O  O149  1  0.29946654  0.99397646  0.62343623  1
  O  O150  1  0.64646325  0.32138664  0.12936166  1
  O  O151  1  0.65167190  0.33377657  0.61582289  1
  O  O152  1  0.64986611  0.65558128  0.12097943  1
  O  O153  1  0.63261520  0.65002917  0.62173393  1
  O  O154  1  0.65146031  1.00744994  0.12913828  1
  O  O155  1  0.63626054  0.99576297  0.62817355  1
  O  O156  1  0.96118861  0.31913569  0.12364103  1
  O  O157  1  0.96282252  0.33202945  0.62557752  1
  O  O158  1  0.95434609  0.66179158  0.12583188  1
  O  O159  1  0.96599048  0.66971692  0.63093030  1
  O  O160  1  0.96419194  0.99712352  0.13153612  1
  O  O161  1  0.97008228  0.99616481  0.61316200  1
  O  O162  1  0.18552163  0.15795152  0.12173384  1
  O  O163  1  0.19698197  0.16070461  0.62065466  1
  O  O164  1  0.20574929  0.49243385  0.12557252  1
  O  O165  1  0.18556531  0.48409329  0.62641127  1
  O  O166  1  0.21010361  0.81916489  0.12328000  1
  O  O167  1  0.19879236  0.83257472  0.62402430  1
  O  O168  1  0.52515315  0.16755279  0.11808197  1
  O  O169  1  0.51835740  0.15664889  0.62745670  1
  O  O170  1  0.53138407  0.49413981  0.11992475  1
  O  O171  1  0.53315465  0.49597279  0.62469296  1
  O  O172  1  0.51511343  0.83804316  0.13013051  1
  O  O173  1  0.53380682  0.81724583  0.62613935  1
  O  O174  1  0.86821532  0.15724705  0.12134518  1
  O  O175  1  0.85034383  0.15315369  0.62307118  1
  O  O176  1  0.85262386  0.48346032  0.12781676  1
  O  O177  1  0.85043767  0.48663049  0.61481074  1
  O  O178  1  0.84793618  0.82003883  0.12373570  1
  O  O179  1  0.85290303  0.82411911  0.62995302  1
  O  O180  1  0.14960729  0.18191627  0.38112253  1
  O  O181  1  0.13579544  0.16848436  0.87956634  1
  O  O182  1  0.13453589  0.49807273  0.37785195  1
  O  O183  1  0.15290198  0.51307868  0.87505891  1
  O  O184  1  0.14009625  0.84019645  0.38089612  1
  O  O185  1  0.13770478  0.83541907  0.86712011  1
  O  O186  1  0.48413880  0.17873063  0.38112453  1
  O  O187  1  0.47796786  0.15365322  0.87143645  1
  O  O188  1  0.48580493  0.50101600  0.37698182  1
  O  O189  1  0.47897036  0.51120943  0.88073779  1
  O  O190  1  0.47062110  0.83478193  0.37341678  1
  O  O191  1  0.48425906  0.85660457  0.87283491  1
  O  O192  1  0.81139547  0.17778000  0.37440176  1
  O  O193  1  0.80988243  0.18148902  0.88138492  1
  O  O194  1  0.79500632  0.50126287  0.37237821  1
  O  O195  1  0.79648866  0.50222648  0.88295224  1
  O  O196  1  0.80881350  0.85560513  0.37626836  1
  O  O197  1  0.80895990  0.83703246  0.86576850  1
  O  O198  1  0.02966803  0.00600512  0.37084594  1
  O  O199  1  0.02173983  0.01929931  0.87401715  1
  O  O200  1  0.03132350  0.34080211  0.38405660  1
  O  O201  1  0.01476616  0.33391221  0.86824061  1
  O  O202  1  0.01725805  0.67506059  0.37541892  1
  O  O203  1  0.03094667  0.67457919  0.87028325  1
  O  O204  1  0.35691640  0.00300118  0.37768684  1
  O  O205  1  0.36405703  0.00271320  0.87122795  1
  O  O206  1  0.36459953  0.33508697  0.37694894  1
  O  O207  1  0.35260521  0.32799106  0.87375724  1
  O  O208  1  0.35625684  0.68214642  0.38913656  1
  O  O209  1  0.37022863  0.67352134  0.87337890  1
  O  O210  1  0.69921367  0.00189297  0.36701872  1
  O  O211  1  0.68307871  -0.00079105  0.86714761  1
  O  O212  1  0.69835939  0.34359851  0.37140387  1
  O  O213  1  0.70349212  0.34149647  0.87709477  1
  O  O214  1  0.68700353  0.66579722  0.38581276  1
  O  O215  1  0.67969230  0.66463810  0.88084661  1
  O  O216  1  0.07329020  0.09874984  0.02509261  1
  O  O217  1  0.07968022  0.09125128  0.52325085  1
  O  O218  1  0.07384807  0.42242047  0.01404607  1
  O  O219  1  0.07236686  0.41723349  0.52377426  1
  O  O220  1  0.08195080  0.75511219  0.02377167  1
  O  O221  1  0.07908078  0.76760077  0.51037884  1
  O  O222  1  0.40671025  0.09225319  0.01454906  1
  O  O223  1  0.40210522  0.09750637  0.53119666  1
  O  O224  1  0.40301044  0.43126516  0.02404652  1
  O  O225  1  0.40362206  0.41844563  0.51966788  1
  O  O226  1  0.39870424  0.76032177  0.02279785  1
  O  O227  1  0.40111320  0.76521859  0.53216928  1
  O  O228  1  0.74090559  0.10442791  0.02755335  1
  O  O229  1  0.74502375  0.08775379  0.51792152  1
  O  O230  1  0.73354499  0.43347705  0.02922596  1
  O  O231  1  0.73187169  0.43293655  0.51867531  1
  O  O232  1  0.73829742  0.75059507  0.01707477  1
  O  O233  1  0.73218450  0.75554562  0.53208898  1
  O  O234  1  0.08964001  0.25034853  0.02128264  1
  O  O235  1  0.09912368  0.26604766  0.52642807  1
  O  O236  1  0.09921201  0.59885308  0.02249447  1
  O  O237  1  0.08883297  0.59103107  0.52139887  1
  O  O238  1  0.10336716  0.93450258  0.02834705  1
  O  O239  1  0.10199753  0.93284747  0.52231741  1
  O  O240  1  0.42583924  0.25589231  0.01296056  1
  O  O241  1  0.42086523  0.25667219  0.52354219  1
  O  O242  1  0.42587278  0.59105077  0.02331264  1
  O  O243  1  0.42716181  0.60422954  0.52729735  1
  O  O244  1  0.41908189  0.92807443  0.01649009  1
  O  O245  1  0.42444831  0.93437040  0.53022954  1
  O  O246  1  0.76917144  0.26141426  0.02915441  1
  O  O247  1  0.76522608  0.27418916  0.51412412  1
  O  O248  1  0.76036985  0.59301877  0.02944300  1
  O  O249  1  0.76455007  0.59490911  0.52908434  1
  O  O250  1  0.76915064  0.93650939  0.02042887  1
  O  O251  1  0.76239292  0.92830289  0.53412922  1
  O  O252  1  0.24222053  0.06818736  0.25828945  1
  O  O253  1  0.24424465  0.07007408  0.76135564  1
  O  O254  1  0.23926343  0.39608573  0.27811006  1
  O  O255  1  0.24261183  0.40108636  0.76114595  1
  O  O256  1  0.25049370  0.74970399  0.27869205  1
  O  O257  1  0.23493179  0.73685991  0.77459739  1
  O  O258  1  0.57973949  0.07375237  0.26500309  1
  O  O259  1  0.56157805  0.05906165  0.76681056  1
  O  O260  1  0.57309737  0.39638545  0.27813183  1
  O  O261  1  0.57868705  0.40730909  0.77763592  1
  O  O262  1  0.57044825  0.74770856  0.26415150  1
  O  O263  1  0.55852001  0.72753914  0.77157314  1
  O  O264  1  0.90328913  0.06291801  0.27138081  1
  O  O265  1  0.91210189  0.07837043  0.76470501  1
  O  O266  1  0.89186534  0.40255194  0.27615315  1
  O  O267  1  0.90095441  0.39932878  0.76815767  1
  O  O268  1  0.91581086  0.75027505  0.27684852  1
  O  O269  1  0.90353156  0.74193729  0.77230040  1
  O  O270  1  0.26205902  0.24514834  0.26966795  1
  O  O271  1  0.26117656  0.23999947  0.75795566  1
  O  O272  1  0.26182415  0.57360861  0.26774589  1
  O  O273  1  0.26249109  0.58513903  0.77150793  1
  O  O274  1  0.27158072  0.90493356  0.27097881  1
  O  O275  1  0.26691924  0.89867998  0.75849878  1
  O  O276  1  0.59968002  0.24117065  0.26380901  1
  O  O277  1  0.58726393  0.23378891  0.76050352  1
  O  O278  1  0.60484655  0.56183758  0.26440618  1
  O  O279  1  0.59917226  0.56649831  0.77672830  1
  O  O280  1  0.59766838  0.90943306  0.26812814  1
  O  O281  1  0.60273348  0.90300165  0.75490459  1
  O  O282  1  0.91980902  0.24618253  0.27783759  1
  O  O283  1  0.93308794  0.24018409  0.77491865  1
  O  O284  1  0.92622516  0.55615190  0.27752173  1
  O  O285  1  0.92755087  0.58081328  0.76771199  1
  O  O286  1  0.93779545  0.90912251  0.27931251  1
  O  O287  1  0.92969845  0.89786450  0.77002133  1
  O  O288  1  0.25751672  0.24329148  0.47849663  1
  O  O289  1  0.25921268  0.23743535  0.98336727  1
  O  O290  1  0.26503216  0.58233020  0.48944855  1
  O  O291  1  0.26567010  0.57943207  0.97730522  1
  O  O292  1  0.27010995  0.90221980  0.48319367  1
  O  O293  1  0.26544029  0.91341214  0.98487775  1
  O  O294  1  0.58940699  0.24589882  0.47641983  1
  O  O295  1  0.59146808  0.23431369  0.98562100  1
  O  O296  1  0.60844340  0.56351052  0.48191122  1
  O  O297  1  0.59694251  0.56554675  0.97712166  1
  O  O298  1  0.59614888  0.90468501  0.49030324  1
  O  O299  1  0.58937440  0.91221941  0.98927004  1
  O  O300  1  0.92776805  0.24751903  0.48081687  1
  O  O301  1  0.92798031  0.23400332  0.97340875  1
  O  O302  1  0.92482328  0.55933877  0.47413140  1
  O  O303  1  0.91750752  0.56486325  0.98272800  1
  O  O304  1  0.93677750  0.90810247  0.46830902  1
  O  O305  1  0.93776413  0.90142413  0.96968211  1
  O  O306  1  0.23838749  0.07403944  0.48598300  1
  O  O307  1  0.23571104  0.07340823  0.98608853  1
  O  O308  1  0.23916959  0.39834707  0.48035383  1
  O  O309  1  0.24797564  0.40211873  0.98618396  1
  O  O310  1  0.24395327  0.74889933  0.47886287  1
  O  O311  1  0.24218785  0.73180555  0.97126112  1
  O  O312  1  0.56653666  0.07803208  0.49127851  1
  O  O313  1  0.56777358  0.07376088  0.97858780  1
  O  O314  1  0.57513253  0.40109981  0.47073130  1
  O  O315  1  0.57306466  0.41197281  0.97626901  1
  O  O316  1  0.57191310  0.72692205  0.49027640  1
  O  O317  1  0.56897940  0.72814713  0.97924888  1
  O  O318  1  0.90924404  0.06402100  0.47412263  1
  O  O319  1  0.90435928  0.08059587  0.98037818  1
  O  O320  1  0.90152099  0.40165386  0.47055027  1
  O  O321  1  0.88684677  0.40057711  0.98220810  1
  O  O322  1  0.90754858  0.74385188  0.48548880  1
  O  O323  1  0.91387133  0.74517234  0.97093589  1
  O  O324  1  0.08460311  0.24986771  0.22718904  1
  O  O325  1  0.09166731  0.26682386  0.72469225  1
  O  O326  1  0.09820021  0.59866658  0.21734148  1
  O  O327  1  0.08714994  0.59934949  0.73542416  1
  O  O328  1  0.09766958  0.93849374  0.22319691  1
  O  O329  1  0.10445972  0.92597848  0.72153497  1
  O  O330  1  0.42840534  0.26700853  0.24349398  1
  O  O331  1  0.42139244  0.25029733  0.72470352  1
  O  O332  1  0.42481285  0.59031025  0.23020339  1
  O  O333  1  0.43011650  0.60491840  0.73215056  1
  O  O334  1  0.42552145  0.92734754  0.23092131  1
  O  O335  1  0.42492669  0.93246001  0.71749983  1
  O  O336  1  0.75945310  0.26686411  0.22497417  1
  O  O337  1  0.77103393  0.27063457  0.72829009  1
  O  O338  1  0.76685650  0.58926958  0.22368365  1
  O  O339  1  0.76279103  0.60043387  0.71965689  1
  O  O340  1  0.76752423  0.94072237  0.22620045  1
  O  O341  1  0.76416858  0.93109476  0.71909213  1
  O  O342  1  0.06591363  0.09159749  0.22178789  1
  O  O343  1  0.08226161  0.08593639  0.72028102  1
  O  O344  1  0.06697863  0.42803817  0.24022052  1
  O  O345  1  0.07006526  0.41927397  0.73133754  1
  O  O346  1  0.08202760  0.75720389  0.22727441  1
  O  O347  1  0.06930886  0.76706036  0.73462639  1
  O  O348  1  0.40632146  0.08841744  0.23696313  1
  O  O349  1  0.40008694  0.09262264  0.71901809  1
  O  O350  1  0.39714850  0.42770039  0.22743699  1
  O  O351  1  0.40634638  0.41711513  0.73623368  1
  O  O352  1  0.40591835  0.77102085  0.23065473  1
  O  O353  1  0.39773746  0.76427023  0.72141686  1
  O  O354  1  0.73639454  0.09742143  0.22153921  1
  O  O355  1  0.73729429  0.08639889  0.73081836  1
  O  O356  1  0.73052856  0.43072670  0.22497196  1
  O  O357  1  0.73655560  0.43455953  0.72298122  1
  O  O358  1  0.74545011  0.75202959  0.23540041  1
  O  O359  1  0.73639268  0.76721805  0.72377947  1
