# generated using pymatgen
data_BaLaInIrO6
_symmetry_space_group_name_H-M   'P 1'
_cell_length_a   17.51046423
_cell_length_b   17.53882086
_cell_length_c   16.48061179
_cell_angle_alpha   90.01651036
_cell_angle_beta   90.00847898
_cell_angle_gamma   89.89106388
_symmetry_Int_Tables_number   1
_chemical_formula_structural   BaLaInIrO6
_chemical_formula_sum   'Ba36 La36 In36 Ir36 O216'
_cell_volume   5061.39899080
_cell_formula_units_Z   36
loop_
 _symmetry_equiv_pos_site_id
 _symmetry_equiv_pos_as_xyz
  1  'x, y, z'
loop_
 _atom_site_type_symbol
 _atom_site_label
 _atom_site_symmetry_multiplicity
 _atom_site_fract_x
 _atom_site_fract_y
 _atom_site_fract_z
 _atom_site_occupancy
  Ba  Ba0  1  0.49628932  0.99309422  0.37217037  1
  Ba  Ba1  1  0.83203946  0.99374839  0.87431981  1
  Ba  Ba2  1  1.00020844  0.17981968  0.62871983  1
  Ba  Ba3  1  0.15982972  0.00836898  0.12374055  1
  Ba  Ba4  1  1.00039749  0.51218369  0.12598587  1
  Ba  Ba5  1  0.83023024  0.34197381  0.62639267  1
  Ba  Ba6  1  0.33388140  0.15871365  0.87839096  1
  Ba  Ba7  1  0.82718378  0.66521246  0.87703572  1
  Ba  Ba8  1  0.33523005  0.82416829  0.87555003  1
  Ba  Ba9  1  0.66959277  0.50328066  0.12829840  1
  Ba  Ba10  1  0.50162844  0.32941376  0.37064410  1
  Ba  Ba11  1  0.33644877  0.17637926  0.62580149  1
  Ba  Ba12  1  0.83469215  0.32499701  0.36917603  1
  Ba  Ba13  1  0.33740908  0.50677217  0.12298471  1
  Ba  Ba14  1  0.66227818  0.15593863  0.87636788  1
  Ba  Ba15  1  0.33436192  0.49283486  0.87480090  1
  Ba  Ba16  1  0.50348761  0.99090804  0.87533475  1
  Ba  Ba17  1  0.49964408  0.32256536  0.87780994  1
  Ba  Ba18  1  1.00104755  0.84180136  0.12215699  1
  Ba  Ba19  1  0.50068542  0.67559504  0.61883564  1
  Ba  Ba20  1  0.83211396  0.32430464  0.87513161  1
  Ba  Ba21  1  0.50066359  0.33943804  0.12094596  1
  Ba  Ba22  1  0.82990090  0.67523498  0.62492630  1
  Ba  Ba23  1  0.50119046  0.65689080  0.37797096  1
  Ba  Ba24  1  0.66832759  0.83853591  0.62234773  1
  Ba  Ba25  1  0.33370918  0.17367429  0.12296464  1
  Ba  Ba26  1  0.50088530  0.00686127  0.62520766  1
  Ba  Ba27  1  0.83397441  0.01094609  0.12606370  1
  Ba  Ba28  1  0.66818378  0.17078644  0.12250011  1
  Ba  Ba29  1  0.33599089  0.48870529  0.37626904  1
  Ba  Ba30  1  0.16056200  0.34803741  0.62561397  1
  Ba  Ba31  1  0.67087518  0.84662389  0.12920233  1
  Ba  Ba32  1  0.67043537  0.51032590  0.62571307  1
  Ba  Ba33  1  0.83380800  0.68141027  0.12655472  1
  Ba  Ba34  1  0.66775096  0.17200664  0.62541405  1
  Ba  Ba35  1  0.49993034  0.00513749  0.12493076  1
  La  La36  1  0.66177830  0.15047634  0.36996634  1
  La  La37  1  0.17280736  0.32190693  0.87407350  1
  La  La38  1  0.16323130  0.35023754  0.12620440  1
  La  La39  1  0.17180542  0.64868701  0.37185344  1
  La  La40  1  0.17056329  0.98492681  0.37624985  1
  La  La41  1  -0.00420223  0.82358068  0.87634661  1
  La  La42  1  -0.00645301  0.14929361  0.87409761  1
  La  La43  1  0.17331185  0.31514665  0.37532666  1
  La  La44  1  0.34063675  0.16113562  0.36987944  1
  La  La45  1  0.33807268  0.84488156  0.12678229  1
  La  La46  1  0.99992738  0.51121743  0.62263999  1
  La  La47  1  0.67266291  0.83052023  0.87932754  1
  La  La48  1  0.82389247  0.01639737  0.62315744  1
  La  La49  1  1.00068941  0.85061054  0.62344346  1
  La  La50  1  0.66084970  0.48345708  0.87149108  1
  La  La51  1  0.66272582  0.82138556  0.37303906  1
  La  La52  1  0.16800277  0.67624787  0.62202165  1
  La  La53  1  -0.00519279  0.14739705  0.37838668  1
  La  La54  1  0.16991746  0.65527936  0.87567037  1
  La  La55  1  0.83379653  0.65372465  0.37424731  1
  La  La56  1  1.00530714  0.18178444  0.12657934  1
  La  La57  1  0.50827042  0.65970536  0.88004174  1
  La  La58  1  -0.00221200  0.48606971  0.37324848  1
  La  La59  1  0.33194621  0.81683982  0.37456555  1
  La  La60  1  0.49758747  0.67964445  0.12792182  1
  La  La61  1  0.34387492  0.84897159  0.62199047  1
  La  La62  1  0.33969631  0.50563468  0.62586047  1
  La  La63  1  0.65905447  0.48765450  0.38068875  1
  La  La64  1  0.82668545  0.34428156  0.12163315  1
  La  La65  1  0.83406708  0.98212471  0.37607975  1
  La  La66  1  0.17058829  0.98525639  0.87911810  1
  La  La67  1  0.15845329  0.68114987  0.12161764  1
  La  La68  1  0.49777327  0.34158203  0.62921358  1
  La  La69  1  0.16267983  0.01449647  0.62947201  1
  La  La70  1  -0.00478771  0.81488998  0.37324786  1
  La  La71  1  -0.00441426  0.48885037  0.87554255  1
  In  In72  1  0.33338729  0.66585260  0.75137269  1
  In  In73  1  0.33245015  0.33205412  0.49999771  1
  In  In74  1  0.16327919  0.16736176  0.00284084  1
  In  In75  1  0.83406286  0.50218816  0.24930804  1
  In  In76  1  -0.00090670  0.66771791  -0.00227767  1
  In  In77  1  0.32907174  0.00121823  0.49898786  1
  In  In78  1  0.66770880  -0.00436650  0.75014483  1
  In  In79  1  0.66711951  -0.00356973  0.49588093  1
  In  In80  1  0.33049371  0.66423811  0.24673818  1
  In  In81  1  0.66586951  0.66584588  0.00657505  1
  In  In82  1  0.49978336  0.83173757  0.00291893  1
  In  In83  1  0.16458736  0.16284029  0.49895001  1
  In  In84  1  0.49869712  0.82862214  0.75017723  1
  In  In85  1  0.00040422  0.33430088  0.00204558  1
  In  In86  1  0.83271118  0.16794163  0.49576044  1
  In  In87  1  0.16750841  0.50239235  0.00040234  1
  In  In88  1  0.83750340  0.83495429  0.74597955  1
  In  In89  1  0.33082837  0.33600974  0.74981224  1
  In  In90  1  0.50281223  0.50235100  0.24719618  1
  In  In91  1  0.16509092  0.83219665  0.25187036  1
  In  In92  1  0.66483216  0.66911876  0.75096897  1
  In  In93  1  0.33109263  0.66416281  0.50048546  1
  In  In94  1  0.16441807  0.16701970  0.75375483  1
  In  In95  1  0.66951119  0.32922298  0.25014375  1
  In  In96  1  -0.00132669  -0.00155977  0.25090468  1
  In  In97  1  0.16539960  0.83144366  0.50133956  1
  In  In98  1  0.50200500  0.16970068  0.49847942  1
  In  In99  1  0.83356054  0.50009790  0.49706530  1
  In  In100  1  0.66712277  0.32913510  -0.00197358  1
  In  In101  1  0.33192147  0.33262630  0.24627364  1
  In  In102  1  0.00185163  0.33330589  0.49628149  1
  In  In103  1  0.32948988  0.00027815  0.24802064  1
  In  In104  1  0.00043050  0.33691986  0.75176784  1
  In  In105  1  0.16590104  0.83071696  0.74787294  1
  In  In106  1  0.83489486  0.50344997  0.75268797  1
  In  In107  1  0.49935511  0.16487092  0.75035216  1
  Ir  Ir108  1  0.50103327  0.16439715  0.24689242  1
  Ir  Ir109  1  0.16156150  0.49800912  0.25346881  1
  Ir  Ir110  1  0.16304458  0.50362842  0.49953477  1
  Ir  Ir111  1  0.16288244  0.50690899  0.74734256  1
  Ir  Ir112  1  0.67215271  0.00086373  0.24965666  1
  Ir  Ir113  1  0.49735891  0.16173700  0.00341567  1
  Ir  Ir114  1  0.50234910  0.49959827  0.74945567  1
  Ir  Ir115  1  0.83962660  0.83036392  0.49452977  1
  Ir  Ir116  1  0.50011010  0.50267952  -0.00601935  1
  Ir  Ir117  1  0.84094080  0.16267308  0.00060723  1
  Ir  Ir118  1  0.66665708  0.33436085  0.50084620  1
  Ir  Ir119  1  0.66843303  0.67050944  0.25423955  1
  Ir  Ir120  1  0.33160139  0.66762180  0.00161199  1
  Ir  Ir121  1  0.83761385  0.16443061  0.24934262  1
  Ir  Ir122  1  0.67026334  -0.00062882  0.00348440  1
  Ir  Ir123  1  -0.00045922  -0.00158768  0.74774584  1
  Ir  Ir124  1  0.50111068  0.83321454  0.25258108  1
  Ir  Ir125  1  0.00295872  0.66665996  0.25478978  1
  Ir  Ir126  1  0.83224332  0.50101112  -0.00157264  1
  Ir  Ir127  1  0.83402353  0.83841348  0.00226012  1
  Ir  Ir128  1  0.32697812  -0.00287300  0.75475454  1
  Ir  Ir129  1  0.00522566  0.66868829  0.74500354  1
  Ir  Ir130  1  0.00212112  0.66679927  0.50008247  1
  Ir  Ir131  1  0.16707123  0.83396284  -0.00342679  1
  Ir  Ir132  1  0.33177961  0.33323150  -0.00170111  1
  Ir  Ir133  1  0.00111434  -0.00040978  -0.00345761  1
  Ir  Ir134  1  -0.00119650  -0.00371053  0.50237191  1
  Ir  Ir135  1  0.67048551  0.67225865  0.49518406  1
  Ir  Ir136  1  0.83206833  0.83233002  0.25437875  1
  Ir  Ir137  1  0.66612544  0.33259373  0.74813307  1
  Ir  Ir138  1  0.49901140  0.83348239  0.49557948  1
  Ir  Ir139  1  0.32909400  -0.00348450  -0.00242067  1
  Ir  Ir140  1  0.50409586  0.49918626  0.50568785  1
  Ir  Ir141  1  0.15892903  0.16723365  0.25111620  1
  Ir  Ir142  1  0.00353594  0.33147027  0.25031079  1
  Ir  Ir143  1  0.83490555  0.16620183  0.75487388  1
  O  O144  1  0.30167506  0.33264798  0.11910926  1
  O  O145  1  0.31037403  0.34862651  0.62375664  1
  O  O146  1  0.29382093  0.66432177  0.11996290  1
  O  O147  1  0.30252502  0.64757299  0.62450927  1
  O  O148  1  0.30837762  0.98561038  0.11964823  1
  O  O149  1  0.30048667  0.98800873  0.63259154  1
  O  O150  1  0.65485530  0.33210055  0.12265190  1
  O  O151  1  0.63653457  0.32930414  0.62402674  1
  O  O152  1  0.63646927  0.66204953  0.13596623  1
  O  O153  1  0.65350656  0.67063739  0.61567302  1
  O  O154  1  0.65056858  1.00311815  0.12705512  1
  O  O155  1  0.65441719  0.99470253  0.62144408  1
  O  O156  1  0.96401583  0.32140887  0.13202981  1
  O  O157  1  0.98107655  0.34240991  0.62348400  1
  O  O158  1  0.98394252  0.66673565  0.13195040  1
  O  O159  1  0.97694779  0.64896118  0.62254621  1
  O  O160  1  0.98268556  0.99626082  0.11797113  1
  O  O161  1  0.96141939  0.98925594  0.62559391  1
  O  O162  1  0.18245104  0.16112994  0.13328171  1
  O  O163  1  0.18443365  0.15046080  0.62690600  1
  O  O164  1  0.18648696  0.49175934  0.13345640  1
  O  O165  1  0.19678448  0.50371445  0.62314424  1
  O  O166  1  0.19922752  0.82170028  0.11878667  1
  O  O167  1  0.20688147  0.81695256  0.62445024  1
  O  O168  1  0.51787354  0.16235397  0.12572179  1
  O  O169  1  0.51658156  0.16029036  0.62422555  1
  O  O170  1  0.51940857  0.50297469  0.11284162  1
  O  O171  1  0.52480748  0.48295019  0.62843312  1
  O  O172  1  0.52022353  0.82574286  0.13259416  1
  O  O173  1  0.51589273  0.83672668  0.61611591  1
  O  O174  1  0.87181536  0.16155496  0.12468591  1
  O  O175  1  0.85161334  0.15857372  0.63222590  1
  O  O176  1  0.85301054  0.49230578  0.11937262  1
  O  O177  1  0.86184800  0.50140692  0.62310918  1
  O  O178  1  0.85465622  0.83513787  0.12965290  1
  O  O179  1  0.86789965  0.82503639  0.61488817  1
  O  O180  1  0.12949227  0.17449934  0.36876183  1
  O  O181  1  0.12892779  0.18010509  0.87966219  1
  O  O182  1  0.13091878  0.51207902  0.37762552  1
  O  O183  1  0.13163265  0.51672517  0.86787388  1
  O  O184  1  0.12769201  0.84865777  0.37905967  1
  O  O185  1  0.13206679  0.84434511  0.87553347  1
  O  O186  1  0.47601424  0.17009645  0.36569326  1
  O  O187  1  0.48364448  0.16189172  0.88356282  1
  O  O188  1  0.48985743  0.50096302  0.38483186  1
  O  O189  1  0.47954809  0.51649399  0.87159931  1
  O  O190  1  0.46867690  0.83182841  0.37385901  1
  O  O191  1  0.48626800  0.81906352  0.87847566  1
  O  O192  1  0.80221911  0.16941848  0.36572611  1
  O  O193  1  0.81355048  0.16547044  0.87932253  1
  O  O194  1  0.79866779  0.51256172  0.37311634  1
  O  O195  1  0.80074770  0.50593953  0.88160161  1
  O  O196  1  0.80396582  0.84000273  0.37478999  1
  O  O197  1  0.81112836  0.83822689  0.88143937  1
  O  O198  1  0.03254617  0.00607123  0.38281605  1
  O  O199  1  0.03237521  0.00731658  0.87086040  1
  O  O200  1  0.03923206  0.34512186  0.36664936  1
  O  O201  1  0.03663818  0.35104099  0.87789616  1
  O  O202  1  0.03549796  0.67825377  0.37897670  1
  O  O203  1  0.03447688  0.68478777  0.86568362  1
  O  O204  1  0.34047701  0.02182812  0.37179635  1
  O  O205  1  0.35312210  -0.00052929  0.87625876  1
  O  O206  1  0.34573243  0.32985907  0.37312913  1
  O  O207  1  0.35023831  0.33629800  0.87981700  1
  O  O208  1  0.35178639  0.67501548  0.37450672  1
  O  O209  1  0.36797319  0.66857509  0.88183159  1
  O  O210  1  0.69988633  0.00563764  0.36855201  1
  O  O211  1  0.68343371  -0.00717761  0.88355423  1
  O  O212  1  0.68607002  0.34714141  0.38061526  1
  O  O213  1  0.68317565  0.34026255  0.87088320  1
  O  O214  1  0.69900957  0.68238375  0.37350815  1
  O  O215  1  0.67146160  0.69128879  0.88101782  1
  O  O216  1  0.06160071  0.09641856  0.01736245  1
  O  O217  1  0.05863023  0.09114590  0.51920859  1
  O  O218  1  0.07769854  0.42623019  0.02445784  1
  O  O219  1  0.06683405  0.44524926  0.51649085  1
  O  O220  1  0.08093423  0.76156644  0.01671662  1
  O  O221  1  0.06264010  0.76161377  0.52787586  1
  O  O222  1  0.40337034  0.08395312  0.02026710  1
  O  O223  1  0.39860881  0.09996347  0.50365928  1
  O  O224  1  0.40910394  0.42465881  0.01577569  1
  O  O225  1  0.41134914  0.43245936  0.52541757  1
  O  O226  1  0.39679018  0.75662964  0.03479273  1
  O  O227  1  0.40138436  0.76760077  0.51557235  1
  O  O228  1  0.74390333  0.09373628  0.01558730  1
  O  O229  1  0.74851002  0.08685021  0.51515098  1
  O  O230  1  0.74748187  0.42444344  0.01500378  1
  O  O231  1  0.73537667  0.42616249  0.51530431  1
  O  O232  1  0.74308047  0.76685891  0.01477383  1
  O  O233  1  0.73787976  0.76964368  0.50557017  1
  O  O234  1  0.09334773  0.26296166  0.03863184  1
  O  O235  1  0.10163245  0.26625525  0.50564565  1
  O  O236  1  0.09985341  0.60292635  0.01865952  1
  O  O237  1  0.09929372  0.60261853  0.52464577  1
  O  O238  1  0.09691983  0.93088652  0.00994579  1
  O  O239  1  0.09191494  0.93072491  0.53563727  1
  O  O240  1  0.42262293  0.25542271  0.01863325  1
  O  O241  1  0.43745706  0.27195347  0.52176931  1
  O  O242  1  0.42911128  0.60226577  0.02397515  1
  O  O243  1  0.42545091  0.58257387  0.52194068  1
  O  O244  1  0.41378966  0.91839021  0.01997664  1
  O  O245  1  0.42548066  0.92166444  0.51485406  1
  O  O246  1  0.77377209  0.25619392  0.02060894  1
  O  O247  1  0.75698629  0.26541073  0.51403070  1
  O  O248  1  0.76160247  0.58995848  0.01989057  1
  O  O249  1  0.76363841  0.60496607  0.50508690  1
  O  O250  1  0.76287306  0.92965017  0.01968673  1
  O  O251  1  0.77920416  0.92824077  0.51247125  1
  O  O252  1  0.22107968  0.07198362  0.27402971  1
  O  O253  1  0.23209491  0.06369627  0.77470782  1
  O  O254  1  0.22318252  0.39994873  0.26894270  1
  O  O255  1  0.22473702  0.41150275  0.77511761  1
  O  O256  1  0.23623356  0.73703454  0.27865137  1
  O  O257  1  0.23039196  0.73113413  0.77701124  1
  O  O258  1  0.57979204  0.07450155  0.27185291  1
  O  O259  1  0.57669377  0.07298014  0.76477078  1
  O  O260  1  0.58737333  0.41887095  0.26646977  1
  O  O261  1  0.57601116  0.40768468  0.77190831  1
  O  O262  1  0.57694839  0.74382537  0.27555952  1
  O  O263  1  0.55670995  0.72193276  0.76082217  1
  O  O264  1  0.90217131  0.07075059  0.28207614  1
  O  O265  1  0.91271945  0.07769950  0.77522976  1
  O  O266  1  0.92114063  0.41017219  0.27199571  1
  O  O267  1  0.91368733  0.41726145  0.78199432  1
  O  O268  1  0.90410581  0.73695624  0.28074387  1
  O  O269  1  0.91698568  0.73991787  0.76960914  1
  O  O270  1  0.25405337  0.23151547  0.27429859  1
  O  O271  1  0.25437759  0.24606678  0.77440272  1
  O  O272  1  0.25115790  0.56845259  0.27423737  1
  O  O273  1  0.25363993  0.57155734  0.77056300  1
  O  O274  1  0.26368036  0.90019082  0.27731181  1
  O  O275  1  0.25401681  0.91145103  0.77481284  1
  O  O276  1  0.59585802  0.23171872  0.27077662  1
  O  O277  1  0.59430511  0.24737019  0.76345192  1
  O  O278  1  0.60507678  0.57776111  0.27767218  1
  O  O279  1  0.59545318  0.56420125  0.77414532  1
  O  O280  1  0.59941632  0.90481938  0.27523062  1
  O  O281  1  0.60099795  0.89383853  0.77293446  1
  O  O282  1  0.93837562  0.23017785  0.27311972  1
  O  O283  1  0.92572127  0.23628640  0.77620226  1
  O  O284  1  0.93107263  0.57751530  0.28069773  1
  O  O285  1  0.94273467  0.57599628  0.77361615  1
  O  O286  1  0.92396692  0.90083360  0.28228427  1
  O  O287  1  0.94066500  0.90062693  0.77004495  1
  O  O288  1  0.26535583  0.22864908  0.47243832  1
  O  O289  1  0.25485063  0.24902952  0.97923766  1
  O  O290  1  0.25366181  0.56785429  0.47804518  1
  O  O291  1  0.25984098  0.58140189  0.97562142  1
  O  O292  1  0.26548325  0.89738031  0.46967628  1
  O  O293  1  0.25351446  0.90955816  0.97282683  1
  O  O294  1  0.60454383  0.24152153  0.47311645  1
  O  O295  1  0.58445268  0.23699699  0.98856531  1
  O  O296  1  0.60271113  0.57172574  0.48077472  1
  O  O297  1  0.59131325  0.56933508  0.96911487  1
  O  O298  1  0.59368689  0.89901744  0.47150914  1
  O  O299  1  0.60160137  0.90472578  0.98729143  1
  O  O300  1  0.93215071  0.23223865  0.47364187  1
  O  O301  1  0.93510109  0.22834603  0.98047314  1
  O  O302  1  0.93678859  0.57564750  0.47048612  1
  O  O303  1  0.92623273  0.57099460  0.97423971  1
  O  O304  1  0.93921288  0.89385831  0.47669559  1
  O  O305  1  0.93405305  0.90431749  0.97531605  1
  O  O306  1  0.21632121  0.05274935  0.48952155  1
  O  O307  1  0.23683310  0.06858893  0.97744551  1
  O  O308  1  0.22468176  0.40740963  0.47332328  1
  O  O309  1  0.23914885  0.40279686  0.97863263  1
  O  O310  1  0.22799950  0.72967505  0.47397817  1
  O  O311  1  0.23315831  0.73516109  0.97464442  1
  O  O312  1  0.58213680  0.08015943  0.46880964  1
  O  O313  1  0.57392794  0.06856669  0.98832228  1
  O  O314  1  0.57615490  0.40870696  0.48381002  1
  O  O315  1  0.57568747  0.41667689  0.97515072  1
  O  O316  1  0.57701666  0.74451010  0.47552547  1
  O  O317  1  0.55770991  0.72466178  1.00132726  1
  O  O318  1  0.90584544  0.06106787  0.47276838  1
  O  O319  1  0.91217162  0.07105843  0.97531768  1
  O  O320  1  0.91426043  0.41350517  0.46636836  1
  O  O321  1  0.90687289  0.41351393  0.98101792  1
  O  O322  1  0.90636919  0.73276614  0.46929306  1
  O  O323  1  0.91092709  0.75223127  0.98117497  1
  O  O324  1  0.09723256  0.26527952  0.22332643  1
  O  O325  1  0.09320003  0.26387891  0.73717842  1
  O  O326  1  0.10085725  0.60083905  0.23232108  1
  O  O327  1  0.10059625  0.60387564  0.72058011  1
  O  O328  1  0.09265663  0.92708663  0.23457263  1
  O  O329  1  0.08953282  0.92782364  0.71887284  1
  O  O330  1  0.42727943  0.25118334  0.23195421  1
  O  O331  1  0.42929469  0.26447082  0.73027649  1
  O  O332  1  0.43167207  0.59907665  0.22712589  1
  O  O333  1  0.42607014  0.58325979  0.72419031  1
  O  O334  1  0.42448607  0.91756118  0.23228039  1
  O  O335  1  0.41631463  0.92450982  0.73341397  1
  O  O336  1  0.77455437  0.25607401  0.22213618  1
  O  O337  1  0.75964211  0.25815200  0.73267722  1
  O  O338  1  0.76122150  0.60432681  0.23782890  1
  O  O339  1  0.75941945  0.59484802  0.74060259  1
  O  O340  1  0.76852173  0.93141981  0.23960712  1
  O  O341  1  0.77369956  0.93471547  0.72428804  1
  O  O342  1  0.06018762  0.10637513  0.23437461  1
  O  O343  1  0.06949978  0.08611547  0.73027713  1
  O  O344  1  0.07190321  0.42363373  0.22480096  1
  O  O345  1  0.06839570  0.44726607  0.72713895  1
  O  O346  1  0.07344160  0.75352775  0.23126467  1
  O  O347  1  0.06865109  0.76013300  0.71264885  1
  O  O348  1  0.40918159  0.09371331  0.23419692  1
  O  O349  1  0.39729703  0.08507906  0.73729503  1
  O  O350  1  0.41063095  0.42392064  0.23593309  1
  O  O351  1  0.40987268  0.43082825  0.72822347  1
  O  O352  1  0.40668324  0.76466462  0.22710056  1
  O  O353  1  0.39506910  0.76505380  0.71929409  1
  O  O354  1  0.74020692  0.09821700  0.23410496  1
  O  O355  1  0.75074850  0.09135552  0.73781082  1
  O  O356  1  0.75714523  0.41305581  0.23021974  1
  O  O357  1  0.73875113  0.42115078  0.73844192  1
  O  O358  1  0.73736671  0.76464335  0.23747798  1
  O  O359  1  0.73840339  0.76759525  0.74645069  1
