# generated using pymatgen
data_BaLaInIrO6
_symmetry_space_group_name_H-M   'P 1'
_cell_length_a   17.54156700
_cell_length_b   17.57087623
_cell_length_c   16.49229001
_cell_angle_alpha   89.95766620
_cell_angle_beta   90.02150582
_cell_angle_gamma   89.91989500
_symmetry_Int_Tables_number   1
_chemical_formula_structural   BaLaInIrO6
_chemical_formula_sum   'Ba36 La36 In36 Ir36 O216'
_cell_volume   5083.25849722
_cell_formula_units_Z   36
loop_
 _symmetry_equiv_pos_site_id
 _symmetry_equiv_pos_as_xyz
  1  'x, y, z'
loop_
 _atom_site_type_symbol
 _atom_site_label
 _atom_site_symmetry_multiplicity
 _atom_site_fract_x
 _atom_site_fract_y
 _atom_site_fract_z
 _atom_site_occupancy
  Ba  Ba0  1  0.16280335  0.67539725  0.62369182  1
  Ba  Ba1  1  0.66222380  0.49069109  0.87369930  1
  Ba  Ba2  1  0.83462868  0.31945669  0.37539909  1
  Ba  Ba3  1  0.16526438  0.32731464  0.87439921  1
  Ba  Ba4  1  0.99817879  0.50677092  0.62468167  1
  Ba  Ba5  1  0.17158064  0.65740797  0.37622773  1
  Ba  Ba6  1  0.33171298  0.83760020  0.12255952  1
  Ba  Ba7  1  0.32901140  0.82857564  0.37690236  1
  Ba  Ba8  1  0.16322157  0.67510285  0.12224553  1
  Ba  Ba9  1  0.16600698  0.99076947  0.37568299  1
  Ba  Ba10  1  1.00301325  0.17660327  0.12570909  1
  Ba  Ba11  1  0.83427835  0.34031334  0.12317107  1
  Ba  Ba12  1  0.49931187  0.67463208  0.62682811  1
  Ba  Ba13  1  0.16504992  0.34618893  0.12287148  1
  Ba  Ba14  1  0.67142866  0.51187304  0.12287323  1
  Ba  Ba15  1  0.17048958  0.00569172  0.62370098  1
  Ba  Ba16  1  1.00325638  0.50482876  0.12629317  1
  Ba  Ba17  1  0.33579471  0.51085403  0.12081225  1
  Ba  Ba18  1  0.50397108  0.98762871  0.37645701  1
  Ba  Ba19  1  0.17214937  0.65785925  0.87365553  1
  Ba  Ba20  1  0.00305155  0.49563796  0.37610835  1
  Ba  Ba21  1  0.50033565  0.00965727  0.62481024  1
  Ba  Ba22  1  -0.00016539  0.82779735  0.87414950  1
  Ba  Ba23  1  0.33043867  0.82493291  0.87385121  1
  Ba  Ba24  1  0.33175889  0.17696017  0.12935741  1
  Ba  Ba25  1  0.83287362  0.67692330  0.62809505  1
  Ba  Ba26  1  0.66166327  0.82244761  0.37658279  1
  Ba  Ba27  1  0.49873660  0.65452760  0.87035426  1
  Ba  Ba28  1  0.49937760  0.65912600  0.37254824  1
  Ba  Ba29  1  0.83525579  0.67130421  0.12868302  1
  Ba  Ba30  1  0.66659638  0.16138014  0.87670501  1
  Ba  Ba31  1  -0.00319793  0.15798148  0.87947758  1
  Ba  Ba32  1  -0.00342731  0.82485222  0.37824288  1
  Ba  Ba33  1  0.50322277  0.98628641  0.87525030  1
  Ba  Ba34  1  0.83740375  0.32707647  0.87227736  1
  Ba  Ba35  1  0.33443322  0.15698267  0.37431830  1
  La  La36  1  0.50641332  0.32633861  0.87766792  1
  La  La37  1  0.83595723  0.65287591  0.87762828  1
  La  La38  1  0.83447113  0.98488930  0.37503435  1
  La  La39  1  -0.00189299  0.14946779  0.37571394  1
  La  La40  1  0.66301113  0.84311349  0.12404753  1
  La  La41  1  1.00451462  0.84757399  0.62414718  1
  La  La42  1  0.00192398  0.49656214  0.88528390  1
  La  La43  1  0.34071395  0.51194816  0.62543594  1
  La  La44  1  0.34198390  0.18420277  0.62074036  1
  La  La45  1  0.49300095  0.01022824  0.12112944  1
  La  La46  1  0.82688174  0.01474943  0.62359651  1
  La  La47  1  0.16817625  0.99014496  0.87758862  1
  La  La48  1  0.67143525  0.18356936  0.62475673  1
  La  La49  1  0.66177660  0.81689032  0.87066771  1
  La  La50  1  0.66106848  0.14783856  0.37858162  1
  La  La51  1  0.49401022  0.35184615  0.12628416  1
  La  La52  1  0.49339984  0.68222634  0.12271798  1
  La  La53  1  0.32918048  0.48904205  0.37508813  1
  La  La54  1  0.66213727  0.48436366  0.37205356  1
  La  La55  1  0.50652496  0.31739240  0.37788464  1
  La  La56  1  0.67436583  0.17857919  0.13391100  1
  La  La57  1  0.67231315  0.51933559  0.62776911  1
  La  La58  1  0.50056068  0.34737669  0.62694618  1
  La  La59  1  0.16590987  0.34350714  0.62358444  1
  La  La60  1  1.00766838  0.84816528  0.12678277  1
  La  La61  1  0.83570992  0.65042983  0.37605670  1
  La  La62  1  0.33655941  0.84411896  0.62427589  1
  La  La63  1  0.66905831  0.85220294  0.62480788  1
  La  La64  1  0.82789119  0.35225495  0.62289740  1
  La  La65  1  0.16791418  0.32643165  0.36647870  1
  La  La66  1  0.83940408  0.98657839  0.87373453  1
  La  La67  1  0.33306355  0.49262622  0.87488779  1
  La  La68  1  0.83214769  0.01058125  0.12477779  1
  La  La69  1  0.32470461  0.14858585  0.87589982  1
  La  La70  1  1.00042264  0.17955061  0.62411132  1
  La  La71  1  0.16645642  0.00684270  0.12664715  1
  In  In72  1  0.66759045  -0.00258269  0.24922982  1
  In  In73  1  0.16719608  0.16517085  -0.00071561  1
  In  In74  1  0.33538876  0.00212641  0.49907993  1
  In  In75  1  0.50372248  0.16753557  0.24828038  1
  In  In76  1  -0.00012038  0.33156105  0.25286092  1
  In  In77  1  -0.00117471  0.33164296  0.49996079  1
  In  In78  1  0.33424661  -0.00066562  0.74929885  1
  In  In79  1  0.00028101  0.66863574  0.25244936  1
  In  In80  1  -0.00011991  0.33321014  -0.00185995  1
  In  In81  1  0.83132684  0.50084215  -0.00007910  1
  In  In82  1  -0.00295193  0.00325610  0.74751710  1
  In  In83  1  0.82843214  0.83215220  0.00162077  1
  In  In84  1  -0.00078245  0.33394986  0.74471016  1
  In  In85  1  0.82947000  0.83098743  0.50125613  1
  In  In86  1  0.33287521  0.66803433  0.74885972  1
  In  In87  1  0.66839681  0.00251562  0.75614596  1
  In  In88  1  0.33515429  0.66756880  0.50116963  1
  In  In89  1  0.83129986  0.50097283  0.75170024  1
  In  In90  1  0.16843114  0.16543604  0.74795303  1
  In  In91  1  0.66614169  0.66793987  0.25004757  1
  In  In92  1  0.33271963  0.66659895  0.24840778  1
  In  In93  1  0.49814591  0.16799883  0.75045756  1
  In  In94  1  0.50371846  0.49876819  0.49801573  1
  In  In95  1  -0.00043990  0.67178622  -0.00094759  1
  In  In96  1  0.66347036  0.33267214  0.00308259  1
  In  In97  1  0.83025612  0.16252138  -0.00006653  1
  In  In98  1  0.16524880  0.16608936  0.25236382  1
  In  In99  1  0.49957273  0.16781928  0.00069697  1
  In  In100  1  -0.00141176  0.66624257  0.50038094  1
  In  In101  1  0.83188026  0.49778130  0.25262219  1
  In  In102  1  0.00099440  0.66751532  0.75162110  1
  In  In103  1  0.33448550  -0.00096952  0.24836517  1
  In  In104  1  0.50008959  0.83345131  0.24971278  1
  In  In105  1  0.33776430  0.33266428  0.75063597  1
  In  In106  1  0.33766896  0.33330401  -0.00084064  1
  In  In107  1  0.16771827  0.16851467  0.50280882  1
  Ir  Ir108  1  0.66707874  0.66721351  0.50289561  1
  Ir  Ir109  1  0.33605463  0.33463845  0.49857081  1
  Ir  Ir110  1  0.16389058  0.83542246  0.50240902  1
  Ir  Ir111  1  0.17065547  0.50304561  -0.00406943  1
  Ir  Ir112  1  0.66761302  0.33146970  0.50024862  1
  Ir  Ir113  1  0.50068684  0.49713469  0.24954284  1
  Ir  Ir114  1  0.83070480  0.16335391  0.49943621  1
  Ir  Ir115  1  0.17231435  0.49866284  0.25169588  1
  Ir  Ir116  1  0.66485309  0.33288697  0.74492143  1
  Ir  Ir117  1  0.66596909  -0.00404742  0.00296470  1
  Ir  Ir118  1  0.16520669  0.83591212  0.74753986  1
  Ir  Ir119  1  0.50368524  0.83174168  -0.00665202  1
  Ir  Ir120  1  0.66612577  0.67122484  0.74780410  1
  Ir  Ir121  1  0.16264225  0.83732796  0.24902653  1
  Ir  Ir122  1  0.17373098  0.49307435  0.50082700  1
  Ir  Ir123  1  0.50630814  0.17144395  0.50204858  1
  Ir  Ir124  1  0.50410171  0.49795625  0.74799516  1
  Ir  Ir125  1  0.33359702  -0.00427240  -0.00046485  1
  Ir  Ir126  1  0.50006895  0.50440611  -0.00023678  1
  Ir  Ir127  1  -0.00888164  -0.00004030  0.49974693  1
  Ir  Ir128  1  0.66374563  0.33050187  0.25646022  1
  Ir  Ir129  1  0.33534786  0.66854250  -0.00182829  1
  Ir  Ir130  1  0.50502500  0.83187635  0.50644607  1
  Ir  Ir131  1  0.82935780  0.83573902  0.75007980  1
  Ir  Ir132  1  0.83023532  0.16205320  0.25587812  1
  Ir  Ir133  1  0.34020701  0.33928581  0.25464674  1
  Ir  Ir134  1  0.66017640  0.67133029  -0.00341065  1
  Ir  Ir135  1  0.83368597  0.83719264  0.24737864  1
  Ir  Ir136  1  0.82308575  0.50056269  0.50103476  1
  Ir  Ir137  1  0.66753715  0.00277453  0.50450899  1
  Ir  Ir138  1  0.83197678  0.16585842  0.74415279  1
  Ir  Ir139  1  -0.00720069  -0.00147139  0.25095636  1
  Ir  Ir140  1  0.16625760  0.83899516  0.00120425  1
  Ir  Ir141  1  0.17199359  0.49716884  0.74730845  1
  Ir  Ir142  1  -0.00218870  -0.00394189  0.00179034  1
  Ir  Ir143  1  0.50400961  0.83117918  0.74872746  1
  O  O144  1  0.31759278  0.33789486  0.13501416  1
  O  O145  1  0.30385886  0.32385855  0.61767852  1
  O  O146  1  0.31681704  0.66741259  0.11759965  1
  O  O147  1  0.31246973  0.64979857  0.62523974  1
  O  O148  1  0.30296344  0.99440621  0.11723281  1
  O  O149  1  0.32201473  0.98091864  0.62345627  1
  O  O150  1  0.62991867  0.31793849  0.13707204  1
  O  O151  1  0.63597284  0.32126051  0.62106997  1
  O  O152  1  0.63224695  0.66895801  0.11527425  1
  O  O153  1  0.64418110  0.65436193  0.62507283  1
  O  O154  1  0.63022235  0.98465013  0.11894980  1
  O  O155  1  0.64995481  0.99446862  0.62466406  1
  O  O156  1  0.98490496  0.33854514  0.12661144  1
  O  O157  1  0.96152841  0.31856610  0.61986129  1
  O  O158  1  0.98787159  0.66608355  0.12602590  1
  O  O159  1  0.98417830  0.66388118  0.62588806  1
  O  O160  1  0.96645376  0.98656010  0.12661606  1
  O  O161  1  0.96211461  0.98800240  0.61971861  1
  O  O162  1  0.18244807  0.14681978  0.12516684  1
  O  O163  1  0.20949897  0.16394715  0.62547494  1
  O  O164  1  0.18995925  0.50520843  0.12564694  1
  O  O165  1  0.20580267  0.48878892  0.62405000  1
  O  O166  1  0.18283591  0.84719859  0.12542913  1
  O  O167  1  0.19529384  0.83477961  0.62563213  1
  O  O168  1  0.53894126  0.15230128  0.12393477  1
  O  O169  1  0.53595071  0.16789538  0.61961482  1
  O  O170  1  0.52577025  0.48894312  0.12438518  1
  O  O171  1  0.53723547  0.48705205  0.62812385  1
  O  O172  1  0.52970752  0.82351733  0.11213695  1
  O  O173  1  0.53515153  0.83219201  0.62825160  1
  O  O174  1  0.85236296  0.15114631  0.13565356  1
  O  O175  1  0.86247496  0.15331687  0.62090702  1
  O  O176  1  0.84756829  0.50468429  0.12599417  1
  O  O177  1  0.84145784  0.49979126  0.62022244  1
  O  O178  1  0.86744616  0.83082936  0.12971575  1
  O  O179  1  0.86368099  0.83072265  0.63147089  1
  O  O180  1  0.13334201  0.18111170  0.37902739  1
  O  O181  1  0.14612931  0.15631471  0.87429278  1
  O  O182  1  0.15225775  0.48784234  0.37674780  1
  O  O183  1  0.14113934  0.49976835  0.87130634  1
  O  O184  1  0.14300064  0.83386400  0.37431105  1
  O  O185  1  0.14591454  0.84946900  0.87458242  1
  O  O186  1  0.48360790  0.17894599  0.38198063  1
  O  O187  1  0.46022382  0.18438332  0.87553102  1
  O  O188  1  0.46963240  0.50050882  0.36870999  1
  O  O189  1  0.47088880  0.50267537  0.87510278  1
  O  O190  1  0.48615519  0.83020147  0.38552667  1
  O  O191  1  0.48009433  0.83152853  0.87059075  1
  O  O192  1  0.79750215  0.16449832  0.37850554  1
  O  O193  1  0.81423762  0.16639352  0.86477239  1
  O  O194  1  0.79543065  0.50582581  0.38327473  1
  O  O195  1  0.80697875  0.51354392  0.87412769  1
  O  O196  1  0.80837359  0.84999906  0.36890070  1
  O  O197  1  0.79727848  0.85083723  0.86979736  1
  O  O198  1  0.01553414  0.01113886  0.37610388  1
  O  O199  1  0.02537005  0.00080554  0.88004185  1
  O  O200  1  0.03074670  0.33400623  0.37945206  1
  O  O201  1  0.01544872  0.35133650  0.86839421  1
  O  O202  1  0.02364437  0.66968453  0.37746981  1
  O  O203  1  0.02543808  0.67608013  0.87419524  1
  O  O204  1  0.35604810  -0.00816883  0.37541178  1
  O  O205  1  0.35611049  0.00472345  0.88006487  1
  O  O206  1  0.37178616  0.34884953  0.37767086  1
  O  O207  1  0.37177419  0.35395038  0.87369053  1
  O  O208  1  0.34739667  0.66739311  0.37566824  1
  O  O209  1  0.34952700  0.66560997  0.87720245  1
  O  O210  1  0.69684002  0.00643107  0.38309780  1
  O  O211  1  0.70426972  0.00310939  0.88423858  1
  O  O212  1  0.68983814  0.34655673  0.37947863  1
  O  O213  1  0.68633381  0.33511296  0.86365633  1
  O  O214  1  0.69645824  0.67297844  0.38428983  1
  O  O215  1  0.69560882  0.68056451  0.87154025  1
  O  O216  1  0.07190225  0.07888588  0.02446662  1
  O  O217  1  0.05590327  0.09498294  0.51712978  1
  O  O218  1  0.08284817  0.43327321  0.00779233  1
  O  O219  1  0.08635365  0.42077753  0.52563872  1
  O  O220  1  0.07189071  0.77445458  0.02375158  1
  O  O221  1  0.07009707  0.77003206  0.52486091  1
  O  O222  1  0.40746783  0.08340513  0.02276242  1
  O  O223  1  0.41124840  0.10599161  0.52389752  1
  O  O224  1  0.41418418  0.43299376  0.01699729  1
  O  O225  1  0.40564483  0.42255999  0.52909020  1
  O  O226  1  0.41269637  0.75801632  0.02077967  1
  O  O227  1  0.40941502  0.76721078  0.52722120  1
  O  O228  1  0.73459583  0.08370009  0.03610540  1
  O  O229  1  0.73326052  0.09956303  0.52690830  1
  O  O230  1  0.73970042  0.42100085  0.01514775  1
  O  O231  1  0.72914067  0.42927840  0.52732734  1
  O  O232  1  0.72164546  0.76780800  0.01488618  1
  O  O233  1  0.72788671  0.76438179  0.52902849  1
  O  O234  1  0.09319882  0.25813754  0.01117475  1
  O  O235  1  0.09171510  0.25700290  0.53928370  1
  O  O236  1  0.09611520  0.58768713  0.00679797  1
  O  O237  1  0.09967207  0.58054648  0.51407232  1
  O  O238  1  0.09601348  0.93151954  0.02572847  1
  O  O239  1  0.08209180  0.92676163  0.52573356  1
  O  O240  1  0.43423499  0.26797090  0.03395770  1
  O  O241  1  0.43620671  0.26780594  0.52422089  1
  O  O242  1  0.43259651  0.60197039  0.02049438  1
  O  O243  1  0.42541444  0.58492439  0.52251092  1
  O  O244  1  0.43250112  0.92640625  0.02173885  1
  O  O245  1  0.43284620  0.91805754  0.52153387  1
  O  O246  1  0.74433491  0.24380486  0.02670817  1
  O  O247  1  0.76346366  0.26090872  0.52818022  1
  O  O248  1  0.75201355  0.60676934  0.00912081  1
  O  O249  1  0.75713266  0.59637080  0.52165553  1
  O  O250  1  0.75535384  0.92769217  0.03461593  1
  O  O251  1  0.75958453  0.93290843  0.52709817  1
  O  O252  1  0.24107886  0.07501827  0.26523638  1
  O  O253  1  0.23533542  0.06383738  0.77828323  1
  O  O254  1  0.24684497  0.40733767  0.28011917  1
  O  O255  1  0.24473807  0.41112186  0.76639369  1
  O  O256  1  0.23279302  0.74601159  0.25880230  1
  O  O257  1  0.23662878  0.74681916  0.76042562  1
  O  O258  1  0.58266640  0.07794484  0.27744059  1
  O  O259  1  0.57445575  0.07553836  0.76947993  1
  O  O260  1  0.56773505  0.39874430  0.27968316  1
  O  O261  1  0.56761697  0.39836238  0.76907168  1
  O  O262  1  0.57093603  0.73493516  0.25681502  1
  O  O263  1  0.57651202  0.74193184  0.76967235  1
  O  O264  1  0.89489060  0.06451169  0.27776505  1
  O  O265  1  0.89003588  0.06636149  0.76406344  1
  O  O266  1  0.90768957  0.40690896  0.27263885  1
  O  O267  1  0.89795146  0.40201758  0.74553198  1
  O  O268  1  0.89305344  0.74326563  0.27505673  1
  O  O269  1  0.89023143  0.74182297  0.77621298  1
  O  O270  1  0.26608615  0.25382858  0.27491880  1
  O  O271  1  0.27266192  0.23343790  0.77650825  1
  O  O272  1  0.26606452  0.56455139  0.27094902  1
  O  O273  1  0.26526017  0.56384910  0.77010880  1
  O  O274  1  0.25124992  0.90592958  0.26180495  1
  O  O275  1  0.25395522  0.90498568  0.76409571  1
  O  O276  1  0.60118570  0.23816245  0.28276514  1
  O  O277  1  0.59376677  0.24641389  0.76584918  1
  O  O278  1  0.59370385  0.55997858  0.27404834  1
  O  O279  1  0.59833457  0.57176332  0.76121891  1
  O  O280  1  0.60056501  0.90025698  0.25737863  1
  O  O281  1  0.60075929  0.89764199  0.76707169  1
  O  O282  1  0.92604042  0.22473204  0.27662918  1
  O  O283  1  0.92611730  0.22742623  0.75750056  1
  O  O284  1  0.91690342  0.58293663  0.27914663  1
  O  O285  1  0.92872503  0.57152035  0.77801340  1
  O  O286  1  0.92498830  0.90623293  0.26922003  1
  O  O287  1  0.91811099  0.90716976  0.77033986  1
  O  O288  1  0.26314406  0.25144309  0.47284884  1
  O  O289  1  0.27051627  0.23417966  0.97648397  1
  O  O290  1  0.26637403  0.55859956  0.48149468  1
  O  O291  1  0.26913736  0.57226754  0.97534035  1
  O  O292  1  0.25306320  0.90382302  0.49077733  1
  O  O293  1  0.25595546  0.91198880  0.97339827  1
  O  O294  1  0.60406865  0.23599734  0.47499971  1
  O  O295  1  0.58385748  0.24966528  0.96892503  1
  O  O296  1  0.60578843  0.56808379  0.48015428  1
  O  O297  1  0.59163727  0.57616718  0.98063558  1
  O  O298  1  0.60070773  0.90364061  0.49173588  1
  O  O299  1  0.60114198  0.89932323  0.97211085  1
  O  O300  1  0.92740973  0.22349894  0.47663727  1
  O  O301  1  0.91784502  0.24104378  0.98863556  1
  O  O302  1  0.91190546  0.57121026  0.47988064  1
  O  O303  1  0.92491358  0.57895327  0.97067273  1
  O  O304  1  0.92095590  0.91165735  0.48145917  1
  O  O305  1  0.92222211  0.91165395  0.98090573  1
  O  O306  1  0.24122406  0.07611936  0.48213266  1
  O  O307  1  0.24292664  0.06428966  0.97586761  1
  O  O308  1  0.24248769  0.40021468  0.47239779  1
  O  O309  1  0.24786902  0.41797917  0.97740833  1
  O  O310  1  0.23632363  0.74676774  0.49010287  1
  O  O311  1  0.24066704  0.74168899  0.98292689  1
  O  O312  1  0.57702666  0.07824593  0.47694213  1
  O  O313  1  0.57913936  0.06659328  0.98082931  1
  O  O314  1  0.57244437  0.39770303  0.47548318  1
  O  O315  1  0.56353282  0.40855644  0.98191117  1
  O  O316  1  0.57352078  0.73471147  0.48782040  1
  O  O317  1  0.57230561  0.74124149  0.96966587  1
  O  O318  1  0.89308068  0.06572842  0.47566361  1
  O  O319  1  0.89988311  0.06041342  0.98198023  1
  O  O320  1  0.89315380  0.40834236  0.49219848  1
  O  O321  1  0.91747630  0.41930808  0.97506009  1
  O  O322  1  0.89588315  0.73451858  0.47585315  1
  O  O323  1  0.89384324  0.73670390  0.97495141  1
  O  O324  1  0.10001100  0.26415928  0.23808486  1
  O  O325  1  0.09653731  0.26270874  0.71994452  1
  O  O326  1  0.10039405  0.58719778  0.24021907  1
  O  O327  1  0.10011803  0.58323809  0.73355727  1
  O  O328  1  0.08998905  0.93284245  0.22401510  1
  O  O329  1  0.08953751  0.92232851  0.72956029  1
  O  O330  1  0.43655297  0.27347464  0.23662055  1
  O  O331  1  0.43202700  0.26509592  0.71170969  1
  O  O332  1  0.43897893  0.59147751  0.22383506  1
  O  O333  1  0.42805851  0.58317914  0.73007055  1
  O  O334  1  0.43273024  0.92952320  0.21992405  1
  O  O335  1  0.43012391  0.91749746  0.73214672  1
  O  O336  1  0.75709092  0.25600047  0.22973182  1
  O  O337  1  0.76202385  0.26378786  0.71700218  1
  O  O338  1  0.75686101  0.59579019  0.24388514  1
  O  O339  1  0.75297023  0.59754091  0.73329309  1
  O  O340  1  0.77131115  0.93347350  0.22460334  1
  O  O341  1  0.76634318  0.93064444  0.72332305  1
  O  O342  1  0.06134676  0.08871619  0.24186284  1
  O  O343  1  0.06429970  0.09812402  0.71827641  1
  O  O344  1  0.08646016  0.42767673  0.24085371  1
  O  O345  1  0.08724028  0.42342583  0.71932785  1
  O  O346  1  0.06872387  0.77350804  0.22948406  1
  O  O347  1  0.07138897  0.77016795  0.72522241  1
  O  O348  1  0.41497152  0.09029449  0.22603779  1
  O  O349  1  0.39719250  0.10249121  0.72591937  1
  O  O350  1  0.41000995  0.42915615  0.22988349  1
  O  O351  1  0.41344993  0.43007171  0.71911876  1
  O  O352  1  0.41283952  0.75345861  0.22746676  1
  O  O353  1  0.40844960  0.76483064  0.72651475  1
  O  O354  1  0.73832930  0.09608690  0.23059039  1
  O  O355  1  0.73931378  0.10125426  0.72032708  1
  O  O356  1  0.72882119  0.42276312  0.24069961  1
  O  O357  1  0.73097121  0.42463746  0.71958454  1
  O  O358  1  0.73946989  0.77435489  0.22280892  1
  O  O359  1  0.72946105  0.77214081  0.72923880  1
