# generated using pymatgen
data_BaLaInIrO6
_symmetry_space_group_name_H-M   'P 1'
_cell_length_a   17.50213153
_cell_length_b   17.53160922
_cell_length_c   16.48642665
_cell_angle_alpha   89.98090136
_cell_angle_beta   89.99079376
_cell_angle_gamma   90.02266848
_symmetry_Int_Tables_number   1
_chemical_formula_structural   BaLaInIrO6
_chemical_formula_sum   'Ba36 La36 In36 Ir36 O216'
_cell_volume   5058.70315792
_cell_formula_units_Z   36
loop_
 _symmetry_equiv_pos_site_id
 _symmetry_equiv_pos_as_xyz
  1  'x, y, z'
loop_
 _atom_site_type_symbol
 _atom_site_label
 _atom_site_symmetry_multiplicity
 _atom_site_fract_x
 _atom_site_fract_y
 _atom_site_fract_z
 _atom_site_occupancy
  Ba  Ba0  1  0.16253350  0.67896525  0.12654383  1
  Ba  Ba1  1  0.49807838  0.99279017  0.87268866  1
  Ba  Ba2  1  0.33460498  0.15614458  0.87451673  1
  Ba  Ba3  1  0.33425999  0.17029024  0.12557861  1
  Ba  Ba4  1  0.17076830  0.65818787  0.87636560  1
  Ba  Ba5  1  0.66873834  0.84010230  0.12552138  1
  Ba  Ba6  1  0.83101409  0.67632217  0.12921677  1
  Ba  Ba7  1  0.16262327  0.00754256  0.12765988  1
  Ba  Ba8  1  0.83456364  0.65838828  0.37738071  1
  Ba  Ba9  1  0.49657710  0.67817600  0.63009892  1
  Ba  Ba10  1  0.49891935  0.32423781  0.37687169  1
  Ba  Ba11  1  0.50091883  0.33613232  0.12760264  1
  Ba  Ba12  1  0.33252625  0.83800423  0.12456420  1
  Ba  Ba13  1  0.16087049  0.33934071  0.12554235  1
  Ba  Ba14  1  0.66808641  0.49473695  0.37486655  1
  Ba  Ba15  1  0.50195394  0.32548852  0.87270390  1
  Ba  Ba16  1  0.33190257  0.49063037  0.37767528  1
  Ba  Ba17  1  0.83855367  0.00704338  0.62167809  1
  Ba  Ba18  1  0.16578720  0.67752203  0.61755370  1
  Ba  Ba19  1  0.49869089  0.66093959  0.88076838  1
  Ba  Ba20  1  0.50210473  0.00270760  0.11885358  1
  Ba  Ba21  1  0.50025074  0.67469979  0.13067905  1
  Ba  Ba22  1  0.66508221  0.51084040  0.62592363  1
  Ba  Ba23  1  1.00189786  0.17725822  0.12658427  1
  Ba  Ba24  1  0.66771742  0.15791011  0.37616317  1
  Ba  Ba25  1  0.83024812  0.67254840  0.62827451  1
  Ba  Ba26  1  0.33314205  0.17663764  0.62542979  1
  Ba  Ba27  1  0.16199706  0.65971148  0.37237248  1
  Ba  Ba28  1  1.00178378  0.51428302  0.12207080  1
  Ba  Ba29  1  -0.00064643  0.49116184  0.86966434  1
  Ba  Ba30  1  1.00224586  0.84067048  0.13143923  1
  Ba  Ba31  1  0.66746296  0.49418581  0.87222577  1
  Ba  Ba32  1  -0.00421626  0.81912912  0.37453219  1
  Ba  Ba33  1  0.66158577  0.82485799  0.87692109  1
  Ba  Ba34  1  0.83513165  0.99222877  0.37660126  1
  Ba  Ba35  1  0.83291064  0.34577744  0.62706846  1
  La  La36  1  0.84369416  0.32104179  0.38291791  1
  La  La37  1  0.82762121  0.01155317  0.12621463  1
  La  La38  1  -0.00757781  0.49518637  0.37477593  1
  La  La39  1  0.33698015  0.85027055  0.62725467  1
  La  La40  1  0.67055539  0.18273495  0.62448620  1
  La  La41  1  0.33088653  0.82194337  0.37103375  1
  La  La42  1  1.00082659  0.51891681  0.62247830  1
  La  La43  1  0.16699556  0.98459409  0.37298562  1
  La  La44  1  0.33458407  0.14937923  0.37224956  1
  La  La45  1  0.82690041  0.34958557  0.11922447  1
  La  La46  1  1.00834241  0.18605207  0.61905611  1
  La  La47  1  0.16984952  0.32241266  0.87603147  1
  La  La48  1  0.99444126  0.83322723  0.61640525  1
  La  La49  1  0.16170030  0.35015309  0.62626058  1
  La  La50  1  0.33908205  0.51739480  0.62778673  1
  La  La51  1  0.50430998  0.99013238  0.37280856  1
  La  La52  1  0.50610805  0.64822691  0.37830344  1
  La  La53  1  -0.00259168  0.81598262  0.87884335  1
  La  La54  1  0.49757502  0.00974156  0.62501619  1
  La  La55  1  0.67054429  0.18047715  0.12363464  1
  La  La56  1  0.32675161  0.48365190  0.87988512  1
  La  La57  1  -0.00021839  0.15385838  0.87550765  1
  La  La58  1  0.66388252  0.82064425  0.37699830  1
  La  La59  1  0.17343991  0.98238345  0.87456313  1
  La  La60  1  0.16986263  0.31433503  0.37737285  1
  La  La61  1  0.66128466  0.15148476  0.86852465  1
  La  La62  1  -0.00420509  0.15167349  0.37262631  1
  La  La63  1  0.83762783  0.98302797  0.87166952  1
  La  La64  1  0.49667556  0.35290855  0.62203615  1
  La  La65  1  0.66901907  0.84390355  0.62920253  1
  La  La66  1  0.16203429  0.01383442  0.62302574  1
  La  La67  1  0.33652576  0.51263364  0.12742222  1
  La  La68  1  0.67397247  0.51387670  0.11770479  1
  La  La69  1  0.83957086  0.31802593  0.87058125  1
  La  La70  1  0.83671571  0.64974855  0.87701065  1
  La  La71  1  0.33726700  0.82556062  0.87769783  1
  In  In72  1  0.49895321  0.16626829  0.50102886  1
  In  In73  1  0.32939974  -0.00178983  0.00215795  1
  In  In74  1  0.66969208  0.33456361  0.49936269  1
  In  In75  1  0.67160554  0.33361433  0.25083076  1
  In  In76  1  0.16779374  0.50252755  0.74708866  1
  In  In77  1  0.50168087  0.49581823  0.24871268  1
  In  In78  1  0.50297432  0.16513678  -0.00254089  1
  In  In79  1  0.33235043  0.66597671  0.25330076  1
  In  In80  1  -0.00122429  -0.00028410  -0.00076167  1
  In  In81  1  0.50327631  0.16325736  0.24894716  1
  In  In82  1  0.00095646  0.33362167  0.25217799  1
  In  In83  1  0.49977182  0.16991502  0.74474756  1
  In  In84  1  0.33245941  0.66509485  0.00123320  1
  In  In85  1  0.66788067  0.66808837  -0.00282264  1
  In  In86  1  0.50122582  0.49773210  0.00269996  1
  In  In87  1  0.83466733  0.16268087  0.74871738  1
  In  In88  1  0.16721387  0.83450424  0.74484397  1
  In  In89  1  0.83334287  0.49791489  0.25021448  1
  In  In90  1  0.00314641  -0.00135427  0.50002250  1
  In  In91  1  0.16245222  0.16493319  -0.00102347  1
  In  In92  1  0.49845253  0.50230152  0.75496493  1
  In  In93  1  0.83002304  0.83195591  0.50154570  1
  In  In94  1  0.16529712  0.16737404  0.74745044  1
  In  In95  1  0.33170294  0.33059441  0.00329800  1
  In  In96  1  0.32968438  0.33146413  0.25162313  1
  In  In97  1  0.33328550  0.67072207  0.50002263  1
  In  In98  1  0.16394789  0.49729397  0.00025377  1
  In  In99  1  0.00442559  -0.00198577  0.75048944  1
  In  In100  1  -0.00143799  0.67029418  0.74935784  1
  In  In101  1  0.49816436  0.83380628  0.50083379  1
  In  In102  1  0.66596729  0.66867667  0.25292412  1
  In  In103  1  0.83533890  0.16785083  0.24830709  1
  In  In104  1  0.83576128  0.83419396  0.00137144  1
  In  In105  1  0.66566303  -0.00037180  0.50095193  1
  In  In106  1  0.67052299  0.00098464  -0.00259646  1
  In  In107  1  0.16694129  0.49816335  0.49718406  1
  Ir  Ir108  1  -0.00052932  0.66639713  0.49861230  1
  Ir  Ir109  1  0.66815765  0.67036166  0.74859403  1
  Ir  Ir110  1  0.00361222  0.33602600  0.50432982  1
  Ir  Ir111  1  0.83897531  0.16938795  0.50245485  1
  Ir  Ir112  1  0.16129958  0.49829541  0.25338283  1
  Ir  Ir113  1  0.33275944  -0.00267248  0.25641286  1
  Ir  Ir114  1  0.16263862  0.83285922  -0.00037838  1
  Ir  Ir115  1  0.00077254  0.66566105  0.25103265  1
  Ir  Ir116  1  0.16784216  0.16607668  0.49838771  1
  Ir  Ir117  1  0.49670201  0.83934961  0.25322188  1
  Ir  Ir118  1  0.83221402  0.16821566  -0.00489198  1
  Ir  Ir119  1  0.67042503  0.33282049  0.75016263  1
  Ir  Ir120  1  0.83166180  0.83255611  0.75300744  1
  Ir  Ir121  1  0.32901180  0.33069903  0.50376075  1
  Ir  Ir122  1  0.32978569  0.33499079  0.74397598  1
  Ir  Ir123  1  0.32976248  0.00032573  0.50029114  1
  Ir  Ir124  1  0.66822531  -0.00277307  0.25083629  1
  Ir  Ir125  1  0.83527334  0.50032586  0.50408945  1
  Ir  Ir126  1  0.16428411  0.16136683  0.25849563  1
  Ir  Ir127  1  0.33354399  0.67012801  0.75075208  1
  Ir  Ir128  1  0.66264679  0.66609580  0.50447801  1
  Ir  Ir129  1  0.83335556  0.83797952  0.25210295  1
  Ir  Ir130  1  0.50212046  0.83521608  0.74912609  1
  Ir  Ir131  1  -0.00042231  0.66789719  0.00040859  1
  Ir  Ir132  1  0.66777591  -0.00272410  0.74618087  1
  Ir  Ir133  1  0.16509210  0.83591872  0.25330027  1
  Ir  Ir134  1  -0.00548021  0.33242842  -0.00623474  1
  Ir  Ir135  1  -0.00093335  -0.00073821  0.25132647  1
  Ir  Ir136  1  0.49811795  0.83427800  0.00121718  1
  Ir  Ir137  1  0.67631792  0.33112474  -0.00737575  1
  Ir  Ir138  1  0.17174678  0.83800117  0.49581923  1
  Ir  Ir139  1  0.33210727  -0.00538840  0.74630619  1
  Ir  Ir140  1  0.83658267  0.49713566  -0.00505091  1
  Ir  Ir141  1  0.83239370  0.49781964  0.74990557  1
  Ir  Ir142  1  0.49674378  0.49978478  0.50404920  1
  Ir  Ir143  1  -0.00030314  0.33492187  0.74766170  1
  O  O144  1  0.30478374  0.32187264  0.12838952  1
  O  O145  1  0.29772966  0.32954243  0.62341829  1
  O  O146  1  0.31147709  0.65978771  0.12843618  1
  O  O147  1  0.31703728  0.65684865  0.63005969  1
  O  O148  1  0.31085040  0.99466073  0.13606356  1
  O  O149  1  0.29721295  0.98984082  0.62206246  1
  O  O150  1  0.65658055  0.31864188  0.11101488  1
  O  O151  1  0.64027953  0.32201147  0.63066898  1
  O  O152  1  0.65397376  0.65567751  0.12591289  1
  O  O153  1  0.64437873  0.67032211  0.62630236  1
  O  O154  1  0.65657611  0.99787590  0.13087161  1
  O  O155  1  0.63288564  0.98471609  0.62920598  1
  O  O156  1  0.96556860  0.33034348  0.11612950  1
  O  O157  1  0.97731151  0.32055358  0.62543511  1
  O  O158  1  0.98048380  0.67448574  0.12680632  1
  O  O159  1  0.98267864  0.67460732  0.61934213  1
  O  O160  1  0.96720191  0.99682090  0.12962472  1
  O  O161  1  0.99139275  0.97363544  0.62608936  1
  O  O162  1  0.18185739  0.16280527  0.13672503  1
  O  O163  1  0.18775678  0.15363812  0.61845534  1
  O  O164  1  0.19450179  0.49477783  0.13264129  1
  O  O165  1  0.20236429  0.48852428  0.62393475  1
  O  O166  1  0.18338499  0.83554114  0.12720925  1
  O  O167  1  0.19919090  0.83514981  0.61554397  1
  O  O168  1  0.53574288  0.15860633  0.12266049  1
  O  O169  1  0.53312119  0.14941567  0.62511830  1
  O  O170  1  0.54225307  0.49241933  0.12531679  1
  O  O171  1  0.50948406  0.49549891  0.62564024  1
  O  O172  1  0.51986197  0.83387502  0.12742216  1
  O  O173  1  0.53107458  0.83683770  0.62970208  1
  O  O174  1  0.85494130  0.15245604  0.11548842  1
  O  O175  1  0.87119809  0.16463881  0.62187305  1
  O  O176  1  0.85508151  0.48887004  0.11507109  1
  O  O177  1  0.86374779  0.49952063  0.62666822  1
  O  O178  1  0.85168929  0.84134634  0.13246224  1
  O  O179  1  0.86066735  0.82757442  0.63414506  1
  O  O180  1  0.13260293  0.17210072  0.38015876  1
  O  O181  1  0.13190524  0.18147009  0.86915727  1
  O  O182  1  0.12845484  0.50168215  0.37291355  1
  O  O183  1  0.14899057  0.49927616  0.87090154  1
  O  O184  1  0.14267797  0.84649673  0.37516623  1
  O  O185  1  0.13764292  0.83765039  0.87846352  1
  O  O186  1  0.47229398  0.16261130  0.37686372  1
  O  O187  1  0.48727079  0.16925363  0.86787894  1
  O  O188  1  0.48147911  0.50352169  0.38478626  1
  O  O189  1  0.46583688  0.49372899  0.87591669  1
  O  O190  1  0.46667702  0.85165906  0.37221048  1
  O  O191  1  0.47230211  0.83457050  0.87494664  1
  O  O192  1  0.81699016  0.17675617  0.38157378  1
  O  O193  1  0.80055898  0.17832035  0.87611931  1
  O  O194  1  0.82219171  0.50034104  0.38410554  1
  O  O195  1  0.81543019  0.51121496  0.87256700  1
  O  O196  1  0.80405633  0.83690002  0.37244340  1
  O  O197  1  0.80957609  0.84472949  0.86963769  1
  O  O198  1  0.02880905  0.01000334  0.37261170  1
  O  O199  1  0.03784760  0.01502418  0.87296427  1
  O  O200  1  0.03247339  0.35004448  0.38578981  1
  O  O201  1  0.02914402  0.33631077  0.87001451  1
  O  O202  1  0.01378334  0.64957071  0.37474051  1
  O  O203  1  0.01910819  0.67325125  0.87901142  1
  O  O204  1  0.36383817  0.00596566  0.37932198  1
  O  O205  1  0.34723836  -0.00765860  0.86603053  1
  O  O206  1  0.34866201  0.33375032  0.38545779  1
  O  O207  1  0.35221422  0.34559695  0.86251657  1
  O  O208  1  0.36815097  0.68156224  0.37656852  1
  O  O209  1  0.34767768  0.68681626  0.87053741  1
  O  O210  1  0.68659751  -0.00072351  0.36988948  1
  O  O211  1  0.70290801  0.00884995  0.86474428  1
  O  O212  1  0.70880937  0.33510966  0.37694019  1
  O  O213  1  0.70485951  0.33911730  0.87099473  1
  O  O214  1  0.68264591  0.67616904  0.38523295  1
  O  O215  1  0.69903193  0.67070485  0.86671126  1
  O  O216  1  0.06076766  0.10137996  0.00984542  1
  O  O217  1  0.07320105  0.10060219  0.52279768  1
  O  O218  1  0.06304244  0.42194074  0.01351156  1
  O  O219  1  0.06835873  0.42772063  0.53620906  1
  O  O220  1  0.06415362  0.76625878  0.01132941  1
  O  O221  1  0.07129865  0.76960594  0.51747959  1
  O  O222  1  0.40952384  0.08568679  0.01123168  1
  O  O223  1  0.39735744  0.09105932  0.51862381  1
  O  O224  1  0.39579914  0.43398859  0.02336445  1
  O  O225  1  0.39799856  0.42801596  0.53083381  1
  O  O226  1  0.40849317  0.76291540  0.00799118  1
  O  O227  1  0.39761625  0.77229457  0.52543221  1
  O  O228  1  0.73958267  0.10624423  0.02040069  1
  O  O229  1  0.74313160  0.10102155  0.52542583  1
  O  O230  1  0.74229004  0.42816947  0.02062368  1
  O  O231  1  0.74521691  0.43081057  0.51985420  1
  O  O232  1  0.74474015  0.75914000  0.01464611  1
  O  O233  1  0.72649814  0.76283708  0.52040307  1
  O  O234  1  0.08390345  0.26600138  0.01053242  1
  O  O235  1  0.10108825  0.26498582  0.52655920  1
  O  O236  1  0.08922971  0.59685637  0.01462058  1
  O  O237  1  0.08469356  0.59024766  0.52028021  1
  O  O238  1  0.09677493  0.92443425  0.01169487  1
  O  O239  1  0.11182836  0.93601230  0.51255736  1
  O  O240  1  0.42953013  0.25966761  0.01002843  1
  O  O241  1  0.42759943  0.26955397  0.52800098  1
  O  O242  1  0.42482665  0.59098110  0.02556676  1
  O  O243  1  0.42629586  0.58969856  0.51636042  1
  O  O244  1  0.42192204  0.91734445  0.01004058  1
  O  O245  1  0.42343940  0.93496466  0.53017302  1
  O  O246  1  0.77578411  0.26877963  0.01501755  1
  O  O247  1  0.76548539  0.25449617  0.52338980  1
  O  O248  1  0.76680312  0.58650162  0.01201764  1
  O  O249  1  0.76129651  0.59258061  0.52036789  1
  O  O250  1  0.77400255  0.94157424  0.01270439  1
  O  O251  1  0.75215592  0.92079605  0.52808397  1
  O  O252  1  0.23765079  0.06724656  0.28347190  1
  O  O253  1  0.23614227  0.06164809  0.76626785  1
  O  O254  1  0.22329928  0.40342753  0.27962921  1
  O  O255  1  0.23419740  0.39666468  0.76688734  1
  O  O256  1  0.24188901  0.75137135  0.27348950  1
  O  O257  1  0.24100049  0.73756025  0.75997076  1
  O  O258  1  0.57179256  0.05870002  0.27155949  1
  O  O259  1  0.58241434  0.06975721  0.76582066  1
  O  O260  1  0.57590276  0.40340273  0.27244839  1
  O  O261  1  0.57741358  0.40334058  0.75648863  1
  O  O262  1  0.56642769  0.74990249  0.28285077  1
  O  O263  1  0.57332608  0.74114579  0.76925193  1
  O  O264  1  0.91166836  0.07309871  0.26847062  1
  O  O265  1  0.90433890  0.06795781  0.77921184  1
  O  O266  1  0.90270190  0.40122288  0.27912039  1
  O  O267  1  0.90056814  0.40092934  0.77202663  1
  O  O268  1  0.90315663  0.74114773  0.26800431  1
  O  O269  1  0.89774495  0.74008135  0.78124510  1
  O  O270  1  0.25427675  0.22949902  0.28643060  1
  O  O271  1  0.26087431  0.24416994  0.76731413  1
  O  O272  1  0.24999915  0.56799600  0.27049570  1
  O  O273  1  0.27339226  0.57105380  0.76940616  1
  O  O274  1  0.25920488  0.90710129  0.28177979  1
  O  O275  1  0.27157857  0.89798851  0.76820371  1
  O  O276  1  0.60483834  0.23229769  0.25641119  1
  O  O277  1  0.60718630  0.23736825  0.76685413  1
  O  O278  1  0.58201962  0.58557765  0.27842357  1
  O  O279  1  0.59435067  0.58225042  0.76504012  1
  O  O280  1  0.59764872  0.90319271  0.27689171  1
  O  O281  1  0.59748813  0.90413317  0.76736804  1
  O  O282  1  0.93206094  0.23808950  0.28206861  1
  O  O283  1  0.93322049  0.24044870  0.77440630  1
  O  O284  1  0.93333085  0.57069674  0.26495944  1
  O  O285  1  0.91942032  0.57406707  0.76110996  1
  O  O286  1  0.92764655  0.90923662  0.27227696  1
  O  O287  1  0.92776350  0.89804473  0.77665595  1
  O  O288  1  0.26478023  0.23251538  0.47328194  1
  O  O289  1  0.25020954  0.24242722  0.97231576  1
  O  O290  1  0.25731199  0.57706274  0.48652523  1
  O  O291  1  0.26471318  0.56608764  0.97813263  1
  O  O292  1  0.26748577  0.90294082  0.47201993  1
  O  O293  1  0.25488618  0.90051159  0.97334812  1
  O  O294  1  0.59870516  0.23618984  0.49184863  1
  O  O295  1  0.61666309  0.23520458  0.97457073  1
  O  O296  1  0.58877112  0.57297546  0.48068446  1
  O  O297  1  0.59682677  0.57262836  0.98352483  1
  O  O298  1  0.59406938  0.89969474  0.47041315  1
  O  O299  1  0.58650113  0.90905258  0.98924293  1
  O  O300  1  0.93544527  0.24002900  0.47410449  1
  O  O301  1  0.92660385  0.23576924  0.96514784  1
  O  O302  1  0.93642127  0.56444522  0.48876126  1
  O  O303  1  0.92519478  0.57615879  0.97368386  1
  O  O304  1  0.92663655  0.90568985  0.48995526  1
  O  O305  1  0.93058406  0.90494287  0.96538724  1
  O  O306  1  0.23343499  0.06927521  0.47063472  1
  O  O307  1  0.23062719  0.06539520  0.97551283  1
  O  O308  1  0.22864300  0.38982386  0.48327062  1
  O  O309  1  0.23587113  0.40264012  0.96979832  1
  O  O310  1  0.23886850  0.74872906  0.47421598  1
  O  O311  1  0.23676328  0.74744026  0.98535741  1
  O  O312  1  0.56135445  0.05876401  0.48449863  1
  O  O313  1  0.58581342  0.07855297  0.96865425  1
  O  O314  1  0.56673674  0.40673470  0.49773549  1
  O  O315  1  0.58504662  0.39734268  0.98049134  1
  O  O316  1  0.56861230  0.73179294  0.47878257  1
  O  O317  1  0.57137206  0.74811318  0.99006449  1
  O  O318  1  0.91377133  0.08378115  0.47979570  1
  O  O319  1  0.89415253  0.07277813  0.96916505  1
  O  O320  1  0.90869825  0.40610689  0.47761741  1
  O  O321  1  0.89825780  0.39759256  0.97257192  1
  O  O322  1  0.91036324  0.73917562  0.48767290  1
  O  O323  1  0.90870737  0.73648683  0.97438607  1
  O  O324  1  0.09725619  0.25582641  0.24664669  1
  O  O325  1  0.09400622  0.27083702  0.72238834  1
  O  O326  1  0.09379797  0.59518272  0.23217129  1
  O  O327  1  0.08642236  0.59088183  0.72243989  1
  O  O328  1  0.09427192  0.93100447  0.24019846  1
  O  O329  1  0.11599847  0.94377792  0.73694956  1
  O  O330  1  0.42284296  0.25346712  0.23970346  1
  O  O331  1  0.42816554  0.27198102  0.72062153  1
  O  O332  1  0.42058875  0.58693371  0.23514921  1
  O  O333  1  0.42192645  0.59855573  0.73756214  1
  O  O334  1  0.42900385  0.93409745  0.23622552  1
  O  O335  1  0.42988849  0.92664367  0.71989129  1
  O  O336  1  0.77027262  0.26335638  0.21802459  1
  O  O337  1  0.75816315  0.25822877  0.73046490  1
  O  O338  1  0.75564909  0.58765675  0.23855319  1
  O  O339  1  0.76185284  0.59622089  0.73691760  1
  O  O340  1  0.76891041  0.93508943  0.23049924  1
  O  O341  1  0.76031324  0.92450279  0.72449862  1
  O  O342  1  0.06854750  0.09354579  0.23873704  1
  O  O343  1  0.06256174  0.10529333  0.71875441  1
  O  O344  1  0.07006197  0.43243567  0.23451305  1
  O  O345  1  0.06415222  0.42759625  0.71749518  1
  O  O346  1  0.07423661  0.76103079  0.24019557  1
  O  O347  1  0.06029386  0.77620084  0.73287252  1
  O  O348  1  0.39928387  0.08802976  0.24262305  1
  O  O349  1  0.40694263  0.08151114  0.72548372  1
  O  O350  1  0.39755780  0.43070244  0.22841605  1
  O  O351  1  0.39617273  0.42789112  0.72127322  1
  O  O352  1  0.40668838  0.77106332  0.24120716  1
  O  O353  1  0.39904313  0.77185980  0.73067773  1
  O  O354  1  0.73760503  0.09107734  0.22758552  1
  O  O355  1  0.73283857  0.09220425  0.72060242  1
  O  O356  1  0.73982860  0.42786520  0.21227753  1
  O  O357  1  0.73984419  0.42613792  0.73160646  1
  O  O358  1  0.74049161  0.76902043  0.24303864  1
  O  O359  1  0.73554983  0.76712804  0.72598274  1
