# generated using pymatgen
data_BaLaInIrO6
_symmetry_space_group_name_H-M   'P 1'
_cell_length_a   17.53791976
_cell_length_b   17.58415738
_cell_length_c   16.51051027
_cell_angle_alpha   89.99826510
_cell_angle_beta   89.97449203
_cell_angle_gamma   89.98822667
_symmetry_Int_Tables_number   1
_chemical_formula_structural   BaLaInIrO6
_chemical_formula_sum   'Ba36 La36 In36 Ir36 O216'
_cell_volume   5091.66807143
_cell_formula_units_Z   36
loop_
 _symmetry_equiv_pos_site_id
 _symmetry_equiv_pos_as_xyz
  1  'x, y, z'
loop_
 _atom_site_type_symbol
 _atom_site_label
 _atom_site_symmetry_multiplicity
 _atom_site_fract_x
 _atom_site_fract_y
 _atom_site_fract_z
 _atom_site_occupancy
  Ba  Ba0  1  0.65981480  0.48852853  0.37067709  1
  Ba  Ba1  1  0.99860296  0.50481246  0.62246224  1
  Ba  Ba2  1  0.16101096  0.99456413  0.37843432  1
  Ba  Ba3  1  1.00007291  0.17896252  0.11965426  1
  Ba  Ba4  1  0.33554727  0.82592441  0.86995862  1
  Ba  Ba5  1  -0.00217139  0.82299996  0.87587609  1
  Ba  Ba6  1  0.50414315  0.32420533  0.87492836  1
  Ba  Ba7  1  0.16866387  0.00832169  0.62701665  1
  Ba  Ba8  1  0.49955451  0.00886692  0.12528235  1
  Ba  Ba9  1  0.83345161  0.32688269  0.37360787  1
  Ba  Ba10  1  0.00014210  0.16060651  0.37205158  1
  Ba  Ba11  1  0.83274322  0.34252183  0.12503578  1
  Ba  Ba12  1  0.33487078  0.48986470  0.37625117  1
  Ba  Ba13  1  0.66470320  0.15772586  0.37112295  1
  Ba  Ba14  1  0.66289217  0.48936975  0.87612002  1
  Ba  Ba15  1  0.16933922  0.66990910  0.62559231  1
  Ba  Ba16  1  0.50474722  0.65467479  0.87559256  1
  Ba  Ba17  1  0.16857114  0.33739535  0.62397098  1
  Ba  Ba18  1  0.66367883  0.81856941  0.87816394  1
  Ba  Ba19  1  0.16607454  0.33077662  0.87243548  1
  Ba  Ba20  1  0.66823248  0.84234300  0.12550827  1
  Ba  Ba21  1  0.16660920  0.65823716  0.87412345  1
  Ba  Ba22  1  0.49836636  0.34624802  0.62481154  1
  Ba  Ba23  1  0.33094155  0.15726733  0.37308608  1
  Ba  Ba24  1  -0.00141877  0.49444593  0.87461684  1
  Ba  Ba25  1  0.33136487  0.49584386  0.87612463  1
  Ba  Ba26  1  0.49781849  0.01000502  0.62581974  1
  Ba  Ba27  1  0.99770209  0.51316554  0.12311310  1
  Ba  Ba28  1  1.00306868  0.17531298  0.62479281  1
  Ba  Ba29  1  0.33863866  0.17948853  0.62114823  1
  Ba  Ba30  1  0.16475691  0.67725337  0.12228969  1
  Ba  Ba31  1  0.83506959  0.67345987  0.12767675  1
  Ba  Ba32  1  0.82798574  0.65887688  0.37222837  1
  Ba  Ba33  1  0.83382865  0.98660329  0.88003450  1
  Ba  Ba34  1  0.66570335  0.82606071  0.37742946  1
  Ba  Ba35  1  -0.00459558  0.49473937  0.37250404  1
  La  La36  1  0.15997564  0.35604607  0.12435073  1
  La  La37  1  0.83752609  0.65429809  0.87706144  1
  La  La38  1  0.16562473  0.32123388  0.38137386  1
  La  La39  1  0.49859559  0.35012384  0.12828583  1
  La  La40  1  0.33218853  0.15277744  0.87730956  1
  La  La41  1  0.83302074  0.67993198  0.62441142  1
  La  La42  1  0.50695924  0.65017947  0.37566050  1
  La  La43  1  0.16810309  0.98570002  0.87553712  1
  La  La44  1  0.82585080  0.01056066  0.12362111  1
  La  La45  1  0.32853083  0.82070065  0.37606540  1
  La  La46  1  0.82807189  0.34981083  0.62059385  1
  La  La47  1  0.16582116  0.01013254  0.12476553  1
  La  La48  1  0.17045344  0.65028063  0.37558942  1
  La  La49  1  0.50571327  0.31477580  0.37908214  1
  La  La50  1  0.33690897  0.84947401  0.62565765  1
  La  La51  1  0.33214927  0.49965061  0.63283038  1
  La  La52  1  0.66100198  0.15049088  0.87653878  1
  La  La53  1  -0.00462647  0.82337017  0.37585950  1
  La  La54  1  -0.00270220  0.15556825  0.86718879  1
  La  La55  1  0.49741446  0.68333999  0.12349955  1
  La  La56  1  0.82638834  0.01599623  0.62994241  1
  La  La57  1  0.49674158  0.67675025  0.62354762  1
  La  La58  1  0.33811929  0.84788520  0.12037974  1
  La  La59  1  0.50541156  0.98680089  0.37463050  1
  La  La60  1  1.00339368  0.84239651  0.62539101  1
  La  La61  1  0.67235612  0.17668090  0.12169401  1
  La  La62  1  0.33477129  0.51950163  0.12685083  1
  La  La63  1  0.67294996  0.51719836  0.62547230  1
  La  La64  1  0.66938591  0.18472356  0.62840490  1
  La  La65  1  0.83910573  0.31801802  0.87667207  1
  La  La66  1  0.33654285  0.18331608  0.12819090  1
  La  La67  1  1.00178750  0.84046058  0.12354322  1
  La  La68  1  0.50888915  0.98326280  0.87898522  1
  La  La69  1  0.67629277  0.51798811  0.11774221  1
  La  La70  1  0.83625698  0.99796405  0.37061549  1
  La  La71  1  0.67327640  0.84971105  0.62770543  1
  In  In72  1  0.16663597  0.16659228  0.75463492  1
  In  In73  1  0.49987343  0.16549609  0.00334228  1
  In  In74  1  0.00302243  0.67077018  0.25182949  1
  In  In75  1  0.33566540  0.66604926  0.74698785  1
  In  In76  1  0.33650843  0.00162392  0.75372007  1
  In  In77  1  0.33291619  0.33643116  0.25038867  1
  In  In78  1  0.66638003  0.33076279  -0.00288724  1
  In  In79  1  0.33520367  -0.00069110  0.49592975  1
  In  In80  1  0.82875095  0.50333375  0.49829144  1
  In  In81  1  0.33529308  0.66533572  0.49975410  1
  In  In82  1  0.33402847  0.67017604  0.00002468  1
  In  In83  1  0.50510221  0.83105279  0.74820607  1
  In  In84  1  0.66100283  0.67072095  0.24910104  1
  In  In85  1  0.50098251  0.50169074  0.00303171  1
  In  In86  1  0.00105925  0.66775158  0.49983633  1
  In  In87  1  0.33896146  0.33169958  0.75403837  1
  In  In88  1  0.83300574  0.16512625  0.24723446  1
  In  In89  1  -0.00249993  0.33284349  0.49942412  1
  In  In90  1  -0.00616232  -0.00292548  0.50198739  1
  In  In91  1  0.16903370  0.83534694  0.25100003  1
  In  In92  1  0.82939565  0.16513513  0.50029770  1
  In  In93  1  0.16937940  0.16783903  0.24527234  1
  In  In94  1  0.66086496  0.33350352  0.24694138  1
  In  In95  1  -0.00308406  -0.00271999  0.75115340  1
  In  In96  1  0.83269588  0.83631758  0.25130363  1
  In  In97  1  0.82924303  0.50078503  0.24789498  1
  In  In98  1  0.16828074  0.16809158  0.00083816  1
  In  In99  1  0.66691249  0.00320732  0.49948469  1
  In  In100  1  -0.00255171  0.66471848  0.74897728  1
  In  In101  1  0.16677200  0.16482100  0.50164900  1
  In  In102  1  0.00102289  0.00011228  0.00292740  1
  In  In103  1  0.00213655  0.33517901  0.24822407  1
  In  In104  1  0.83085827  0.83057248  0.75287430  1
  In  In105  1  -0.00409666  0.33449962  0.74930179  1
  In  In106  1  0.33388127  0.33524584  0.00332574  1
  In  In107  1  0.50064538  0.83140136  0.49998987  1
  Ir  Ir108  1  0.67011476  0.33265685  0.74793293  1
  Ir  Ir109  1  0.33353980  -0.00173724  0.00081983  1
  Ir  Ir110  1  0.82713586  0.16757565  0.75386510  1
  Ir  Ir111  1  0.16550804  0.50108725  0.00027468  1
  Ir  Ir112  1  0.66232987  0.66732396  0.50501880  1
  Ir  Ir113  1  0.50155797  0.83501627  0.00459064  1
  Ir  Ir114  1  0.66768575  -0.00114957  0.00038026  1
  Ir  Ir115  1  0.33689047  0.66885346  0.25173951  1
  Ir  Ir116  1  0.16748833  0.49915145  0.74822877  1
  Ir  Ir117  1  0.50207347  0.16881081  0.49857824  1
  Ir  Ir118  1  0.66766252  0.66417741  0.74618863  1
  Ir  Ir119  1  0.83379322  0.83392795  0.50241690  1
  Ir  Ir120  1  0.66797729  0.66883548  -0.00221609  1
  Ir  Ir121  1  0.83392906  0.82989630  0.00211690  1
  Ir  Ir122  1  0.33660417  -0.00384364  0.24685234  1
  Ir  Ir123  1  0.17035271  0.49943782  0.49763176  1
  Ir  Ir124  1  0.49802619  0.50161003  0.25041483  1
  Ir  Ir125  1  -0.00080349  0.33687988  -0.00212282  1
  Ir  Ir126  1  0.33971712  0.33977606  0.49724699  1
  Ir  Ir127  1  0.50439615  0.16588156  0.75077312  1
  Ir  Ir128  1  0.66101790  0.33415777  0.50435637  1
  Ir  Ir129  1  0.17137395  0.50297841  0.25237821  1
  Ir  Ir130  1  0.17041120  0.83586713  -0.00087126  1
  Ir  Ir131  1  0.66438423  0.00023860  0.24605987  1
  Ir  Ir132  1  0.83300296  0.16568781  -0.00480007  1
  Ir  Ir133  1  0.50025642  0.16396142  0.24980745  1
  Ir  Ir134  1  0.50495780  0.50195187  0.50141570  1
  Ir  Ir135  1  0.50906511  0.50000904  0.74493422  1
  Ir  Ir136  1  -0.00203667  -0.00318347  0.24610893  1
  Ir  Ir137  1  0.83079074  0.50173912  -0.00514928  1
  Ir  Ir138  1  0.66576823  0.00309293  0.75300583  1
  Ir  Ir139  1  0.16529909  0.83099506  0.50164793  1
  Ir  Ir140  1  -0.00117334  0.66930574  -0.00122816  1
  Ir  Ir141  1  0.16702364  0.83311214  0.74686498  1
  Ir  Ir142  1  0.49236758  0.83479860  0.24949961  1
  Ir  Ir143  1  0.82611890  0.49867717  0.75181858  1
  O  O144  1  0.29652597  0.32305330  0.12576826  1
  O  O145  1  0.32337425  0.34236417  0.61901428  1
  O  O146  1  0.31463591  0.66212007  0.13231692  1
  O  O147  1  0.32132265  0.63857260  0.62289622  1
  O  O148  1  0.30245159  0.98507201  0.12348706  1
  O  O149  1  0.31913883  0.98858737  0.62631711  1
  O  O150  1  0.63063359  0.31196839  0.12248924  1
  O  O151  1  0.64356111  0.32152428  0.62753659  1
  O  O152  1  0.63520020  0.66460638  0.11845845  1
  O  O153  1  0.63303325  0.65941538  0.62605435  1
  O  O154  1  0.64494579  0.99545938  0.12196306  1
  O  O155  1  0.64682430  0.99042062  0.63350949  1
  O  O156  1  0.98332199  0.34026492  0.11529534  1
  O  O157  1  0.96399261  0.33475078  0.62733664  1
  O  O158  1  0.98611188  0.67620342  0.11854744  1
  O  O159  1  0.96951670  0.66927773  0.62465966  1
  O  O160  1  0.96714403  0.98458707  0.12784241  1
  O  O161  1  0.96182470  0.98342820  0.62737604  1
  O  O162  1  0.20429495  0.14662900  0.12322786  1
  O  O163  1  0.18969848  0.16484738  0.62791054  1
  O  O164  1  0.19825798  0.49522693  0.12858422  1
  O  O165  1  0.19794827  0.49584707  0.62163226  1
  O  O166  1  0.20143882  0.83438636  0.11945154  1
  O  O167  1  0.20066198  0.82833683  0.62432806  1
  O  O168  1  0.53501838  0.15766962  0.13288038  1
  O  O169  1  0.53411159  0.16297335  0.62459669  1
  O  O170  1  0.53530095  0.49241681  0.13491990  1
  O  O171  1  0.53719051  0.49855459  0.62180370  1
  O  O172  1  0.52052496  0.82249833  0.12852911  1
  O  O173  1  0.54065168  0.82150422  0.62396243  1
  O  O174  1  0.85187941  0.14971528  0.11482467  1
  O  O175  1  0.85014243  0.15640623  0.63564086  1
  O  O176  1  0.84651699  0.50169694  0.11245723  1
  O  O177  1  0.84272904  0.48957568  0.63258200  1
  O  O178  1  0.86205838  0.82987006  0.12123821  1
  O  O179  1  0.86088273  0.81712128  0.62134502  1
  O  O180  1  0.15303849  0.18090428  0.37133899  1
  O  O181  1  0.12919313  0.17037123  0.88090985  1
  O  O182  1  0.14593341  0.51211548  0.37521979  1
  O  O183  1  0.14646301  0.50195231  0.87324364  1
  O  O184  1  0.13461072  0.83776272  0.38187575  1
  O  O185  1  0.14406143  0.84664654  0.87253338  1
  O  O186  1  0.47721493  0.17796958  0.37475911  1
  O  O187  1  0.47296167  0.16738652  0.87114269  1
  O  O188  1  0.48019971  0.51526794  0.37749476  1
  O  O189  1  0.48848591  0.50116537  0.86688254  1
  O  O190  1  0.46508883  0.84363586  0.36899229  1
  O  O191  1  0.48674042  0.84134675  0.88202855  1
  O  O192  1  0.81460463  0.14645899  0.37262403  1
  O  O193  1  0.79704325  0.17859114  0.87421315  1
  O  O194  1  0.80619162  0.50074316  0.37441471  1
  O  O195  1  0.80963091  0.51467529  0.87346468  1
  O  O196  1  0.81318990  0.85783926  0.38427066  1
  O  O197  1  0.81181068  0.82914789  0.88327551  1
  O  O198  1  0.00784305  -0.00092876  0.36738322  1
  O  O199  1  0.02977673  0.00633536  0.87834876  1
  O  O200  1  0.03202124  0.33971062  0.37323167  1
  O  O201  1  0.01115115  0.33492602  0.87927090  1
  O  O202  1  0.03745785  0.68589655  0.37775645  1
  O  O203  1  0.01383234  0.66702044  0.87792047  1
  O  O204  1  0.36978654  -0.00133470  0.36446671  1
  O  O205  1  0.37176153  0.00784734  0.88411243  1
  O  O206  1  0.36946393  0.33916431  0.37720643  1
  O  O207  1  0.35691476  0.34558056  0.87909912  1
  O  O208  1  0.36960440  0.67902443  0.37115748  1
  O  O209  1  0.35343570  0.66448642  0.87342306  1
  O  O210  1  0.69605989  0.00210516  0.36644415  1
  O  O211  1  0.68837867  0.01277339  0.87749418  1
  O  O212  1  0.67797668  0.33309498  0.38308324  1
  O  O213  1  0.70015920  0.33523401  0.86758358  1
  O  O214  1  0.67551821  0.66746984  0.38392945  1
  O  O215  1  0.69957488  0.66632229  0.86964769  1
  O  O216  1  0.08360280  0.08380499  0.03257275  1
  O  O217  1  0.07078136  0.08681669  0.51069269  1
  O  O218  1  0.06991575  0.42916282  0.01838745  1
  O  O219  1  0.08302186  0.43041967  0.51367130  1
  O  O220  1  0.07078841  0.76778829  0.02115244  1
  O  O221  1  0.07220228  0.76752861  0.52800605  1
  O  O222  1  0.39566133  0.09469683  0.02481921  1
  O  O223  1  0.41515357  0.09838849  0.51281606  1
  O  O224  1  0.40362642  0.43364739  0.03757107  1
  O  O225  1  0.40578123  0.44102335  0.52125027  1
  O  O226  1  0.41108560  0.76441677  0.02869946  1
  O  O227  1  0.39974120  0.76433165  0.52872880  1
  O  O228  1  0.73827178  0.09377003  0.02187777  1
  O  O229  1  0.73022574  0.09880676  0.53357449  1
  O  O230  1  0.73896344  0.43204951  0.01890964  1
  O  O231  1  0.72695139  0.42619139  0.52798177  1
  O  O232  1  0.73999086  0.75891842  0.01843827  1
  O  O233  1  0.73090044  0.76670504  0.52635030  1
  O  O234  1  0.09504276  0.27323165  0.02181449  1
  O  O235  1  0.09728279  0.26414074  0.50839288  1
  O  O236  1  0.09251281  0.59804270  0.01450454  1
  O  O237  1  0.10144861  0.59126075  0.51061464  1
  O  O238  1  0.10014656  0.92314425  0.02505990  1
  O  O239  1  0.09352223  0.91702860  0.52550551  1
  O  O240  1  0.43411814  0.26318439  0.03588193  1
  O  O241  1  0.43587209  0.26945219  0.51031239  1
  O  O242  1  0.43007823  0.59756441  0.03049498  1
  O  O243  1  0.44635153  0.60065889  0.51328549  1
  O  O244  1  0.42506150  0.92365505  0.02390888  1
  O  O245  1  0.42402654  0.92208462  0.51870142  1
  O  O246  1  0.76100493  0.25230522  0.01899887  1
  O  O247  1  0.75481666  0.26690618  0.52684782  1
  O  O248  1  0.75958415  0.59601342  0.01791787  1
  O  O249  1  0.75608806  0.60235682  0.53275426  1
  O  O250  1  0.76597222  0.92864446  0.02443151  1
  O  O251  1  0.76473334  0.92460233  0.53344131  1
  O  O252  1  0.24417863  0.05889100  0.26182282  1
  O  O253  1  0.24308478  0.07109620  0.78997991  1
  O  O254  1  0.23142861  0.40622918  0.27328280  1
  O  O255  1  0.24428697  0.41498981  0.75830677  1
  O  O256  1  0.24482203  0.73679182  0.28293931  1
  O  O257  1  0.24083985  0.74699524  0.76172830  1
  O  O258  1  0.56580345  0.06698261  0.27514844  1
  O  O259  1  0.57213946  0.07243803  0.78095405  1
  O  O260  1  0.55406720  0.40119569  0.27121634  1
  O  O261  1  0.57694137  0.40311275  0.76598266  1
  O  O262  1  0.55640011  0.73980609  0.26927261  1
  O  O263  1  0.57651684  0.73081825  0.76552707  1
  O  O264  1  0.89846854  0.05681901  0.25754056  1
  O  O265  1  0.89750406  0.07934460  0.77379654  1
  O  O266  1  0.90750918  0.40963626  0.25997738  1
  O  O267  1  0.88754126  0.40195502  0.77168144  1
  O  O268  1  0.91338179  0.75069367  0.27976160  1
  O  O269  1  0.89151015  0.72608947  0.76681521  1
  O  O270  1  0.27031420  0.23514134  0.25933546  1
  O  O271  1  0.26906339  0.23513343  0.77807240  1
  O  O272  1  0.26768045  0.57469979  0.26998066  1
  O  O273  1  0.25631507  0.57076226  0.75932896  1
  O  O274  1  0.27383152  0.89914754  0.27068827  1
  O  O275  1  0.25140975  0.90873567  0.76695120  1
  O  O276  1  0.58263866  0.23818330  0.27273957  1
  O  O277  1  0.60625785  0.23026200  0.76931707  1
  O  O278  1  0.58103769  0.57720843  0.27004399  1
  O  O279  1  0.60674991  0.56558781  0.75783130  1
  O  O280  1  0.58346006  0.91009248  0.27540888  1
  O  O281  1  0.59559280  0.91369564  0.77298553  1
  O  O282  1  0.92584679  0.23935160  0.25772133  1
  O  O283  1  0.91707745  0.23582392  0.78154568  1
  O  O284  1  0.92197156  0.58267688  0.25939051  1
  O  O285  1  0.91583367  0.56746723  0.76506654  1
  O  O286  1  0.93638422  0.90330215  0.26798200  1
  O  O287  1  0.92349016  0.90304559  0.76806658  1
  O  O288  1  0.26791499  0.25412455  0.47989864  1
  O  O289  1  0.27426664  0.22613280  0.98095792  1
  O  O290  1  0.25625383  0.57369698  0.47674408  1
  O  O291  1  0.25833813  0.56995030  0.99640814  1
  O  O292  1  0.26137328  0.89337173  0.47833625  1
  O  O293  1  0.26227868  0.90642297  0.97471322  1
  O  O294  1  0.59415834  0.23866549  0.48482294  1
  O  O295  1  0.60214247  0.22673916  0.97479578  1
  O  O296  1  0.60277360  0.56727318  0.48891900  1
  O  O297  1  0.59931100  0.57760854  0.98785955  1
  O  O298  1  0.58964031  0.91339901  0.47930576  1
  O  O299  1  0.59168477  0.91089659  0.97775756  1
  O  O300  1  0.92240770  0.23661051  0.48268291  1
  O  O301  1  0.92664735  0.24007614  0.97080693  1
  O  O302  1  0.92216448  0.57886615  0.48552028  1
  O  O303  1  0.92202944  0.57956178  0.97441990  1
  O  O304  1  0.93384075  0.88930032  0.48564929  1
  O  O305  1  0.92477066  0.90026270  0.98897272  1
  O  O306  1  0.24458831  0.07327093  0.48137581  1
  O  O307  1  0.24219692  0.06100444  0.97222013  1
  O  O308  1  0.23977085  0.40326123  0.47523215  1
  O  O309  1  0.23000266  0.40850525  0.99207912  1
  O  O310  1  0.23438767  0.73916353  0.47267193  1
  O  O311  1  0.24005254  0.74743869  0.98129830  1
  O  O312  1  0.56516135  0.07415827  0.47470112  1
  O  O313  1  0.57312503  0.06599697  0.97533966  1
  O  O314  1  0.56426856  0.40058893  0.47919161  1
  O  O315  1  0.56936364  0.40288387  0.99435440  1
  O  O316  1  0.56391558  0.72715265  0.48088057  1
  O  O317  1  0.57038053  0.73893350  0.98696820  1
  O  O318  1  0.88466889  0.05274576  0.49298110  1
  O  O319  1  0.91209044  0.08420109  0.97241656  1
  O  O320  1  0.89881837  0.40520395  0.49370020  1
  O  O321  1  0.89757709  0.40406954  0.97379952  1
  O  O322  1  0.90007834  0.74526294  0.47701443  1
  O  O323  1  0.89978014  0.73462839  0.97851288  1
  O  O324  1  0.10266474  0.26867796  0.22106980  1
  O  O325  1  0.08636962  0.25842035  0.73710720  1
  O  O326  1  0.10638373  0.59737601  0.24321073  1
  O  O327  1  0.09215194  0.58593764  0.73438899  1
  O  O328  1  0.09454136  0.93329591  0.22261302  1
  O  O329  1  0.09196355  0.91702642  0.72802096  1
  O  O330  1  0.43414466  0.25736437  0.22306548  1
  O  O331  1  0.43771766  0.25565250  0.73312071  1
  O  O332  1  0.43169824  0.59958563  0.22332007  1
  O  O333  1  0.44294926  0.59114328  0.72372876  1
  O  O334  1  0.42322195  0.92376101  0.22303103  1
  O  O335  1  0.42390340  0.91940502  0.73781837  1
  O  O336  1  0.74771291  0.24968747  0.22765220  1
  O  O337  1  0.76411543  0.26453827  0.72378832  1
  O  O338  1  0.74483635  0.58809016  0.22371820  1
  O  O339  1  0.76335284  0.59812700  0.72211624  1
  O  O340  1  0.76262235  0.93683469  0.22662819  1
  O  O341  1  0.75676010  0.93049069  0.72730589  1
  O  O342  1  0.06930122  0.08643304  0.22820635  1
  O  O343  1  0.06790819  0.09227290  0.73970840  1
  O  O344  1  0.08326390  0.43563891  0.22795625  1
  O  O345  1  0.07904298  0.42780557  0.73593224  1
  O  O346  1  0.07169269  0.77069834  0.22486481  1
  O  O347  1  0.07415156  0.76332165  0.72769328  1
  O  O348  1  0.40207333  0.09539978  0.22320377  1
  O  O349  1  0.41336745  0.09947315  0.73434494  1
  O  O350  1  0.40557515  0.43540832  0.22163859  1
  O  O351  1  0.41274489  0.43650601  0.72989788  1
  O  O352  1  0.39910047  0.76608802  0.22310805  1
  O  O353  1  0.40954223  0.75874230  0.71511574  1
  O  O354  1  0.73251088  0.08856725  0.21691164  1
  O  O355  1  0.73315138  0.09832523  0.72720034  1
  O  O356  1  0.72765216  0.42937855  0.21903670  1
  O  O357  1  0.73321947  0.42854416  0.72226248  1
  O  O358  1  0.73850472  0.76194368  0.24298433  1
  O  O359  1  0.73160777  0.75861783  0.71983306  1
