# generated using pymatgen
data_BaLaInIrO6
_symmetry_space_group_name_H-M   'P 1'
_cell_length_a   17.54058647
_cell_length_b   17.56763317
_cell_length_c   16.51341933
_cell_angle_alpha   89.95805101
_cell_angle_beta   90.01338533
_cell_angle_gamma   90.07400968
_symmetry_Int_Tables_number   1
_chemical_formula_structural   BaLaInIrO6
_chemical_formula_sum   'Ba36 La36 In36 Ir36 O216'
_cell_volume   5088.54808840
_cell_formula_units_Z   36
loop_
 _symmetry_equiv_pos_site_id
 _symmetry_equiv_pos_as_xyz
  1  'x, y, z'
loop_
 _atom_site_type_symbol
 _atom_site_label
 _atom_site_symmetry_multiplicity
 _atom_site_fract_x
 _atom_site_fract_y
 _atom_site_fract_z
 _atom_site_occupancy
  Ba  Ba0  1  0.50080961  0.34829269  0.62989102  1
  Ba  Ba1  1  0.66217958  0.15481430  0.87554845  1
  Ba  Ba2  1  0.16956978  0.33636616  0.12695061  1
  Ba  Ba3  1  0.50023268  0.67525676  0.62609440  1
  Ba  Ba4  1  0.16459763  0.32172783  0.37532168  1
  Ba  Ba5  1  0.33170102  0.17627824  0.62775709  1
  Ba  Ba6  1  0.82793419  0.01235972  0.62547798  1
  Ba  Ba7  1  0.99806056  0.83997569  0.12134993  1
  Ba  Ba8  1  0.16792805  0.99072309  0.87567274  1
  Ba  Ba9  1  0.99687372  0.84180595  0.62157288  1
  Ba  Ba10  1  0.16269093  0.00704211  0.12311958  1
  Ba  Ba11  1  0.16631075  0.32963280  0.87678778  1
  Ba  Ba12  1  1.00421958  0.50676486  0.12796053  1
  Ba  Ba13  1  0.66647520  0.82346561  0.87492762  1
  Ba  Ba14  1  0.83056038  0.00652088  0.12293086  1
  Ba  Ba15  1  0.66872183  0.50470091  0.12467950  1
  Ba  Ba16  1  0.83422991  0.98657312  0.37610586  1
  Ba  Ba17  1  -0.00321100  0.15827453  0.87473334  1
  Ba  Ba18  1  -0.00464697  0.82919144  0.87494354  1
  Ba  Ba19  1  0.33337234  0.17635173  0.12287376  1
  Ba  Ba20  1  1.00153384  0.50934297  0.62550222  1
  Ba  Ba21  1  0.50147518  0.65580631  0.38015957  1
  Ba  Ba22  1  0.33101378  0.15595228  0.37898032  1
  Ba  Ba23  1  0.33274508  0.16023820  0.87283405  1
  Ba  Ba24  1  0.83446823  0.67078368  0.12428618  1
  Ba  Ba25  1  0.83253472  0.67585449  0.62313561  1
  Ba  Ba26  1  -0.00678111  0.15902238  0.37184897  1
  Ba  Ba27  1  0.33455680  0.83849573  0.62641554  1
  Ba  Ba28  1  0.83722164  0.32032753  0.37686904  1
  Ba  Ba29  1  0.66537042  0.82468490  0.37467470  1
  Ba  Ba30  1  -0.00129116  0.48975171  0.87512733  1
  Ba  Ba31  1  0.83290793  0.99159230  0.87389082  1
  Ba  Ba32  1  0.50436529  0.32650823  0.87177394  1
  Ba  Ba33  1  0.83714001  0.65857568  0.87557892  1
  Ba  Ba34  1  0.00182500  0.82574876  0.37032861  1
  Ba  Ba35  1  0.33144214  0.82178180  0.87187334  1
  La  La36  1  0.50412351  0.65027482  0.87091194  1
  La  La37  1  0.32737829  0.81590173  0.37779760  1
  La  La38  1  0.67415712  0.84996671  0.62126813  1
  La  La39  1  0.66343489  0.48713674  0.37678803  1
  La  La40  1  0.84162490  0.31713714  0.87340084  1
  La  La41  1  0.32983065  0.49132778  0.87286115  1
  La  La42  1  0.50361259  0.98702204  0.87366805  1
  La  La43  1  0.82970996  0.34489150  0.12794653  1
  La  La44  1  0.17409195  0.65102856  0.37825743  1
  La  La45  1  0.99888033  0.17678305  0.62285483  1
  La  La46  1  0.67386537  0.18665272  0.62611749  1
  La  La47  1  0.83539786  0.65747841  0.37104000  1
  La  La48  1  0.16031945  0.68266664  0.62521822  1
  La  La49  1  0.66965878  0.51556129  0.61995251  1
  La  La50  1  0.66431901  0.15002922  0.38168709  1
  La  La51  1  0.16910345  0.65667798  0.87507500  1
  La  La52  1  0.33757127  0.50763640  0.12148616  1
  La  La53  1  0.49622771  0.68572319  0.12343881  1
  La  La54  1  0.66529652  0.49730573  0.86572029  1
  La  La55  1  0.49759028  0.01098699  0.62868582  1
  La  La56  1  0.50938248  0.98618838  0.38006175  1
  La  La57  1  0.15822403  0.99700758  0.37565750  1
  La  La58  1  0.50105487  0.34392472  0.11683654  1
  La  La59  1  -0.00302022  0.48623387  0.37696100  1
  La  La60  1  0.15936914  0.68222676  0.12426044  1
  La  La61  1  0.33813584  0.51402930  0.62662241  1
  La  La62  1  0.33680982  0.85240101  0.12284659  1
  La  La63  1  0.67276607  0.18377880  0.12445788  1
  La  La64  1  0.82928435  0.34848129  0.62660488  1
  La  La65  1  0.33275814  0.48636495  0.37703771  1
  La  La66  1  0.16160566  0.34663121  0.61935847  1
  La  La67  1  0.50777497  0.32211385  0.37841875  1
  La  La68  1  0.67465211  0.84409558  0.12847846  1
  La  La69  1  0.16283162  0.01126866  0.63016568  1
  La  La70  1  0.49354091  0.01329275  0.12294858  1
  La  La71  1  1.00391199  0.17477052  0.12456487  1
  In  In72  1  0.16849985  0.50350720  0.74691775  1
  In  In73  1  0.16553661  0.16478247  0.49963789  1
  In  In74  1  0.16694373  0.16424131  0.24972975  1
  In  In75  1  0.50086048  0.16753214  0.50379645  1
  In  In76  1  -0.00169921  0.33477469  0.24862666  1
  In  In77  1  0.83332276  0.50099168  0.49794864  1
  In  In78  1  0.16991879  0.83430887  0.25088211  1
  In  In79  1  0.16745584  0.83947130  0.50263672  1
  In  In80  1  0.33678083  -0.00197347  0.25542944  1
  In  In81  1  0.49971457  0.50150407  0.24961391  1
  In  In82  1  0.33344158  -0.00187081  0.74875318  1
  In  In83  1  0.83163040  0.83284026  0.74744551  1
  In  In84  1  0.16532468  0.16920328  0.74810444  1
  In  In85  1  -0.00256672  0.00089109  0.74920751  1
  In  In86  1  0.49741228  0.83408776  0.24959966  1
  In  In87  1  0.50213541  0.16674700  0.00009463  1
  In  In88  1  0.50182539  0.16898998  0.74807664  1
  In  In89  1  0.82957922  0.83136196  0.00053592  1
  In  In90  1  0.50302328  0.16923873  0.25112443  1
  In  In91  1  0.33618651  0.33539435  0.50419167  1
  In  In92  1  0.66502194  0.00192877  0.24972891  1
  In  In93  1  -0.00427668  0.00054406  0.24837282  1
  In  In94  1  0.16866321  0.50055634  0.00338892  1
  In  In95  1  0.66567553  0.67005319  0.74735689  1
  In  In96  1  0.66268794  0.66479931  0.00089256  1
  In  In97  1  0.16743207  0.16648708  -0.00197812  1
  In  In98  1  0.49879418  0.83178220  0.50432796  1
  In  In99  1  0.00246895  0.66544060  -0.00186729  1
  In  In100  1  -0.00129107  0.33369546  0.74691173  1
  In  In101  1  0.67081987  0.33474429  -0.00589512  1
  In  In102  1  0.33099002  0.66509688  0.24564423  1
  In  In103  1  0.33929322  0.33565361  0.25085226  1
  In  In104  1  0.66318848  0.66324305  0.25026885  1
  In  In105  1  0.00213058  0.66674566  0.49640988  1
  In  In106  1  0.33488034  0.66720645  -0.00047473  1
  In  In107  1  0.83366437  0.49823399  -0.00089036  1
  Ir  Ir108  1  0.49987270  0.49908531  -0.00387251  1
  Ir  Ir109  1  0.83175864  0.82887493  0.25123064  1
  Ir  Ir110  1  0.50014503  0.83373511  -0.00239751  1
  Ir  Ir111  1  0.65930271  -0.00240450  -0.00126667  1
  Ir  Ir112  1  0.00454526  0.66328992  0.25186785  1
  Ir  Ir113  1  0.66856858  0.66623118  0.49855831  1
  Ir  Ir114  1  0.16752850  0.82894445  0.75186681  1
  Ir  Ir115  1  0.82866218  0.16833736  0.24768078  1
  Ir  Ir116  1  -0.00565020  0.32994762  0.00021934  1
  Ir  Ir117  1  0.49943591  0.50014929  0.74952418  1
  Ir  Ir118  1  0.83071861  0.16936685  0.50256790  1
  Ir  Ir119  1  -0.00313843  0.33253929  0.50284046  1
  Ir  Ir120  1  0.16985988  0.83271264  -0.00404449  1
  Ir  Ir121  1  0.33263505  0.33940019  0.75167213  1
  Ir  Ir122  1  0.66071443  -0.00048825  0.75026585  1
  Ir  Ir123  1  0.33187794  0.66186968  0.50079595  1
  Ir  Ir124  1  0.00327107  0.66655891  0.74705445  1
  Ir  Ir125  1  0.16834692  0.50181793  0.25689654  1
  Ir  Ir126  1  0.33761832  0.33923445  -0.00238521  1
  Ir  Ir127  1  0.33649821  -0.00355691  -0.00063382  1
  Ir  Ir128  1  0.50141565  0.83299670  0.75214381  1
  Ir  Ir129  1  0.33688930  -0.00432283  0.50166878  1
  Ir  Ir130  1  -0.00552138  0.00380919  0.50189203  1
  Ir  Ir131  1  0.66917876  0.33569146  0.50063014  1
  Ir  Ir132  1  0.50034177  0.50144802  0.50341219  1
  Ir  Ir133  1  0.83055068  0.83186716  0.49479302  1
  Ir  Ir134  1  0.66957812  0.33243109  0.25686283  1
  Ir  Ir135  1  0.16935141  0.50001985  0.49842802  1
  Ir  Ir136  1  0.83244344  0.16537262  0.00498443  1
  Ir  Ir137  1  0.33651225  0.66609638  0.74960347  1
  Ir  Ir138  1  0.67170720  0.33980544  0.74594700  1
  Ir  Ir139  1  0.82763453  0.16985605  0.74872140  1
  Ir  Ir140  1  0.83364731  0.49976006  0.25434969  1
  Ir  Ir141  1  0.83125312  0.49970244  0.74749049  1
  Ir  Ir142  1  0.66536637  0.00150022  0.50300113  1
  Ir  Ir143  1  -0.00333613  0.00116184  0.00011291  1
  O  O144  1  0.32209325  0.34426553  0.11753571  1
  O  O145  1  0.30113580  0.34227013  0.63327336  1
  O  O146  1  0.29412367  0.64639873  0.12244194  1
  O  O147  1  0.30024068  0.65495958  0.62550573  1
  O  O148  1  0.31501655  0.99037371  0.11787384  1
  O  O149  1  0.30055086  0.99211552  0.61845999  1
  O  O150  1  0.63838391  0.32478574  0.13715803  1
  O  O151  1  0.64689078  0.32443062  0.62256514  1
  O  O152  1  0.62699287  0.65487810  0.12451011  1
  O  O153  1  0.64801540  0.65252718  0.61889626  1
  O  O154  1  0.63170676  0.98749498  0.11922016  1
  O  O155  1  0.63385149  0.98997748  0.62749860  1
  O  O156  1  0.96628888  0.33071899  0.12039374  1
  O  O157  1  0.96395506  0.32671787  0.62056273  1
  O  O158  1  0.98657194  0.66203295  0.13376186  1
  O  O159  1  0.98402531  0.66450901  0.62683770  1
  O  O160  1  0.98002169  0.99847291  0.11829602  1
  O  O161  1  0.97656077  1.00022480  0.61827729  1
  O  O162  1  0.18469628  0.16599552  0.12189111  1
  O  O163  1  0.18519974  0.14570942  0.62179832  1
  O  O164  1  0.19918209  0.49478815  0.13607052  1
  O  O165  1  0.20042327  0.48891844  0.61822890  1
  O  O166  1  0.19813754  0.82344589  0.11768585  1
  O  O167  1  0.18635839  0.82031530  0.63077419  1
  O  O168  1  0.53755260  0.15408557  0.12568941  1
  O  O169  1  0.53996784  0.15421413  0.62571294  1
  O  O170  1  0.51974556  0.48056708  0.11758822  1
  O  O171  1  0.53353427  0.50057026  0.62682555  1
  O  O172  1  0.53588043  0.82446683  0.11429729  1
  O  O173  1  0.53415190  0.83006479  0.63296773  1
  O  O174  1  0.86331716  0.16395521  0.12613492  1
  O  O175  1  0.85930758  0.16877050  0.62507230  1
  O  O176  1  0.85536812  0.48767233  0.13519996  1
  O  O177  1  0.85257955  0.49229330  0.62686153  1
  O  O178  1  0.84475579  0.83342926  0.13272638  1
  O  O179  1  0.84437947  0.83447771  0.61388513  1
  O  O180  1  0.14511797  0.15330685  0.37682440  1
  O  O181  1  0.14843269  0.17389567  0.87451503  1
  O  O182  1  0.13270441  0.51288408  0.37797365  1
  O  O183  1  0.14760519  0.51590984  0.87397108  1
  O  O184  1  0.15562203  0.85519297  0.37835163  1
  O  O185  1  0.14511768  0.83063993  0.87266050  1
  O  O186  1  0.48094492  0.18647144  0.37801778  1
  O  O187  1  0.48562259  0.16955381  0.87397238  1
  O  O188  1  0.47018410  0.50161340  0.38375974  1
  O  O189  1  0.46740546  0.50977903  0.87252146  1
  O  O190  1  0.46472784  0.84364354  0.37866665  1
  O  O191  1  0.47593834  0.84779418  0.87458205  1
  O  O192  1  0.79882894  0.17028090  0.37321499  1
  O  O193  1  0.80659121  0.18233907  0.87577219  1
  O  O194  1  0.80207071  0.50914093  0.37266719  1
  O  O195  1  0.80248696  0.49943597  0.86649025  1
  O  O196  1  0.81402215  0.82157171  0.37257290  1
  O  O197  1  0.81619810  0.82891271  0.87382176  1
  O  O198  1  0.02029057  0.00413660  0.38192502  1
  O  O199  1  0.01478630  0.00175619  0.88054186  1
  O  O200  1  0.01515227  0.34194898  0.38200301  1
  O  O201  1  0.01251862  0.32764090  0.87803650  1
  O  O202  1  0.03568627  0.66502247  0.36925452  1
  O  O203  1  0.03217733  0.66737164  0.86676971  1
  O  O204  1  0.37352570  -0.00091486  0.38420932  1
  O  O205  1  0.36497481  -0.00130026  0.87932916  1
  O  O206  1  0.37178068  0.34974745  0.37815000  1
  O  O207  1  0.35933702  0.34808192  0.87448906  1
  O  O208  1  0.35329182  0.67182027  0.38007137  1
  O  O209  1  0.36920543  0.66746286  0.86962555  1
  O  O210  1  0.68780375  0.01058994  0.38337877  1
  O  O211  1  0.68575361  0.00301530  0.87415703  1
  O  O212  1  0.69279047  0.35011281  0.37938672  1
  O  O213  1  0.70386059  0.35090490  0.86558015  1
  O  O214  1  0.69718596  0.66952010  0.37930070  1
  O  O215  1  0.68284088  0.66057720  0.87264644  1
  O  O216  1  0.06502862  0.09286763  0.01894574  1
  O  O217  1  0.05832191  0.09670576  0.52371840  1
  O  O218  1  0.07190442  0.41634013  0.01506978  1
  O  O219  1  0.07684179  0.42366758  0.52403996  1
  O  O220  1  0.08415527  0.76084955  0.01746214  1
  O  O221  1  0.07944938  0.75695507  0.51556511  1
  O  O222  1  0.40954862  0.08407751  0.02248548  1
  O  O223  1  0.40599220  0.08562203  0.52478820  1
  O  O224  1  0.40572953  0.43333883  0.01919359  1
  O  O225  1  0.40507355  0.43921058  0.52804382  1
  O  O226  1  0.40752485  0.76554801  0.02893476  1
  O  O227  1  0.40216089  0.75272879  0.51601913  1
  O  O228  1  0.73082406  0.09564825  0.02709218  1
  O  O229  1  0.73045631  0.10497500  0.52147750  1
  O  O230  1  0.75008230  0.41454056  0.03002526  1
  O  O231  1  0.73491795  0.42905836  0.52485131  1
  O  O232  1  0.72840453  0.76453010  0.02805893  1
  O  O233  1  0.73253700  0.76434710  0.52077764  1
  O  O234  1  0.07759664  0.25566250  0.02507964  1
  O  O235  1  0.08660109  0.26275366  0.52865541  1
  O  O236  1  0.10467362  0.60131501  0.02284943  1
  O  O237  1  0.10552157  0.59392277  0.52191623  1
  O  O238  1  0.09025483  0.92805156  0.01483955  1
  O  O239  1  0.09545344  0.94317196  0.52019131  1
  O  O240  1  0.43037658  0.26901476  0.02043423  1
  O  O241  1  0.43152766  0.26371440  0.52314678  1
  O  O242  1  0.43389056  0.59174800  0.02473177  1
  O  O243  1  0.42242377  0.58828774  0.52856425  1
  O  O244  1  0.43319622  0.92815174  0.02421448  1
  O  O245  1  0.43207523  0.93372213  0.52960989  1
  O  O246  1  0.76429978  0.25494505  0.03097837  1
  O  O247  1  0.76476460  0.26660794  0.52795824  1
  O  O248  1  0.75502269  0.58752496  0.01538761  1
  O  O249  1  0.75625565  0.59422830  0.51546546  1
  O  O250  1  0.74539614  0.92505679  0.02001262  1
  O  O251  1  0.75352432  0.92466167  0.52114568  1
  O  O252  1  0.23473089  0.05991784  0.27373817  1
  O  O253  1  0.24018755  0.07229957  0.76140152  1
  O  O254  1  0.23834982  0.41519076  0.28070626  1
  O  O255  1  0.25071548  0.41527095  0.77491173  1
  O  O256  1  0.23376978  0.73212636  0.27920341  1
  O  O257  1  0.23557370  0.72883517  0.77071848  1
  O  O258  1  0.57359410  0.07459438  0.28728227  1
  O  O259  1  0.56894244  0.06314856  0.77049200  1
  O  O260  1  0.57512204  0.39916835  0.27938094  1
  O  O261  1  0.58291027  0.41677740  0.77528520  1
  O  O262  1  0.56620859  0.73611390  0.26145387  1
  O  O263  1  0.56252711  0.73719935  0.77504653  1
  O  O264  1  0.89527794  0.07711981  0.26547857  1
  O  O265  1  0.89700019  0.08201126  0.76475227  1
  O  O266  1  0.90862871  0.41475548  0.27515044  1
  O  O267  1  0.89624278  0.40377956  0.76578552  1
  O  O268  1  0.90481550  0.72952523  0.27358376  1
  O  O269  1  0.91344692  0.73563824  0.76047001  1
  O  O270  1  0.26380278  0.24316624  0.26440532  1
  O  O271  1  0.25999809  0.25266308  0.76563733  1
  O  O272  1  0.25915559  0.56798855  0.28452818  1
  O  O273  1  0.26887082  0.57597090  0.77256380  1
  O  O274  1  0.28055976  0.88903498  0.26236374  1
  O  O275  1  0.25673548  0.89978786  0.76443929  1
  O  O276  1  0.60947314  0.23888162  0.28124944  1
  O  O277  1  0.60239488  0.24795699  0.76009209  1
  O  O278  1  0.59999638  0.56123337  0.27879989  1
  O  O279  1  0.58942837  0.57074188  0.76934660  1
  O  O280  1  0.58744005  0.91288909  0.27482816  1
  O  O281  1  0.59118453  0.90671596  0.77412756  1
  O  O282  1  0.91719440  0.23923598  0.25973543  1
  O  O283  1  0.91638577  0.24134312  0.76543172  1
  O  O284  1  0.92831005  0.57070150  0.28320685  1
  O  O285  1  0.92662623  0.57090449  0.76787471  1
  O  O286  1  0.92043180  0.90228368  0.26422175  1
  O  O287  1  0.92246080  0.91005322  0.75734417  1
  O  O288  1  0.25632720  0.24558226  0.48780582  1
  O  O289  1  0.26574381  0.25146047  0.98406875  1
  O  O290  1  0.26301480  0.56800941  0.47299941  1
  O  O291  1  0.26782451  0.57054086  0.97040899  1
  O  O292  1  0.27674327  0.89992564  0.47862217  1
  O  O293  1  0.26567370  0.90223101  0.98451068  1
  O  O294  1  0.60627962  0.24024065  0.47870624  1
  O  O295  1  0.59930268  0.24157836  0.99353478  1
  O  O296  1  0.60326936  0.56544636  0.48042580  1
  O  O297  1  0.58686674  0.56710267  0.96426670  1
  O  O298  1  0.59325666  0.91267990  0.48283102  1
  O  O299  1  0.58765109  0.90917869  0.96969488  1
  O  O300  1  0.92907476  0.23699244  0.48740756  1
  O  O301  1  0.92017915  0.23936053  0.97925343  1
  O  O302  1  0.92834596  0.57352078  0.46964748  1
  O  O303  1  0.92905829  0.56991926  0.98656574  1
  O  O304  1  0.92648682  0.90332951  0.47907082  1
  O  O305  1  0.92233239  0.91479122  0.98835142  1
  O  O306  1  0.23978165  0.05592278  0.47849291  1
  O  O307  1  0.25007207  0.06951217  0.98278234  1
  O  O308  1  0.24019934  0.41363625  0.47537355  1
  O  O309  1  0.25058623  0.41216918  0.97893698  1
  O  O310  1  0.24145951  0.73224657  0.47836655  1
  O  O311  1  0.23401668  0.73764618  0.97535865  1
  O  O312  1  0.57325462  0.06847672  0.47846174  1
  O  O313  1  0.56809528  0.06268722  0.97870242  1
  O  O314  1  0.57341905  0.40743002  0.47470169  1
  O  O315  1  0.57566818  0.41351782  0.97648000  1
  O  O316  1  0.57926546  0.73772798  0.48501036  1
  O  O317  1  0.55563157  0.73429267  0.97485816  1
  O  O318  1  0.89855165  0.07348236  0.48290803  1
  O  O319  1  0.90447604  0.07375777  0.98296502  1
  O  O320  1  0.91132134  0.40863314  0.48323405  1
  O  O321  1  0.90270339  0.39602601  0.97621941  1
  O  O322  1  0.89813913  0.73729206  0.47657676  1
  O  O323  1  0.91258960  0.74342446  0.99102608  1
  O  O324  1  0.08499480  0.25706643  0.23212304  1
  O  O325  1  0.08955875  0.25983997  0.71047603  1
  O  O326  1  0.10346819  0.59890576  0.23005010  1
  O  O327  1  0.09951850  0.60240795  0.72521528  1
  O  O328  1  0.09520604  0.92896529  0.24320884  1
  O  O329  1  0.10186309  0.92398673  0.72925781  1
  O  O330  1  0.44730064  0.27771712  0.22750159  1
  O  O331  1  0.41958753  0.26528640  0.73457797  1
  O  O332  1  0.43155594  0.59959824  0.21792120  1
  O  O333  1  0.42482854  0.58928188  0.72448818  1
  O  O334  1  0.43162670  0.92912256  0.21279087  1
  O  O335  1  0.43689538  0.92660925  0.72907671  1
  O  O336  1  0.76159994  0.26395754  0.22210924  1
  O  O337  1  0.76318186  0.26821426  0.72171106  1
  O  O338  1  0.76563952  0.59068378  0.23814796  1
  O  O339  1  0.75584679  0.58407178  0.72699686  1
  O  O340  1  0.75538077  0.91684202  0.23485292  1
  O  O341  1  0.74696520  0.92778356  0.72938756  1
  O  O342  1  0.06259452  0.09854412  0.22466976  1
  O  O343  1  0.06647314  0.09487713  0.72269747  1
  O  O344  1  0.07613367  0.43423286  0.24510231  1
  O  O345  1  0.08267878  0.42011992  0.72607406  1
  O  O346  1  0.07505922  0.75234999  0.22867903  1
  O  O347  1  0.07625662  0.75474977  0.72428629  1
  O  O348  1  0.41121525  0.09193226  0.22842363  1
  O  O349  1  0.41482908  0.08589375  0.72219449  1
  O  O350  1  0.39476693  0.44355976  0.23320580  1
  O  O351  1  0.40214577  0.43472151  0.72911052  1
  O  O352  1  0.40013738  0.76344894  0.21624349  1
  O  O353  1  0.40962424  0.75926046  0.73145333  1
  O  O354  1  0.73308191  0.10406315  0.22890102  1
  O  O355  1  0.72740444  0.09898338  0.72630646  1
  O  O356  1  0.74365994  0.42386204  0.23293371  1
  O  O357  1  0.73808336  0.43270120  0.71756881  1
  O  O358  1  0.73822448  0.76084800  0.22921676  1
  O  O359  1  0.73263873  0.76575018  0.72063702  1
