# generated using pymatgen
data_BaLaInIrO6
_symmetry_space_group_name_H-M   'P 1'
_cell_length_a   17.53373203
_cell_length_b   17.56920396
_cell_length_c   16.51927146
_cell_angle_alpha   89.98275467
_cell_angle_beta   90.00415969
_cell_angle_gamma   90.00995343
_symmetry_Int_Tables_number   1
_chemical_formula_structural   BaLaInIrO6
_chemical_formula_sum   'Ba36 La36 In36 Ir36 O216'
_cell_volume   5088.82260870
_cell_formula_units_Z   36
loop_
 _symmetry_equiv_pos_site_id
 _symmetry_equiv_pos_as_xyz
  1  'x, y, z'
loop_
 _atom_site_type_symbol
 _atom_site_label
 _atom_site_symmetry_multiplicity
 _atom_site_fract_x
 _atom_site_fract_y
 _atom_site_fract_z
 _atom_site_occupancy
  Ba  Ba0  1  0.83527969  0.99501146  0.87521150  1
  Ba  Ba1  1  0.49902264  0.01096714  0.61846090  1
  Ba  Ba2  1  1.00333920  0.84914328  0.12689411  1
  Ba  Ba3  1  0.66542344  0.16987625  0.62495445  1
  Ba  Ba4  1  0.16340033  0.32783066  0.37393493  1
  Ba  Ba5  1  0.49860941  0.67069733  0.12338742  1
  Ba  Ba6  1  0.33344722  0.49504719  0.37433077  1
  Ba  Ba7  1  0.33476767  0.82753164  0.37670162  1
  Ba  Ba8  1  0.83537252  0.67564790  0.62202715  1
  Ba  Ba9  1  0.49920366  0.34217965  0.12899296  1
  Ba  Ba10  1  -0.00052263  0.15251146  0.87724509  1
  Ba  Ba11  1  -0.00208672  0.49311586  0.37654216  1
  Ba  Ba12  1  0.66847595  0.84013280  0.62251699  1
  Ba  Ba13  1  0.00443430  0.83113592  0.87889406  1
  Ba  Ba14  1  0.16867071  0.00541469  0.62158927  1
  Ba  Ba15  1  0.16423618  0.67761832  0.62441611  1
  Ba  Ba16  1  1.00261042  0.50983532  0.12055562  1
  Ba  Ba17  1  0.49745540  0.00727711  0.12725612  1
  Ba  Ba18  1  0.49942530  0.65820038  0.87610668  1
  Ba  Ba19  1  0.50042229  0.98884603  0.37640960  1
  Ba  Ba20  1  0.16466694  0.01109634  0.12459475  1
  Ba  Ba21  1  0.83404521  0.68204423  0.12776112  1
  Ba  Ba22  1  0.66006065  0.82328810  0.37575013  1
  Ba  Ba23  1  0.50088172  0.98762648  0.87426229  1
  Ba  Ba24  1  0.83320143  0.32390682  0.87541713  1
  Ba  Ba25  1  1.00173569  0.51334129  0.62563549  1
  Ba  Ba26  1  0.33631139  0.48800358  0.87756694  1
  Ba  Ba27  1  0.16501076  0.34269926  0.12407764  1
  Ba  Ba28  1  0.50275063  0.65735307  0.37676788  1
  Ba  Ba29  1  0.66497825  0.49114039  0.37629844  1
  Ba  Ba30  1  0.66050813  0.49062718  0.87710870  1
  Ba  Ba31  1  1.00020018  0.17459656  0.12221388  1
  Ba  Ba32  1  1.00210930  0.84308850  0.62655358  1
  Ba  Ba33  1  0.33496648  0.50765321  0.12878319  1
  Ba  Ba34  1  0.67066934  0.51827283  0.12517515  1
  Ba  Ba35  1  0.34104532  0.17489498  0.62110554  1
  La  La36  1  0.33031969  0.14880821  0.87226166  1
  La  La37  1  -0.00185106  0.14769934  0.37158049  1
  La  La38  1  0.83775788  0.65769523  0.87410087  1
  La  La39  1  0.32608293  0.82173664  0.87971335  1
  La  La40  1  0.66147619  0.14823870  0.87758427  1
  La  La41  1  0.66603443  0.82217492  0.87614103  1
  La  La42  1  0.17173710  0.65062721  0.87287917  1
  La  La43  1  0.33157642  0.15310153  0.37297306  1
  La  La44  1  0.16962890  0.65447051  0.37285267  1
  La  La45  1  0.66950046  0.51886984  0.62694912  1
  La  La46  1  -0.00359392  0.48734235  0.87216179  1
  La  La47  1  0.66364652  0.84145428  0.12254360  1
  La  La48  1  0.33408461  0.84417996  0.12496693  1
  La  La49  1  0.67062013  0.17741977  0.12530121  1
  La  La50  1  0.34111326  0.85288386  0.62722294  1
  La  La51  1  0.33874618  0.18062284  0.12493802  1
  La  La52  1  0.66013017  0.15080929  0.37528657  1
  La  La53  1  0.17062577  0.99004620  0.37174265  1
  La  La54  1  -0.00080393  0.82037991  0.37626356  1
  La  La55  1  0.83283975  0.65650189  0.37423608  1
  La  La56  1  0.83622780  0.00556207  0.12158046  1
  La  La57  1  0.82229762  0.34895470  0.62108724  1
  La  La58  1  0.49652940  0.68442180  0.62705626  1
  La  La59  1  0.16576477  0.98837711  0.87683113  1
  La  La60  1  0.82498450  0.34975643  0.12682428  1
  La  La61  1  0.83440747  0.98272814  0.37529155  1
  La  La62  1  0.82961841  0.00905488  0.62959257  1
  La  La63  1  0.16359107  0.34559186  0.62743861  1
  La  La64  1  0.50894922  0.31619223  0.88007255  1
  La  La65  1  0.33691091  0.51518816  0.62116274  1
  La  La66  1  0.49502316  0.34381150  0.62453806  1
  La  La67  1  0.50185636  0.31932824  0.37347850  1
  La  La68  1  0.17066077  0.31364913  0.87834779  1
  La  La69  1  0.84278738  0.31380049  0.37182977  1
  La  La70  1  0.16021032  0.68072431  0.12418484  1
  La  La71  1  1.00006378  0.17489548  0.62926369  1
  In  In72  1  0.66543041  -0.00464264  0.75028316  1
  In  In73  1  0.16848991  0.49766927  -0.00234307  1
  In  In74  1  0.83570755  0.83530575  -0.00093158  1
  In  In75  1  0.83200674  0.50170556  0.75090378  1
  In  In76  1  0.16648533  0.83489791  0.49994929  1
  In  In77  1  0.66321755  0.33039242  0.74816563  1
  In  In78  1  0.83291040  0.16692213  0.00158305  1
  In  In79  1  0.49971852  0.49800110  0.74865744  1
  In  In80  1  0.33301203  0.66944268  0.49975453  1
  In  In81  1  0.49940208  0.49772113  0.00169584  1
  In  In82  1  -0.00037681  0.66921288  0.24826535  1
  In  In83  1  0.82978150  0.49839309  0.49865517  1
  In  In84  1  0.33351705  -0.00022030  0.00225916  1
  In  In85  1  0.83410828  0.50345645  -0.00146190  1
  In  In86  1  0.83276944  0.16756288  0.74837373  1
  In  In87  1  0.16548070  0.16674544  0.24918903  1
  In  In88  1  0.00368178  0.67130808  0.75263423  1
  In  In89  1  0.16937648  0.16256019  0.74673682  1
  In  In90  1  0.33243571  0.66822131  0.75023577  1
  In  In91  1  -0.00337429  0.32969980  0.50136244  1
  In  In92  1  0.16672339  0.16840041  0.50100237  1
  In  In93  1  0.83252642  0.50013082  0.25050402  1
  In  In94  1  0.50135224  0.49978655  0.25222447  1
  In  In95  1  0.66642250  0.66975504  0.75130530  1
  In  In96  1  0.49895800  0.16591049  0.75041755  1
  In  In97  1  0.49932131  0.83270064  0.24860006  1
  In  In98  1  0.16802859  0.49839080  0.50179559  1
  In  In99  1  0.33191780  0.33281355  0.25321770  1
  In  In100  1  0.66837534  -0.00070699  0.24938021  1
  In  In101  1  0.83297601  0.16340776  0.49689483  1
  In  In102  1  -0.00089957  0.33273377  0.24669846  1
  In  In103  1  0.83298795  0.83307147  0.50046397  1
  In  In104  1  -0.00074186  0.33072097  0.74947162  1
  In  In105  1  0.33160917  0.67045332  0.24750311  1
  In  In106  1  0.66799293  0.33053069  0.25538825  1
  In  In107  1  0.33362955  0.33333200  0.75019844  1
  Ir  Ir108  1  0.50051948  0.83471685  0.50539721  1
  Ir  Ir109  1  0.83337481  0.83573579  0.75161266  1
  Ir  Ir110  1  0.50445241  0.49522605  0.50467611  1
  Ir  Ir111  1  0.00404098  0.00079147  0.00083627  1
  Ir  Ir112  1  0.16896789  0.16534246  -0.00277269  1
  Ir  Ir113  1  0.33695060  0.33237781  0.50005906  1
  Ir  Ir114  1  0.66981037  0.67371402  0.25001050  1
  Ir  Ir115  1  0.66673474  0.32684074  0.00256773  1
  Ir  Ir116  1  0.33615473  0.32538707  -0.00266393  1
  Ir  Ir117  1  0.33395348  -0.00391691  0.75162459  1
  Ir  Ir118  1  0.16570305  0.50459274  0.24797595  1
  Ir  Ir119  1  0.66787237  0.00102678  0.49934277  1
  Ir  Ir120  1  0.49982459  0.16599810  0.00430812  1
  Ir  Ir121  1  -0.00196399  -0.00150102  0.25431903  1
  Ir  Ir122  1  0.16703257  0.49734175  0.75303415  1
  Ir  Ir123  1  0.17127314  0.83687938  0.75324834  1
  Ir  Ir124  1  0.49607404  0.83433832  0.75252447  1
  Ir  Ir125  1  0.83408016  0.83831794  0.25200416  1
  Ir  Ir126  1  0.66367281  -0.00022184  0.00273555  1
  Ir  Ir127  1  0.16338854  0.83786858  0.25022481  1
  Ir  Ir128  1  0.33480748  0.00162040  0.49492313  1
  Ir  Ir129  1  0.00171491  0.33345778  -0.00309438  1
  Ir  Ir130  1  0.00668806  0.67066593  -0.00340692  1
  Ir  Ir131  1  0.49976500  0.83222926  -0.00324117  1
  Ir  Ir132  1  0.16823041  0.83234427  -0.00022258  1
  Ir  Ir133  1  0.66834038  0.67616006  0.00177802  1
  Ir  Ir134  1  0.32980006  -0.00055716  0.25095046  1
  Ir  Ir135  1  -0.00229155  -0.00071169  0.49714898  1
  Ir  Ir136  1  0.49936938  0.16320136  0.24974178  1
  Ir  Ir137  1  0.66219334  0.66682985  0.50017975  1
  Ir  Ir138  1  0.00156252  0.67032354  0.49654526  1
  Ir  Ir139  1  0.66300116  0.33078663  0.50017263  1
  Ir  Ir140  1  0.83062502  0.16092004  0.25036230  1
  Ir  Ir141  1  0.50062040  0.16879070  0.49339318  1
  Ir  Ir142  1  0.32779990  0.67153501  -0.00105023  1
  Ir  Ir143  1  -0.00033996  -0.00398852  0.74620347  1
  O  O144  1  0.31294957  0.31597981  0.11814163  1
  O  O145  1  0.30242635  0.32639010  0.61878246  1
  O  O146  1  0.29698329  0.67073434  0.11740043  1
  O  O147  1  0.31327597  0.65861832  0.62550977  1
  O  O148  1  0.31224768  0.98457080  0.12989953  1
  O  O149  1  0.31690352  0.98834557  0.62300446  1
  O  O150  1  0.64769134  0.31503660  0.12275380  1
  O  O151  1  0.62813424  0.32116400  0.61562107  1
  O  O152  1  0.64774130  0.68516348  0.12580734  1
  O  O153  1  0.63472232  0.66454334  0.62002116  1
  O  O154  1  0.64722720  0.98662708  0.12058243  1
  O  O155  1  0.64954234  0.99798361  0.61866906  1
  O  O156  1  0.96641153  0.33496292  0.11651323  1
  O  O157  1  0.95804719  0.31672412  0.62448483  1
  O  O158  1  0.98637926  0.66940971  0.11608950  1
  O  O159  1  0.98669264  0.67188590  0.61989699  1
  O  O160  1  0.97062167  0.99922138  0.12949084  1
  O  O161  1  0.96560087  0.99384501  0.61956534  1
  O  O162  1  0.20035430  0.16335126  0.11774660  1
  O  O163  1  0.19464156  0.15459258  0.62331252  1
  O  O164  1  0.18282403  0.50325964  0.12641120  1
  O  O165  1  0.19999793  0.48750983  0.63431923  1
  O  O166  1  0.19525341  0.82105534  0.12460822  1
  O  O167  1  0.19829623  0.83364599  0.63135862  1
  O  O168  1  0.53328906  0.16050844  0.12811090  1
  O  O169  1  0.51534669  0.16604412  0.61494811  1
  O  O170  1  0.52172597  0.49995155  0.12415174  1
  O  O171  1  0.53554766  0.47967079  0.62058609  1
  O  O172  1  0.52879049  0.83092795  0.11584779  1
  O  O173  1  0.52074006  0.82849051  0.62990059  1
  O  O174  1  0.85173433  0.14462660  0.13129212  1
  O  O175  1  0.86490625  0.14639974  0.61969143  1
  O  O176  1  0.85077181  0.49204586  0.12170835  1
  O  O177  1  0.85228789  0.48959708  0.62308919  1
  O  O178  1  0.85205695  0.84034020  0.13077139  1
  O  O179  1  0.85194090  0.83287088  0.62988873  1
  O  O180  1  0.13375365  0.16717821  0.37732546  1
  O  O181  1  0.14748658  0.17108588  0.87712252  1
  O  O182  1  0.14914596  0.51260997  0.37038708  1
  O  O183  1  0.13451094  0.50883481  0.87216096  1
  O  O184  1  0.13572433  0.85217848  0.36938674  1
  O  O185  1  0.15276472  0.85213679  0.87609336  1
  O  O186  1  0.46876640  0.17479494  0.37137027  1
  O  O187  1  0.46781213  0.17496508  0.88462455  1
  O  O188  1  0.48441984  0.50307376  0.38678961  1
  O  O189  1  0.48702630  0.50230469  0.87739370  1
  O  O190  1  0.48526344  0.83200402  0.38330300  1
  O  O191  1  0.46446781  0.83291665  0.87359350  1
  O  O192  1  0.79763191  0.17415252  0.36856364  1
  O  O193  1  0.79996391  0.16460346  0.87795371  1
  O  O194  1  0.81377587  0.51951094  0.37610838  1
  O  O195  1  0.80837095  0.51890902  0.87744469  1
  O  O196  1  0.81078805  0.84461196  0.37119737  1
  O  O197  1  0.80482763  0.84080523  0.87218859  1
  O  O198  1  0.03203226  0.00767907  0.37640521  1
  O  O199  1  0.03162748  -0.00073727  0.87298029  1
  O  O200  1  0.01389938  0.33666181  0.37442479  1
  O  O201  1  0.03513947  0.33883231  0.87792498  1
  O  O202  1  0.03064235  0.67637903  0.37607836  1
  O  O203  1  0.03795582  0.67609655  0.88024517  1
  O  O204  1  0.35488213  0.01407778  0.37235584  1
  O  O205  1  0.35069138  0.00227007  0.87313879  1
  O  O206  1  0.36773555  0.33739736  0.38275381  1
  O  O207  1  0.36948892  0.33107430  0.88024583  1
  O  O208  1  0.35135044  0.67139343  0.37508222  1
  O  O209  1  0.35071895  0.68220324  0.87918404  1
  O  O210  1  0.69539687  0.00788894  0.37814330  1
  O  O211  1  0.68290609  0.00730657  0.88352034  1
  O  O212  1  0.70214317  0.33242876  0.38410664  1
  O  O213  1  0.68335870  0.33228452  0.88395454  1
  O  O214  1  0.69586554  0.66917113  0.37398010  1
  O  O215  1  0.69552424  0.68115823  0.88122211  1
  O  O216  1  0.07726848  0.09297837  0.01783865  1
  O  O217  1  0.05712686  0.09554114  0.51951190  1
  O  O218  1  0.07192898  0.42299065  0.01156155  1
  O  O219  1  0.07949972  0.42093179  0.52565612  1
  O  O220  1  0.07757192  0.76168124  0.02444134  1
  O  O221  1  0.06635271  0.76422911  0.50587805  1
  O  O222  1  0.40305051  0.10036967  0.02390935  1
  O  O223  1  0.40650237  0.09572430  0.50771627  1
  O  O224  1  0.40136003  0.41703869  0.01843988  1
  O  O225  1  0.40716133  0.42802843  0.53128553  1
  O  O226  1  0.39656743  0.76796482  0.02070704  1
  O  O227  1  0.41054018  0.76400075  0.53221697  1
  O  O228  1  0.72920508  0.09330750  0.02606502  1
  O  O229  1  0.73783947  0.08964806  0.51431472  1
  O  O230  1  0.74060208  0.41527165  0.02135189  1
  O  O231  1  0.72525521  0.42402341  0.53079572  1
  O  O232  1  0.73136579  0.77247130  0.01585981  1
  O  O233  1  0.73646421  0.75466242  0.51137454  1
  O  O234  1  0.09749740  0.26048833  0.01357333  1
  O  O235  1  0.09272894  0.25861627  0.53851520  1
  O  O236  1  0.10145240  0.60579828  0.01538718  1
  O  O237  1  0.09197542  0.59925117  0.50898848  1
  O  O238  1  0.10197093  0.93059250  0.01099233  1
  O  O239  1  0.08929461  0.93219242  0.51266112  1
  O  O240  1  0.42734881  0.25463040  0.02694011  1
  O  O241  1  0.43573313  0.26769568  0.51667275  1
  O  O242  1  0.41400672  0.59822129  0.01359378  1
  O  O243  1  0.43842013  0.58823946  0.53292741  1
  O  O244  1  0.42565782  0.91812800  0.01951606  1
  O  O245  1  0.42250501  0.92151380  0.52272329  1
  O  O246  1  0.75961948  0.26004261  0.03191533  1
  O  O247  1  0.75915982  0.26679244  0.52359812  1
  O  O248  1  0.75999269  0.60814497  0.01531657  1
  O  O249  1  0.74929216  0.59468037  0.51905589  1
  O  O250  1  0.75821304  0.93396474  0.02357411  1
  O  O251  1  0.76461638  0.93608113  0.51680554  1
  O  O252  1  0.23873879  0.06870761  0.27453489  1
  O  O253  1  0.23939289  0.06142294  0.77691802  1
  O  O254  1  0.23585164  0.41339098  0.26308766  1
  O  O255  1  0.22821325  0.39979266  0.77680865  1
  O  O256  1  0.22529229  0.74176362  0.27018408  1
  O  O257  1  0.23538809  0.74318506  0.77961257  1
  O  O258  1  0.57381286  0.07810316  0.27144034  1
  O  O259  1  0.57533288  0.07430894  0.76747598  1
  O  O260  1  0.56999649  0.39832656  0.27801833  1
  O  O261  1  0.55759973  0.38930039  0.76813399  1
  O  O262  1  0.57672821  0.73813245  0.26356166  1
  O  O263  1  0.56512632  0.74230182  0.76462657  1
  O  O264  1  0.89818147  0.06376160  0.27776446  1
  O  O265  1  0.90822828  0.06074696  0.75708988  1
  O  O266  1  0.89447110  0.39248449  0.26454124  1
  O  O267  1  0.91450745  0.41396673  0.77686236  1
  O  O268  1  0.90055103  0.74439882  0.27829264  1
  O  O269  1  0.89849946  0.74085990  0.77434408  1
  O  O270  1  0.26700610  0.23264117  0.27230784  1
  O  O271  1  0.26607646  0.23473879  0.78142963  1
  O  O272  1  0.25048770  0.57792065  0.26609907  1
  O  O273  1  0.25483025  0.57096215  0.77315128  1
  O  O274  1  0.25671143  0.90890277  0.27283601  1
  O  O275  1  0.27230824  0.89693643  0.76864702  1
  O  O276  1  0.59355264  0.23044495  0.27470028  1
  O  O277  1  0.59771045  0.23161225  0.78429074  1
  O  O278  1  0.60220402  0.58072606  0.26329704  1
  O  O279  1  0.59975554  0.56808650  0.75376009  1
  O  O280  1  0.59497181  0.90533706  0.25570496  1
  O  O281  1  0.59435055  0.89613009  0.77578855  1
  O  O282  1  0.92367282  0.22441314  0.27421328  1
  O  O283  1  0.93393407  0.22954655  0.76484376  1
  O  O284  1  0.92373075  0.57991371  0.26704249  1
  O  O285  1  0.93023961  0.57877358  0.77942080  1
  O  O286  1  0.93144484  0.90319815  0.28044123  1
  O  O287  1  0.92967871  0.90185731  0.76604977  1
  O  O288  1  0.27293376  0.23892187  0.47213769  1
  O  O289  1  0.26641945  0.23092259  0.97171859  1
  O  O290  1  0.26385995  0.56864133  0.49370165  1
  O  O291  1  0.25754747  0.58188502  0.97322659  1
  O  O292  1  0.25863569  0.91590987  0.47964601  1
  O  O293  1  0.26242725  0.89939250  0.98170240  1
  O  O294  1  0.59452070  0.23785236  0.46500643  1
  O  O295  1  0.59809808  0.23041234  0.97823472  1
  O  O296  1  0.59818835  0.56474159  0.49182130  1
  O  O297  1  0.59789136  0.58669597  0.98894035  1
  O  O298  1  0.59305533  0.91076114  0.48344406  1
  O  O299  1  0.59916894  0.89986874  0.97743742  1
  O  O300  1  0.92858235  0.22858178  0.46499650  1
  O  O301  1  0.92820424  0.24641825  0.98214991  1
  O  O302  1  0.92560940  0.58527905  0.48363694  1
  O  O303  1  0.93901664  0.57883928  0.96998084  1
  O  O304  1  0.93256283  0.90550358  0.46990221  1
  O  O305  1  0.92932474  0.91443426  0.98768329  1
  O  O306  1  0.24449455  0.07197059  0.46791206  1
  O  O307  1  0.23703864  0.07334191  0.97282023  1
  O  O308  1  0.24696040  0.39926072  0.48445722  1
  O  O309  1  0.24161191  0.39376769  0.97382181  1
  O  O310  1  0.23138948  0.73760203  0.47296718  1
  O  O311  1  0.23277408  0.73818481  0.97329665  1
  O  O312  1  0.57735710  0.07870921  0.47091588  1
  O  O313  1  0.57258067  0.07520997  0.97848583  1
  O  O314  1  0.56473554  0.39418016  0.47614514  1
  O  O315  1  0.57257570  0.39234189  0.98207780  1
  O  O316  1  0.56865787  0.73792715  0.49114787  1
  O  O317  1  0.57766225  0.74843936  0.97175930  1
  O  O318  1  0.90516221  0.06228395  0.46707143  1
  O  O319  1  0.91054428  0.06989875  0.99195764  1
  O  O320  1  0.89008702  0.39387209  0.47899653  1
  O  O321  1  0.91869848  0.41059335  0.97278037  1
  O  O322  1  0.90893567  0.73965972  0.47036209  1
  O  O323  1  0.90739215  0.73429825  0.97562064  1
  O  O324  1  0.09119358  0.25829637  0.22860206  1
  O  O325  1  0.10172644  0.26406016  0.72685784  1
  O  O326  1  0.10169560  0.60190701  0.23112410  1
  O  O327  1  0.10059781  0.59114040  0.73649978  1
  O  O328  1  0.09606995  0.93447254  0.23537102  1
  O  O329  1  0.10280262  0.93213962  0.74011691  1
  O  O330  1  0.42765503  0.24908603  0.23149484  1
  O  O331  1  0.43485019  0.26675669  0.72816786  1
  O  O332  1  0.42292957  0.59216162  0.23703688  1
  O  O333  1  0.43085385  0.59894135  0.72350078  1
  O  O334  1  0.41743686  0.92669449  0.23471579  1
  O  O335  1  0.42734472  0.92683482  0.72798907  1
  O  O336  1  0.76883564  0.25593660  0.22384869  1
  O  O337  1  0.76518062  0.26688958  0.72132978  1
  O  O338  1  0.76105015  0.60680994  0.23887671  1
  O  O339  1  0.76081336  0.59874896  0.72999483  1
  O  O340  1  0.77519168  0.93792802  0.23383986  1
  O  O341  1  0.76845634  0.92844793  0.72968928  1
  O  O342  1  0.06490048  0.09047779  0.23805233  1
  O  O343  1  0.06427306  0.09117062  0.72550468  1
  O  O344  1  0.07572549  0.43499646  0.23652066  1
  O  O345  1  0.07916604  0.42799608  0.72868468  1
  O  O346  1  0.07248244  0.76888322  0.23758520  1
  O  O347  1  0.08027951  0.76834940  0.73866397  1
  O  O348  1  0.39775164  0.09695366  0.22793633  1
  O  O349  1  0.39712032  0.09333231  0.74468027  1
  O  O350  1  0.40845294  0.42085906  0.23770764  1
  O  O351  1  0.39588584  0.43459173  0.72043443  1
  O  O352  1  0.39989847  0.76852826  0.22195494  1
  O  O353  1  0.40179385  0.77046861  0.72829839  1
  O  O354  1  0.73350801  0.10155387  0.22872589  1
  O  O355  1  0.74458517  0.08628720  0.73269343  1
  O  O356  1  0.74020373  0.42219300  0.22682829  1
  O  O357  1  0.73232516  0.42885589  0.72348709  1
  O  O358  1  0.73537838  0.77520674  0.22864089  1
  O  O359  1  0.73874655  0.77106905  0.74258916  1
