# generated using pymatgen
data_BaLaInIrO6
_symmetry_space_group_name_H-M   'P 1'
_cell_length_a   17.53481472
_cell_length_b   17.56128256
_cell_length_c   16.52164494
_cell_angle_alpha   90.02398820
_cell_angle_beta   90.01977614
_cell_angle_gamma   90.03351212
_symmetry_Int_Tables_number   1
_chemical_formula_structural   BaLaInIrO6
_chemical_formula_sum   'Ba36 La36 In36 Ir36 O216'
_cell_volume   5087.57188272
_cell_formula_units_Z   36
loop_
 _symmetry_equiv_pos_site_id
 _symmetry_equiv_pos_as_xyz
  1  'x, y, z'
loop_
 _atom_site_type_symbol
 _atom_site_label
 _atom_site_symmetry_multiplicity
 _atom_site_fract_x
 _atom_site_fract_y
 _atom_site_fract_z
 _atom_site_occupancy
  Ba  Ba0  1  0.32740503  0.15282107  0.87888485  1
  Ba  Ba1  1  0.66211179  0.82295636  0.87711842  1
  Ba  Ba2  1  0.16704400  0.32463558  0.37772719  1
  Ba  Ba3  1  0.16840801  0.98765910  0.87759393  1
  Ba  Ba4  1  -0.00144430  0.49392291  0.87292904  1
  Ba  Ba5  1  0.50205491  0.65887340  0.87050284  1
  Ba  Ba6  1  0.66855423  0.84123306  0.63022438  1
  Ba  Ba7  1  1.00156966  0.83850049  0.62594508  1
  Ba  Ba8  1  0.16978420  0.66275157  0.87202330  1
  Ba  Ba9  1  0.66958660  0.17667810  0.12310974  1
  Ba  Ba10  1  0.17262121  0.33864378  0.62492028  1
  Ba  Ba11  1  0.16786990  0.67546725  0.62346417  1
  Ba  Ba12  1  0.83499979  0.65653626  0.37347406  1
  Ba  Ba13  1  0.66541385  0.15481963  0.36992036  1
  Ba  Ba14  1  0.83286209  0.67718881  0.12410260  1
  Ba  Ba15  1  0.33555931  0.84681991  0.12464574  1
  Ba  Ba16  1  0.82950513  0.00441589  0.62716362  1
  Ba  Ba17  1  0.66484323  0.17279673  0.62155607  1
  Ba  Ba18  1  0.49703929  0.00930578  0.63221682  1
  Ba  Ba19  1  0.83053749  0.34283682  0.12684664  1
  Ba  Ba20  1  0.83650914  0.66367018  0.87432519  1
  Ba  Ba21  1  0.16679135  0.32528263  0.87479343  1
  Ba  Ba22  1  0.32977252  0.15644916  0.37579803  1
  Ba  Ba23  1  0.83345384  0.01151425  0.12532326  1
  Ba  Ba24  1  0.50234968  0.99175421  0.37448012  1
  Ba  Ba25  1  -0.00254355  0.82389727  0.37265278  1
  Ba  Ba26  1  0.33377485  0.82654820  0.87794341  1
  Ba  Ba27  1  0.33454548  0.82900015  0.37713626  1
  Ba  Ba28  1  0.83462303  0.32835111  0.87381102  1
  Ba  Ba29  1  0.33556177  0.84460537  0.62985764  1
  Ba  Ba30  1  0.00121450  0.82673737  0.87184029  1
  Ba  Ba31  1  0.99780747  0.17887373  0.12805744  1
  Ba  Ba32  1  0.16119116  0.00247822  0.62463768  1
  Ba  Ba33  1  0.66793757  0.51009942  0.12564224  1
  Ba  Ba34  1  0.83111997  0.33970279  0.62205793  1
  Ba  Ba35  1  0.49886255  0.99024741  0.88118937  1
  La  La36  1  -0.00282796  0.48426842  0.37509764  1
  La  La37  1  0.33987109  0.51392605  0.62275019  1
  La  La38  1  1.00400631  0.50945979  0.62349734  1
  La  La39  1  0.17150538  0.98520298  0.37737514  1
  La  La40  1  -0.00314505  0.15308337  0.87670151  1
  La  La41  1  0.50397536  0.31503744  0.37212946  1
  La  La42  1  0.49557766  0.35098754  0.12775593  1
  La  La43  1  1.00435139  0.18126667  0.62918448  1
  La  La44  1  0.66414964  0.15444683  0.87438124  1
  La  La45  1  0.16052753  0.01661161  0.12288543  1
  La  La46  1  0.50815078  0.65103028  0.37773837  1
  La  La47  1  0.16822260  0.65189495  0.37683507  1
  La  La48  1  0.67299472  0.84770999  0.12598945  1
  La  La49  1  0.32665011  0.16722890  0.63253293  1
  La  La50  1  0.83318570  0.98614266  0.37295047  1
  La  La51  1  -0.00821965  0.15373304  0.37769102  1
  La  La52  1  0.83613784  0.98449786  0.87893739  1
  La  La53  1  0.16394421  0.68324984  0.12495725  1
  La  La54  1  0.33109823  0.48652987  0.37341067  1
  La  La55  1  0.66463446  0.48338443  0.37252521  1
  La  La56  1  0.49825527  0.01469488  0.12811414  1
  La  La57  1  0.50748513  0.32221089  0.87017862  1
  La  La58  1  0.16169395  0.34505015  0.12799810  1
  La  La59  1  0.32571155  0.48548149  0.87076098  1
  La  La60  1  0.33519209  0.18139961  0.12759622  1
  La  La61  1  0.67047223  0.49393834  0.87957541  1
  La  La62  1  0.49766424  0.68451359  0.12381556  1
  La  La63  1  0.83439160  0.31821128  0.37345042  1
  La  La64  1  0.49563987  0.68550205  0.62524603  1
  La  La65  1  0.34107415  0.51526868  0.12198848  1
  La  La66  1  0.67004927  0.51145051  0.62296975  1
  La  La67  1  0.99878850  0.51432564  0.12515953  1
  La  La68  1  0.49466269  0.34417054  0.61997082  1
  La  La69  1  1.00433350  0.84670313  0.11644590  1
  La  La70  1  0.65953125  0.81915499  0.37531394  1
  La  La71  1  0.83261401  0.68219150  0.62578094  1
  In  In72  1  0.33159091  0.00004805  0.24873114  1
  In  In73  1  0.66647286  0.00104446  0.00218442  1
  In  In74  1  0.00119110  -0.00030859  0.24858893  1
  In  In75  1  0.66579934  0.33356322  0.74474218  1
  In  In76  1  0.00130038  0.66480099  0.74761695  1
  In  In77  1  -0.00366880  0.00196702  0.74987730  1
  In  In78  1  0.16550590  0.83022588  0.49807547  1
  In  In79  1  0.00122342  0.33385709  0.00014081  1
  In  In80  1  0.83295826  0.50057746  -0.00063448  1
  In  In81  1  -0.00198663  0.00004549  0.49696290  1
  In  In82  1  0.50104891  0.83631911  0.49996385  1
  In  In83  1  0.33552394  0.66837018  0.25192043  1
  In  In84  1  0.82838451  0.83115165  0.49571638  1
  In  In85  1  0.66720802  0.65969224  0.74974618  1
  In  In86  1  0.16856745  0.50049547  0.24999286  1
  In  In87  1  0.33248827  0.00344956  0.50191714  1
  In  In88  1  0.83257959  0.16984653  -0.00158432  1
  In  In89  1  0.16414681  0.16891881  0.75318385  1
  In  In90  1  0.00332573  0.66804716  0.00026574  1
  In  In91  1  0.66732771  0.66433961  0.24894809  1
  In  In92  1  0.50101487  0.83430821  0.75399408  1
  In  In93  1  0.33542020  0.33218871  0.49835110  1
  In  In94  1  0.49874766  0.50310923  -0.00420420  1
  In  In95  1  0.66513162  0.33431155  0.24651562  1
  In  In96  1  0.33433574  0.33403986  0.00087489  1
  In  In97  1  0.49983097  0.16739038  0.50179405  1
  In  In98  1  0.66727721  0.00228728  0.75069407  1
  In  In99  1  0.33568546  0.66464652  0.75135896  1
  In  In100  1  -0.00177734  0.66264519  0.49656369  1
  In  In101  1  0.83263961  0.49759795  0.49861442  1
  In  In102  1  0.16867466  0.49694162  0.74589782  1
  In  In103  1  0.83266929  0.16544232  0.50290263  1
  In  In104  1  0.16428717  0.16849762  0.25305688  1
  In  In105  1  0.17048187  0.50181097  0.00221457  1
  In  In106  1  0.33621137  0.66497066  0.49558214  1
  In  In107  1  0.49838024  0.17031549  0.00056502  1
  Ir  Ir108  1  0.66307360  0.33628632  0.49630086  1
  Ir  Ir109  1  0.49922508  0.16758007  0.24628594  1
  Ir  Ir110  1  0.83353463  0.49849374  0.74314053  1
  Ir  Ir111  1  0.50571066  0.83290226  0.24824157  1
  Ir  Ir112  1  0.83260218  0.16833336  0.75266358  1
  Ir  Ir113  1  0.50408482  0.49857205  0.49950890  1
  Ir  Ir114  1  0.66225929  0.33720390  -0.00531603  1
  Ir  Ir115  1  0.00123588  -0.00021978  -0.00051210  1
  Ir  Ir116  1  0.00203435  0.66806737  0.24792495  1
  Ir  Ir117  1  0.83520688  0.49958236  0.25377058  1
  Ir  Ir118  1  0.50186764  0.83167891  0.00778489  1
  Ir  Ir119  1  0.15933677  0.16940917  0.50050571  1
  Ir  Ir120  1  0.17050397  0.83399912  0.00409000  1
  Ir  Ir121  1  0.66451716  0.66731346  0.00152407  1
  Ir  Ir122  1  0.16829671  0.16554130  0.00506834  1
  Ir  Ir123  1  0.66465451  0.66108597  0.49938657  1
  Ir  Ir124  1  0.83400817  0.83433575  0.00360312  1
  Ir  Ir125  1  -0.00202852  0.33665052  0.25341917  1
  Ir  Ir126  1  0.33006342  0.00347889  0.75496512  1
  Ir  Ir127  1  0.34163731  0.33200540  0.74859224  1
  Ir  Ir128  1  0.83238698  0.83269612  0.75343698  1
  Ir  Ir129  1  0.66678832  -0.00226266  0.25136705  1
  Ir  Ir130  1  0.32914735  0.00087519  0.00526859  1
  Ir  Ir131  1  0.00093793  0.33209437  0.49812491  1
  Ir  Ir132  1  0.50041341  0.49361399  0.74427923  1
  Ir  Ir133  1  0.16328075  0.83069966  0.24470980  1
  Ir  Ir134  1  0.16791828  0.49675887  0.49774584  1
  Ir  Ir135  1  0.49801056  0.17177959  0.75361453  1
  Ir  Ir136  1  0.16907694  0.83502447  0.75292558  1
  Ir  Ir137  1  0.66811660  -0.00061560  0.49640020  1
  Ir  Ir138  1  0.33533574  0.33411386  0.24874598  1
  Ir  Ir139  1  0.83212076  0.16781692  0.25341012  1
  Ir  Ir140  1  -0.00374071  0.33349633  0.74528038  1
  Ir  Ir141  1  0.33494830  0.66709598  0.00435886  1
  Ir  Ir142  1  0.83074451  0.83444240  0.24682085  1
  Ir  Ir143  1  0.49700942  0.49899265  0.25367816  1
  O  O144  1  0.30150033  0.32462612  0.13077349  1
  O  O145  1  0.32690469  0.31390030  0.62788781  1
  O  O146  1  0.30434089  0.65497213  0.12500525  1
  O  O147  1  0.31702151  0.64820333  0.62168715  1
  O  O148  1  0.29988925  1.00218821  0.12315032  1
  O  O149  1  0.31338510  1.01194736  0.63486149  1
  O  O150  1  0.63416031  0.33467875  0.11770131  1
  O  O151  1  0.63247057  0.33123276  0.61651364  1
  O  O152  1  0.63556451  0.66398604  0.12218023  1
  O  O153  1  0.63283381  0.64823358  0.61745119  1
  O  O154  1  0.63563876  0.98981716  0.13169689  1
  O  O155  1  0.65150774  0.99828335  0.61786086  1
  O  O156  1  0.97840787  0.33208222  0.13606873  1
  O  O157  1  0.97626320  0.31752531  0.62032429  1
  O  O158  1  0.98137088  0.65853929  0.13102686  1
  O  O159  1  0.96685703  0.64996224  0.62361663  1
  O  O160  1  0.98161877  0.98579359  0.11952173  1
  O  O161  1  0.98017275  0.99716569  0.62451582  1
  O  O162  1  0.19918522  0.15923744  0.12389554  1
  O  O163  1  0.18843916  0.16493548  0.62172150  1
  O  O164  1  0.20679599  0.48404475  0.12866671  1
  O  O165  1  0.20279232  0.49338527  0.61624250  1
  O  O166  1  0.18892389  0.81922095  0.12570505  1
  O  O167  1  0.18283527  0.83913026  0.63261829  1
  O  O168  1  0.52038833  0.15661013  0.12795267  1
  O  O169  1  0.51460869  0.17328008  0.63351482  1
  O  O170  1  0.52049416  0.48766307  0.13338106  1
  O  O171  1  0.53565765  0.48111813  0.62122372  1
  O  O172  1  0.53523396  0.82356370  0.12917899  1
  O  O173  1  0.52038890  0.82483139  0.62541390  1
  O  O174  1  0.84746617  0.17022849  0.13241058  1
  O  O175  1  0.86576819  0.16283348  0.63172636  1
  O  O176  1  0.86267350  0.49703102  0.13522073  1
  O  O177  1  0.86574925  0.49276209  0.62448820  1
  O  O178  1  0.86604024  0.83524685  0.12578302  1
  O  O179  1  0.84627849  0.83017439  0.63077587  1
  O  O180  1  0.12900477  0.17433120  0.38052029  1
  O  O181  1  0.13694607  0.17010046  0.88436187  1
  O  O182  1  0.13466407  0.50595064  0.37778118  1
  O  O183  1  0.15237264  0.50275799  0.87347663  1
  O  O184  1  0.14511221  0.84361065  0.36180465  1
  O  O185  1  0.15101377  0.82917991  0.88138039  1
  O  O186  1  0.48054335  0.17505783  0.36751851  1
  O  O187  1  0.47455718  0.18261477  0.87263489  1
  O  O188  1  0.46764971  0.51203539  0.37796351  1
  O  O189  1  0.46530918  0.49996152  0.86405855  1
  O  O190  1  0.48711605  0.83466391  0.36715777  1
  O  O191  1  0.48461461  0.83106405  0.88750599  1
  O  O192  1  0.81606186  0.17965590  0.37277323  1
  O  O193  1  0.79935549  0.17433067  0.86980070  1
  O  O194  1  0.80211944  0.50063024  0.37183811  1
  O  O195  1  0.80425770  0.50488253  0.86481156  1
  O  O196  1  0.79578453  0.83728022  0.36544688  1
  O  O197  1  0.80989320  0.83952300  0.87959093  1
  O  O198  1  0.03598477  0.01659765  0.37052446  1
  O  O199  1  0.01908736  0.01252231  0.87991317  1
  O  O200  1  0.02183456  0.34681310  0.37579998  1
  O  O201  1  0.01756777  0.33920574  0.86521861  1
  O  O202  1  0.03168055  0.66773362  0.36645142  1
  O  O203  1  0.01665072  0.66471693  0.87386913  1
  O  O204  1  0.35046747  0.00158898  0.37295990  1
  O  O205  1  0.35109849  -0.00101165  0.88190063  1
  O  O206  1  0.36801927  0.34501618  0.36829620  1
  O  O207  1  0.36936766  0.34671842  0.86981747  1
  O  O208  1  0.37458951  0.66782127  0.37262913  1
  O  O209  1  0.35246268  0.66875886  0.88423137  1
  O  O210  1  0.69695734  0.00061139  0.37275285  1
  O  O211  1  0.69750584  0.01341797  0.87642729  1
  O  O212  1  0.69376315  0.34594526  0.37686396  1
  O  O213  1  0.68067035  0.35293437  0.87393011  1
  O  O214  1  0.68540661  0.67465745  0.37909594  1
  O  O215  1  0.68445299  0.66266670  0.88057560  1
  O  O216  1  0.07501795  0.09142147  0.02547452  1
  O  O217  1  0.06247764  0.11012250  0.51997461  1
  O  O218  1  0.07640786  0.42581369  0.03621103  1
  O  O219  1  0.06779316  0.43042656  0.52031704  1
  O  O220  1  0.07711174  0.76606363  0.02595041  1
  O  O221  1  0.07343495  0.75395565  0.51352941  1
  O  O222  1  0.39789587  0.09358526  0.02768160  1
  O  O223  1  0.39562670  0.10812285  0.52236485  1
  O  O224  1  0.40684002  0.43086789  0.03142911  1
  O  O225  1  0.40836564  0.43535530  0.52418563  1
  O  O226  1  0.40951802  0.75774463  0.02911169  1
  O  O227  1  0.41284036  0.75423218  0.52157677  1
  O  O228  1  0.74252230  0.09396096  0.01581839  1
  O  O229  1  0.73748045  0.08999685  0.51185912  1
  O  O230  1  0.72929333  0.43120240  0.00876624  1
  O  O231  1  0.72638091  0.43270020  0.51729529  1
  O  O232  1  0.73436511  0.76500950  0.02680079  1
  O  O233  1  0.73137516  0.75305900  0.51941736  1
  O  O234  1  0.10565841  0.26263139  0.02681353  1
  O  O235  1  0.09230771  0.26260062  0.52378117  1
  O  O236  1  0.10062553  0.59682945  0.03289783  1
  O  O237  1  0.09623096  0.58264464  0.51837241  1
  O  O238  1  0.09833640  0.92731852  0.02754407  1
  O  O239  1  0.09285691  0.92745463  0.50134709  1
  O  O240  1  0.42961411  0.26537617  0.03352141  1
  O  O241  1  0.44158874  0.27529436  0.50469060  1
  O  O242  1  0.42897961  0.60125313  0.02954608  1
  O  O243  1  0.44217055  0.59150141  0.52535389  1
  O  O244  1  0.43343631  0.93361577  0.02743076  1
  O  O245  1  0.42724604  0.92988907  0.51721848  1
  O  O246  1  0.75259225  0.26883920  0.01122543  1
  O  O247  1  0.75746881  0.26726066  0.50781495  1
  O  O248  1  0.75534033  0.59791534  0.01421475  1
  O  O249  1  0.75924897  0.59618670  0.52773711  1
  O  O250  1  0.75894526  0.91992173  0.02122963  1
  O  O251  1  0.75805371  0.93147412  0.50625792  1
  O  O252  1  0.23123833  0.06799279  0.27309872  1
  O  O253  1  0.24075968  0.07442908  0.76600248  1
  O  O254  1  0.24841978  0.40560446  0.27528934  1
  O  O255  1  0.25177045  0.40188528  0.76671357  1
  O  O256  1  0.22611309  0.73258161  0.26817750  1
  O  O257  1  0.24383758  0.74825143  0.76067269  1
  O  O258  1  0.56776212  0.07007425  0.26236622  1
  O  O259  1  0.57129215  0.08497193  0.77384253  1
  O  O260  1  0.56596897  0.40714505  0.27871369  1
  O  O261  1  0.55833085  0.39672948  0.76371185  1
  O  O262  1  0.56953335  0.73691371  0.27369418  1
  O  O263  1  0.57700338  0.73522343  0.75630663  1
  O  O264  1  0.90350721  0.07740021  0.27423872  1
  O  O265  1  0.89821272  0.07812799  0.78412694  1
  O  O266  1  0.90316326  0.40512383  0.28234426  1
  O  O267  1  0.90404729  0.40619916  0.76330466  1
  O  O268  1  0.90541161  0.74100691  0.26847879  1
  O  O269  1  0.90754205  0.74722326  0.75641862  1
  O  O270  1  0.26750181  0.24131740  0.26323540  1
  O  O271  1  0.26885286  0.24155157  0.76307929  1
  O  O272  1  0.26196662  0.57282662  0.28516765  1
  O  O273  1  0.27324392  0.56258550  0.76492299  1
  O  O274  1  0.25369378  0.90038960  0.26317798  1
  O  O275  1  0.26117409  0.90970425  0.77007688  1
  O  O276  1  0.58558496  0.24332640  0.26700222  1
  O  O277  1  0.59320694  0.23704301  0.77852325  1
  O  O278  1  0.58998771  0.56719495  0.28146309  1
  O  O279  1  0.60026550  0.55188671  0.76703169  1
  O  O280  1  0.60528229  0.89707241  0.27039537  1
  O  O281  1  0.58920320  0.91389345  0.76857457  1
  O  O282  1  0.92801023  0.24057087  0.28092798  1
  O  O283  1  0.93134493  0.23323354  0.77304166  1
  O  O284  1  0.93878959  0.56519162  0.27022514  1
  O  O285  1  0.91947124  0.56883623  0.76289971  1
  O  O286  1  0.91523050  0.91157075  0.27218421  1
  O  O287  1  0.91339628  0.91390685  0.77581373  1
  O  O288  1  0.25551416  0.23655737  0.48819819  1
  O  O289  1  0.26124300  0.23287051  0.99176931  1
  O  O290  1  0.26108495  0.56453206  0.47043971  1
  O  O291  1  0.27813370  0.56862926  0.98461459  1
  O  O292  1  0.25349929  0.91259593  0.48258525  1
  O  O293  1  0.26213329  0.90510937  0.98770224  1
  O  O294  1  0.59542167  0.24670587  0.47450450  1
  O  O295  1  0.59693701  0.24376753  0.96907727  1
  O  O296  1  0.60088363  0.56366416  0.47180770  1
  O  O297  1  0.59863334  0.57109965  0.97759621  1
  O  O298  1  0.60470833  0.90301063  0.47507987  1
  O  O299  1  0.59284935  0.90047620  0.99450011  1
  O  O300  1  0.93447151  0.23893739  0.47696566  1
  O  O301  1  0.93533207  0.23223360  0.97862392  1
  O  O302  1  0.93363498  0.56083063  0.47220994  1
  O  O303  1  0.93040681  0.57123520  0.99816206  1
  O  O304  1  0.91439055  0.91251402  0.46843153  1
  O  O305  1  0.92444517  0.90956477  0.97615194  1
  O  O306  1  0.22219003  0.07518190  0.47835741  1
  O  O307  1  0.23236507  0.06630484  0.98978935  1
  O  O308  1  0.24611352  0.41337846  0.47555455  1
  O  O309  1  0.24768244  0.41021202  0.97434943  1
  O  O310  1  0.23580602  0.73136075  0.46957392  1
  O  O311  1  0.23609553  0.73317304  0.99294038  1
  O  O312  1  0.57724808  0.07110219  0.48756954  1
  O  O313  1  0.57492960  0.07948481  0.98406865  1
  O  O314  1  0.56799700  0.40288726  0.46842282  1
  O  O315  1  0.56702141  0.40141143  0.97688235  1
  O  O316  1  0.57265073  0.72881484  0.47639181  1
  O  O317  1  0.56481827  0.73244991  0.99273414  1
  O  O318  1  0.90397914  0.07430266  0.46274896  1
  O  O319  1  0.90945074  0.06924580  0.97479796  1
  O  O320  1  0.90559747  0.39652515  0.47317225  1
  O  O321  1  0.90605736  0.40614493  0.98795194  1
  O  O322  1  0.89771015  0.73354974  0.49443256  1
  O  O323  1  0.90925317  0.74976403  0.98955641  1
  O  O324  1  0.09529028  0.27183209  0.22938322  1
  O  O325  1  0.08586404  0.26334930  0.72984062  1
  O  O326  1  0.09635398  0.60117420  0.22500321  1
  O  O327  1  0.08780262  0.58275958  0.71873167  1
  O  O328  1  0.09578618  0.92131251  0.21728941  1
  O  O329  1  0.09069835  0.91923415  0.74566476  1
  O  O330  1  0.43115315  0.26456440  0.22167877  1
  O  O331  1  0.43992073  0.27215428  0.73351471  1
  O  O332  1  0.43140119  0.59029170  0.22188388  1
  O  O333  1  0.44026667  0.58768911  0.71822685  1
  O  O334  1  0.44020232  0.92931582  0.22414643  1
  O  O335  1  0.41802699  0.93079606  0.74329440  1
  O  O336  1  0.76220310  0.26070713  0.24290244  1
  O  O337  1  0.76180770  0.25695091  0.73061751  1
  O  O338  1  0.76417265  0.58948142  0.23429432  1
  O  O339  1  0.76394758  0.58812730  0.71480525  1
  O  O340  1  0.75769907  0.92607816  0.22448518  1
  O  O341  1  0.76037277  0.91970665  0.74573548  1
  O  O342  1  0.07700135  0.09016664  0.21929563  1
  O  O343  1  0.06253948  0.10378261  0.73615927  1
  O  O344  1  0.06571874  0.43120934  0.22891854  1
  O  O345  1  0.06503259  0.42402824  0.71993281  1
  O  O346  1  0.06629546  0.76388560  0.21803165  1
  O  O347  1  0.08397583  0.75922781  0.73745453  1
  O  O348  1  0.40632636  0.09866360  0.22136188  1
  O  O349  1  0.39958214  0.10376339  0.73370260  1
  O  O350  1  0.40231476  0.43004099  0.22396145  1
  O  O351  1  0.40411183  0.42995702  0.71773027  1
  O  O352  1  0.41651221  0.76081638  0.22495926  1
  O  O353  1  0.41493248  0.75097266  0.73263783  1
  O  O354  1  0.73819290  0.09454468  0.23261022  1
  O  O355  1  0.74189392  0.10032727  0.73413205  1
  O  O356  1  0.74100311  0.43195576  0.23813395  1
  O  O357  1  0.73648039  0.43420525  0.72396440  1
  O  O358  1  0.73739297  0.76626397  0.22627188  1
  O  O359  1  0.75193304  0.74971238  0.73222491  1
