# generated using pymatgen
data_BaLaInIrO6
_symmetry_space_group_name_H-M   'P 1'
_cell_length_a   17.50993530
_cell_length_b   17.54113579
_cell_length_c   16.48639529
_cell_angle_alpha   90.02448329
_cell_angle_beta   90.02513841
_cell_angle_gamma   90.00867003
_symmetry_Int_Tables_number   1
_chemical_formula_structural   BaLaInIrO6
_chemical_formula_sum   'Ba36 La36 In36 Ir36 O216'
_cell_volume   5063.69890698
_cell_formula_units_Z   36
loop_
 _symmetry_equiv_pos_site_id
 _symmetry_equiv_pos_as_xyz
  1  'x, y, z'
loop_
 _atom_site_type_symbol
 _atom_site_label
 _atom_site_symmetry_multiplicity
 _atom_site_fract_x
 _atom_site_fract_y
 _atom_site_fract_z
 _atom_site_occupancy
  Ba  Ba0  1  0.83779303  0.65663986  0.37480638  1
  Ba  Ba1  1  0.33223360  0.16006403  0.87267367  1
  Ba  Ba2  1  0.49915648  0.00950506  0.62609167  1
  Ba  Ba3  1  0.82888805  0.32298846  0.87489231  1
  Ba  Ba4  1  0.16457995  0.00933482  0.12500716  1
  Ba  Ba5  1  0.16660908  0.66288233  0.37706289  1
  Ba  Ba6  1  0.49772791  0.67567996  0.12484023  1
  Ba  Ba7  1  -0.00183735  0.48761784  0.87367990  1
  Ba  Ba8  1  0.16213456  0.01179007  0.62784732  1
  Ba  Ba9  1  0.16475719  0.67373002  0.12016796  1
  Ba  Ba10  1  0.49917221  0.34072266  0.62394249  1
  Ba  Ba11  1  0.49998737  0.32239112  0.37775234  1
  Ba  Ba12  1  0.67032366  0.50783154  0.62156691  1
  Ba  Ba13  1  0.33464057  0.49030072  0.87863840  1
  Ba  Ba14  1  1.00171998  0.84347124  0.62863697  1
  Ba  Ba15  1  0.83290713  0.67316075  0.11842747  1
  Ba  Ba16  1  0.83267426  0.34056578  0.12105728  1
  Ba  Ba17  1  0.33226988  0.17453372  0.12471743  1
  Ba  Ba18  1  1.00006882  0.17913533  0.62982348  1
  Ba  Ba19  1  0.83251741  0.65610021  0.87214713  1
  Ba  Ba20  1  0.33686288  0.83977296  0.13059992  1
  Ba  Ba21  1  0.33815864  0.50567601  0.62718987  1
  Ba  Ba22  1  0.99936659  0.17930308  0.12387250  1
  Ba  Ba23  1  1.00000336  0.50527875  0.12135399  1
  Ba  Ba24  1  0.66599268  0.82347686  0.87172130  1
  Ba  Ba25  1  1.00302950  0.83813884  0.12565183  1
  Ba  Ba26  1  0.66822898  0.17775742  0.12520926  1
  Ba  Ba27  1  0.33383993  0.15767609  0.37651720  1
  Ba  Ba28  1  0.82958047  0.01419976  0.62907461  1
  Ba  Ba29  1  0.33144462  0.17327446  0.62276027  1
  Ba  Ba30  1  0.33466842  0.84376408  0.62235204  1
  Ba  Ba31  1  0.67282787  0.50905969  0.12017004  1
  Ba  Ba32  1  0.66481377  0.16124423  0.87864386  1
  Ba  Ba33  1  0.66440184  0.48850673  0.86969966  1
  Ba  Ba34  1  0.33483245  0.50982227  0.12611564  1
  Ba  Ba35  1  0.99999147  0.50389139  0.62420767  1
  La  La36  1  0.50521463  0.64718736  0.37592672  1
  La  La37  1  0.82844400  0.01745818  0.12631303  1
  La  La38  1  0.49614673  0.99091476  0.87133822  1
  La  La39  1  -0.00858462  0.15607520  0.87660011  1
  La  La40  1  0.67225539  0.18499011  0.62747279  1
  La  La41  1  0.49886136  0.67924872  0.62615133  1
  La  La42  1  0.65714991  0.14952409  0.37813159  1
  La  La43  1  0.49556528  0.35067888  0.12290421  1
  La  La44  1  0.33190771  0.48650168  0.37692808  1
  La  La45  1  0.16745133  0.32127193  0.87430163  1
  La  La46  1  0.16457391  0.68056693  0.62637882  1
  La  La47  1  0.33379382  0.81926772  0.87414271  1
  La  La48  1  0.66130759  0.48147026  0.37183852  1
  La  La49  1  0.83531348  0.32040982  0.37354579  1
  La  La50  1  0.33501023  0.82078335  0.37842761  1
  La  La51  1  0.83672406  0.98983712  0.87722738  1
  La  La52  1  0.16660391  0.98989292  0.87408538  1
  La  La53  1  0.16125961  0.34231198  0.12158979  1
  La  La54  1  -0.00085937  0.15115886  0.37425971  1
  La  La55  1  -0.00345866  0.82026413  0.87833745  1
  La  La56  1  0.83200865  0.68209256  0.62719390  1
  La  La57  1  0.50992167  0.64773452  0.87402640  1
  La  La58  1  0.83725023  0.98388720  0.37417973  1
  La  La59  1  0.67548061  0.85015338  0.62605186  1
  La  La60  1  0.50594665  0.31992701  0.87536588  1
  La  La61  1  0.16907597  0.64874622  0.87259312  1
  La  La62  1  0.00009014  0.48348557  0.37478420  1
  La  La63  1  0.67398973  0.84439699  0.11964414  1
  La  La64  1  0.49793976  0.00643559  0.12798243  1
  La  La65  1  0.17021027  0.32202273  0.37595192  1
  La  La66  1  0.16504422  0.98494551  0.37616633  1
  La  La67  1  0.00031263  0.82060788  0.36811389  1
  La  La68  1  0.82655902  0.34390782  0.62942121  1
  La  La69  1  0.66238107  0.81550732  0.37729713  1
  La  La70  1  0.16645600  0.34333781  0.63018484  1
  La  La71  1  0.50335154  0.98628225  0.37835415  1
  In  In72  1  0.16887747  0.49622217  -0.00106684  1
  In  In73  1  0.33226496  0.00020539  0.00044389  1
  In  In74  1  0.00036793  0.66184437  0.25079436  1
  In  In75  1  0.83013873  0.83317035  0.24873421  1
  In  In76  1  -0.00203883  0.00030100  0.50169804  1
  In  In77  1  0.83104652  0.49886734  0.25198919  1
  In  In78  1  0.66512545  0.33285189  0.00224203  1
  In  In79  1  0.16168665  0.16849948  0.50087759  1
  In  In80  1  0.33693825  0.66252151  0.50264762  1
  In  In81  1  0.00048258  0.66545879  -0.00270339  1
  In  In82  1  0.33373808  0.33194987  0.75337245  1
  In  In83  1  0.50224705  0.16622182  0.24974108  1
  In  In84  1  -0.00039492  0.33111249  0.25043912  1
  In  In85  1  0.16956547  0.83355995  0.24971249  1
  In  In86  1  0.49770862  0.16362772  0.00086676  1
  In  In87  1  0.00133341  0.66321231  0.74657489  1
  In  In88  1  0.33508196  0.66741120  -0.00272218  1
  In  In89  1  0.83273688  0.83247998  0.49892073  1
  In  In90  1  0.16728193  0.83342784  -0.00475581  1
  In  In91  1  0.16507832  0.16711215  0.24920732  1
  In  In92  1  0.33609274  0.66429769  0.25398052  1
  In  In93  1  0.66703256  0.00513031  0.75154403  1
  In  In94  1  0.50213319  0.83417749  0.00191216  1
  In  In95  1  0.66696964  -0.00103937  -0.00127740  1
  In  In96  1  0.66761004  0.66538536  0.74591790  1
  In  In97  1  0.16769099  0.83428841  0.75190651  1
  In  In98  1  0.82928614  0.16497651  0.49727858  1
  In  In99  1  0.83187102  0.50191178  0.49891022  1
  In  In100  1  0.33411489  0.33295280  0.50103891  1
  In  In101  1  0.16704697  0.83371300  0.50072311  1
  In  In102  1  0.33364368  0.33283858  0.24726364  1
  In  In103  1  0.33407860  0.00054425  0.49876290  1
  In  In104  1  0.49962654  0.83266071  0.74935421  1
  In  In105  1  0.66645274  0.66693298  0.24823322  1
  In  In106  1  -0.00126876  0.00087957  0.24669849  1
  In  In107  1  -0.00137873  0.33134938  0.50060902  1
  Ir  Ir108  1  0.50755264  0.83163139  0.49911671  1
  Ir  Ir109  1  0.50520617  0.50074397  0.50034666  1
  Ir  Ir110  1  0.66361232  0.33230224  0.74711701  1
  Ir  Ir111  1  0.66620154  0.33132452  0.25429314  1
  Ir  Ir112  1  0.16630952  0.49861666  0.25652613  1
  Ir  Ir113  1  0.83579164  0.83702653  0.75199604  1
  Ir  Ir114  1  0.66790904  0.33198887  0.49969027  1
  Ir  Ir115  1  -0.00082171  0.33260530  0.75106277  1
  Ir  Ir116  1  0.33596107  0.66335452  0.74910599  1
  Ir  Ir117  1  0.83473215  0.49557101  0.74913970  1
  Ir  Ir118  1  0.33223328  0.33209983  -0.00000190  1
  Ir  Ir119  1  0.66522071  0.66472344  -0.00374971  1
  Ir  Ir120  1  0.66683850  0.00000076  0.49913393  1
  Ir  Ir121  1  0.66495485  0.66815040  0.50144453  1
  Ir  Ir122  1  0.83342213  0.16982090  0.75266149  1
  Ir  Ir123  1  0.50030815  0.49845798  0.74772452  1
  Ir  Ir124  1  0.33816411  -0.00193815  0.25497122  1
  Ir  Ir125  1  0.16028192  0.16914838  -0.00511220  1
  Ir  Ir126  1  0.50015319  0.16691393  0.74730465  1
  Ir  Ir127  1  -0.00193564  0.00419388  0.75592457  1
  Ir  Ir128  1  0.83329755  0.49777710  -0.00572381  1
  Ir  Ir129  1  0.16053578  0.16756628  0.75592995  1
  Ir  Ir130  1  0.16578490  0.50158044  0.49839660  1
  Ir  Ir131  1  -0.00193107  0.00369117  -0.00357146  1
  Ir  Ir132  1  0.83485829  0.83704840  -0.00270673  1
  Ir  Ir133  1  0.82385309  0.16570536  0.25325595  1
  Ir  Ir134  1  0.83472550  0.16447041  0.00071919  1
  Ir  Ir135  1  0.50564323  0.83617753  0.25799463  1
  Ir  Ir136  1  0.16900184  0.49798498  0.74480546  1
  Ir  Ir137  1  0.50556169  0.16381361  0.50211151  1
  Ir  Ir138  1  0.50301415  0.49782265  0.25178468  1
  Ir  Ir139  1  0.00016165  0.66331134  0.50365950  1
  Ir  Ir140  1  0.33365465  0.00298810  0.75142187  1
  Ir  Ir141  1  0.66757250  -0.00185222  0.25505930  1
  Ir  Ir142  1  0.00005286  0.33200736  -0.00394369  1
  Ir  Ir143  1  0.50014824  0.49818088  -0.00065655  1
  O  O144  1  0.29903649  0.33552962  0.11894621  1
  O  O145  1  0.30633836  0.33479177  0.62690337  1
  O  O146  1  0.31991231  0.66821996  0.12730892  1
  O  O147  1  0.30266909  0.66034304  0.63099060  1
  O  O148  1  0.31582521  0.99432341  0.13461369  1
  O  O149  1  0.31336093  1.00181015  0.63118716  1
  O  O150  1  0.63538985  0.33201920  0.13399344  1
  O  O151  1  0.64587489  0.32230261  0.62270537  1
  O  O152  1  0.64811386  0.67004916  0.11621899  1
  O  O153  1  0.63460902  0.66468617  0.61841241  1
  O  O154  1  0.63704804  0.98748479  0.13528765  1
  O  O155  1  0.64783105  0.98748029  0.62018808  1
  O  O156  1  0.98187262  0.33623000  0.11768757  1
  O  O157  1  0.96506603  0.33336300  0.63111121  1
  O  O158  1  0.98459943  0.66262135  0.12337941  1
  O  O159  1  0.96732834  0.65744959  0.62190831  1
  O  O160  1  0.96596473  0.99717582  0.11608818  1
  O  O161  1  0.97746202  1.00115425  0.63551917  1
  O  O162  1  0.18191385  0.16591347  0.11440726  1
  O  O163  1  0.18104143  0.16531187  0.63628908  1
  O  O164  1  0.18488110  0.48296143  0.13435691  1
  O  O165  1  0.19006368  0.48297691  0.61991310  1
  O  O166  1  0.18658516  0.83154584  0.12156199  1
  O  O167  1  0.18730626  0.82476026  0.62739375  1
  O  O168  1  0.52272733  0.14147089  0.12640347  1
  O  O169  1  0.53427652  0.16283781  0.62420054  1
  O  O170  1  0.52474579  0.48648418  0.12544947  1
  O  O171  1  0.52473643  0.49227865  0.62481848  1
  O  O172  1  0.53491191  0.83260163  0.13827604  1
  O  O173  1  0.53930513  0.82140469  0.61872237  1
  O  O174  1  0.85274806  0.15585002  0.12724948  1
  O  O175  1  0.84849267  0.17490574  0.63147163  1
  O  O176  1  0.84744545  0.49609642  0.11616583  1
  O  O177  1  0.84906656  0.48400130  0.62833745  1
  O  O178  1  0.85087110  0.83050291  0.11667965  1
  O  O179  1  0.85037530  0.82577703  0.62956435  1
  O  O180  1  0.12956608  0.18764280  0.37404802  1
  O  O181  1  0.12951053  0.18068974  0.87574197  1
  O  O182  1  0.13531330  0.51025152  0.37830563  1
  O  O183  1  0.14873969  0.50711113  0.86361459  1
  O  O184  1  0.13446983  0.84496772  0.37698888  1
  O  O185  1  0.13095490  0.85167641  0.87110732  1
  O  O186  1  0.48842349  0.16346067  0.38147774  1
  O  O187  1  0.48300194  0.18106116  0.86774456  1
  O  O188  1  0.47370515  0.50839424  0.37666963  1
  O  O189  1  0.48113435  0.51161275  0.87247441  1
  O  O190  1  0.47415834  0.84493369  0.37838655  1
  O  O191  1  0.47061600  0.85098910  0.87380537  1
  O  O192  1  0.79103486  0.17815781  0.37051601  1
  O  O193  1  0.81386585  0.16149626  0.87622989  1
  O  O194  1  0.79338626  0.50503789  0.37798609  1
  O  O195  1  0.81318151  0.49779147  0.86947308  1
  O  O196  1  0.79548452  0.84404307  0.37614301  1
  O  O197  1  0.81329335  0.85064809  0.87517165  1
  O  O198  1  0.02697432  0.01438360  0.37405006  1
  O  O199  1  0.02819901  0.01478211  0.87631657  1
  O  O200  1  0.03290264  0.34147414  0.37527446  1
  O  O201  1  0.03039938  0.33040811  0.87334959  1
  O  O202  1  0.01629407  0.67942454  0.38587017  1
  O  O203  1  0.02961021  0.67377730  0.86977427  1
  O  O204  1  0.37035688  0.00249342  0.37217690  1
  O  O205  1  0.36302494  0.00604341  0.86837969  1
  O  O206  1  0.35168481  0.34961038  0.37462966  1
  O  O207  1  0.36692616  0.33027693  0.88085919  1
  O  O208  1  0.37143114  0.67242860  0.37868110  1
  O  O209  1  0.37180894  0.67225609  0.86467121  1
  O  O210  1  0.70040084  0.01184186  0.37707864  1
  O  O211  1  0.70241256  0.00396946  0.87492742  1
  O  O212  1  0.69780626  0.33993678  0.37774806  1
  O  O213  1  0.67426602  0.32984383  0.86791685  1
  O  O214  1  0.68719312  0.67626428  0.38324453  1
  O  O215  1  0.68144665  0.66283839  0.87570756  1
  O  O216  1  0.06185468  0.10331904  0.00898943  1
  O  O217  1  0.05738171  0.10716163  0.50731465  1
  O  O218  1  0.07566496  0.41670521  0.01412196  1
  O  O219  1  0.07355234  0.43658721  0.50955723  1
  O  O220  1  0.06674157  0.76773330  0.00272044  1
  O  O221  1  0.07164414  0.75079957  0.52451477  1
  O  O222  1  0.39835488  0.09835237  0.01079280  1
  O  O223  1  0.41508358  0.09367298  0.51638512  1
  O  O224  1  0.40811773  0.42230850  0.02550631  1
  O  O225  1  0.41140089  0.43277962  0.51034687  1
  O  O226  1  0.40192439  0.76827942  0.00556970  1
  O  O227  1  0.42037368  0.75951660  0.52304175  1
  O  O228  1  0.74826724  0.08974857  0.02481398  1
  O  O229  1  0.72416172  0.09950886  0.52137227  1
  O  O230  1  0.74422389  0.42451353  0.00696645  1
  O  O231  1  0.73934386  0.41892433  0.51800880  1
  O  O232  1  0.73573899  0.76597006  0.01772060  1
  O  O233  1  0.72813087  0.76406951  0.52624033  1
  O  O234  1  0.09721195  0.26777481  0.01629939  1
  O  O235  1  0.09948533  0.27378575  0.53154475  1
  O  O236  1  0.09611547  0.59037506  0.00288219  1
  O  O237  1  0.10117593  0.59947228  0.52585915  1
  O  O238  1  0.09036498  0.93962295  0.00905516  1
  O  O239  1  0.09662282  0.93188650  0.51441582  1
  O  O240  1  0.42599115  0.26867809  0.02596699  1
  O  O241  1  0.43224858  0.25252442  0.51616297  1
  O  O242  1  0.43371211  0.59043584  0.00861953  1
  O  O243  1  0.44222118  0.59669152  0.52211307  1
  O  O244  1  0.43954973  0.93953249  0.02006285  1
  O  O245  1  0.43862044  0.92259806  0.51296561  1
  O  O246  1  0.76012851  0.25228170  0.01448945  1
  O  O247  1  0.75946093  0.26481643  0.52440658  1
  O  O248  1  0.76134642  0.59190120  0.01000861  1
  O  O249  1  0.76340479  0.60739957  0.52832255  1
  O  O250  1  0.76886972  0.92929508  0.02560759  1
  O  O251  1  0.75600729  0.93031629  0.52004313  1
  O  O252  1  0.24122427  0.06199165  0.27602255  1
  O  O253  1  0.23087665  0.07164114  0.77725040  1
  O  O254  1  0.23248960  0.40758997  0.27864598  1
  O  O255  1  0.23322355  0.40391818  0.77132331  1
  O  O256  1  0.25404252  0.74935497  0.28153366  1
  O  O257  1  0.24751109  0.73463958  0.77708319  1
  O  O258  1  0.57531935  0.06399753  0.28020388  1
  O  O259  1  0.56517183  0.07498578  0.77341448  1
  O  O260  1  0.57414980  0.40404625  0.27356792  1
  O  O261  1  0.56519544  0.39933978  0.77182666  1
  O  O262  1  0.56815486  0.74058191  0.28393182  1
  O  O263  1  0.56665022  0.73184153  0.76773089  1
  O  O264  1  0.88865384  0.07073740  0.27236276  1
  O  O265  1  0.90231663  0.07391112  0.77987538  1
  O  O266  1  0.90169883  0.39967640  0.27769743  1
  O  O267  1  0.90284499  0.39935124  0.76605247  1
  O  O268  1  0.90983648  0.74586320  0.27148228  1
  O  O269  1  0.91112800  0.75088516  0.76723721  1
  O  O270  1  0.25817987  0.24138061  0.27022032  1
  O  O271  1  0.24660412  0.24237723  0.77311101  1
  O  O272  1  0.26419165  0.56210316  0.27666654  1
  O  O273  1  0.25828616  0.57511027  0.77393824  1
  O  O274  1  0.27247496  0.90768258  0.28247737  1
  O  O275  1  0.26496384  0.91193348  0.77748634  1
  O  O276  1  0.60427834  0.23564677  0.27599590  1
  O  O277  1  0.59448784  0.23648387  0.76209924  1
  O  O278  1  0.59313705  0.56889780  0.27792423  1
  O  O279  1  0.58847833  0.57064142  0.76114298  1
  O  O280  1  0.60013019  0.90505427  0.28585280  1
  O  O281  1  0.58883700  0.91317764  0.76569496  1
  O  O282  1  0.91822559  0.23256929  0.27779111  1
  O  O283  1  0.93024941  0.23826888  0.77771190  1
  O  O284  1  0.93441134  0.56207471  0.27639724  1
  O  O285  1  0.92286078  0.56813776  0.76458378  1
  O  O286  1  0.92431483  0.90869477  0.28022250  1
  O  O287  1  0.92820319  0.91097549  0.78102569  1
  O  O288  1  0.25456355  0.24498488  0.47841900  1
  O  O289  1  0.25249962  0.24424203  0.97206218  1
  O  O290  1  0.26461353  0.56253632  0.47830540  1
  O  O291  1  0.25740880  0.57637028  0.98113666  1
  O  O292  1  0.26686207  0.90409743  0.47020054  1
  O  O293  1  0.26374762  0.90659301  0.96463835  1
  O  O294  1  0.60345866  0.23187541  0.48311907  1
  O  O295  1  0.58494111  0.24513375  0.98521481  1
  O  O296  1  0.60020948  0.57076434  0.47260767  1
  O  O297  1  0.59346130  0.57158238  0.97554559  1
  O  O298  1  0.60227368  0.90160775  0.47426646  1
  O  O299  1  0.60629670  0.89431353  0.99478650  1
  O  O300  1  0.92347343  0.23719831  0.46597002  1
  O  O301  1  0.92880272  0.23666845  0.97595001  1
  O  O302  1  0.93672347  0.56871535  0.47766724  1
  O  O303  1  0.91907197  0.57118175  0.98043813  1
  O  O304  1  0.92822193  0.90116303  0.46932315  1
  O  O305  1  0.93042512  0.90801734  0.96968981  1
  O  O306  1  0.23301212  0.06897482  0.47556575  1
  O  O307  1  0.22481194  0.07415255  0.97395628  1
  O  O308  1  0.23166694  0.41021424  0.47295109  1
  O  O309  1  0.23862689  0.39748327  0.97428169  1
  O  O310  1  0.24976104  0.74312975  0.48372155  1
  O  O311  1  0.23968386  0.73863114  0.95726009  1
  O  O312  1  0.57331429  0.06697906  0.47485568  1
  O  O313  1  0.56579517  0.06197113  0.97366399  1
  O  O314  1  0.57965121  0.40971364  0.47377586  1
  O  O315  1  0.56331375  0.40306480  0.98208044  1
  O  O316  1  0.56974977  0.73355097  0.47352332  1
  O  O317  1  0.57088073  0.72924453  0.97557537  1
  O  O318  1  0.89255558  0.06488240  0.47382037  1
  O  O319  1  0.90259458  0.06974469  0.97594588  1
  O  O320  1  0.90459334  0.40510319  0.46983219  1
  O  O321  1  0.90621244  0.40415541  0.97801799  1
  O  O322  1  0.90470068  0.73071385  0.49456300  1
  O  O323  1  0.90522655  0.74946440  0.97234351  1
  O  O324  1  0.10085376  0.27210575  0.22303240  1
  O  O325  1  0.09687419  0.26705365  0.73290147  1
  O  O326  1  0.10388046  0.58965904  0.23626080  1
  O  O327  1  0.10551576  0.59212317  0.72224568  1
  O  O328  1  0.09845379  0.93295927  0.24047013  1
  O  O329  1  0.08865105  0.93638618  0.74016219  1
  O  O330  1  0.43477939  0.26508631  0.22440385  1
  O  O331  1  0.42920441  0.25541138  0.73241374  1
  O  O332  1  0.43726434  0.59039881  0.24036273  1
  O  O333  1  0.43452243  0.59661320  0.72393010  1
  O  O334  1  0.44131754  0.93426188  0.23569302  1
  O  O335  1  0.42134892  0.93096845  0.73324846  1
  O  O336  1  0.76163258  0.26555422  0.23555605  1
  O  O337  1  0.76105911  0.26330842  0.72456093  1
  O  O338  1  0.76027056  0.59550327  0.23238883  1
  O  O339  1  0.76840856  0.59284470  0.72560663  1
  O  O340  1  0.76119377  0.93632789  0.22439013  1
  O  O341  1  0.75968744  0.92105063  0.73223948  1
  O  O342  1  0.06265458  0.10381743  0.23978647  1
  O  O343  1  0.06379779  0.10047080  0.74434997  1
  O  O344  1  0.07236968  0.43519101  0.24275926  1
  O  O345  1  0.07967797  0.41964031  0.72196314  1
  O  O346  1  0.07341734  0.75874525  0.24707133  1
  O  O347  1  0.08255630  0.75071482  0.72507646  1
  O  O348  1  0.40751931  0.08621896  0.23302139  1
  O  O349  1  0.40606528  0.09707295  0.73084118  1
  O  O350  1  0.41285306  0.42819013  0.23178094  1
  O  O351  1  0.41131494  0.42799775  0.73993881  1
  O  O352  1  0.41691656  0.76841332  0.24267198  1
  O  O353  1  0.40588598  0.75248565  0.72388774  1
  O  O354  1  0.73301563  0.09171656  0.22956897  1
  O  O355  1  0.73728631  0.10499663  0.72745012  1
  O  O356  1  0.73125648  0.42287719  0.23881123  1
  O  O357  1  0.74041561  0.41925587  0.72614769  1
  O  O358  1  0.72458574  0.77329270  0.23462840  1
  O  O359  1  0.74484826  0.76279288  0.72542723  1
