# generated using pymatgen
data_BaLaInIrO6
_symmetry_space_group_name_H-M   'P 1'
_cell_length_a   17.52376295
_cell_length_b   17.54635605
_cell_length_c   16.49440298
_cell_angle_alpha   90.00074712
_cell_angle_beta   89.99338163
_cell_angle_gamma   89.95816480
_symmetry_Int_Tables_number   1
_chemical_formula_structural   BaLaInIrO6
_chemical_formula_sum   'Ba36 La36 In36 Ir36 O216'
_cell_volume   5071.66768910
_cell_formula_units_Z   36
loop_
 _symmetry_equiv_pos_site_id
 _symmetry_equiv_pos_as_xyz
  1  'x, y, z'
loop_
 _atom_site_type_symbol
 _atom_site_label
 _atom_site_symmetry_multiplicity
 _atom_site_fract_x
 _atom_site_fract_y
 _atom_site_fract_z
 _atom_site_occupancy
  Ba  Ba0  1  0.50048018  0.99020189  0.37131453  1
  Ba  Ba1  1  0.33245376  0.17606450  0.12381727  1
  Ba  Ba2  1  1.00028694  0.84020735  0.12583043  1
  Ba  Ba3  1  0.16693190  0.65609335  0.37782177  1
  Ba  Ba4  1  0.16295802  0.67438294  0.62885085  1
  Ba  Ba5  1  0.66033204  0.49408864  0.37552007  1
  Ba  Ba6  1  0.16662131  0.67095835  0.12613382  1
  Ba  Ba7  1  0.83659178  0.00798094  0.62160922  1
  Ba  Ba8  1  0.66177610  0.48883375  0.87598370  1
  Ba  Ba9  1  0.50627027  0.65993661  0.38097644  1
  Ba  Ba10  1  1.00171925  0.17333988  0.12786150  1
  Ba  Ba11  1  0.83449692  0.68234974  0.63008437  1
  Ba  Ba12  1  0.99334603  0.50427594  0.12436368  1
  Ba  Ba13  1  0.33285361  0.49073600  0.87788798  1
  Ba  Ba14  1  0.66222609  0.15481637  0.87487742  1
  Ba  Ba15  1  1.00427150  0.84051491  0.62159753  1
  Ba  Ba16  1  -0.00040736  0.49035917  0.87520417  1
  Ba  Ba17  1  0.67151654  0.84516094  0.62336486  1
  Ba  Ba18  1  0.33446499  0.48997754  0.37109440  1
  Ba  Ba19  1  0.83631756  0.66087041  0.38109770  1
  Ba  Ba20  1  0.50074903  0.65710201  0.87493335  1
  Ba  Ba21  1  0.17269408  0.99285464  0.87886728  1
  Ba  Ba22  1  0.66540191  0.82812433  0.37518576  1
  Ba  Ba23  1  0.83168032  0.32639887  0.87632820  1
  Ba  Ba24  1  0.16451052  0.65566846  0.87826448  1
  Ba  Ba25  1  0.49899699  0.33462810  0.62535985  1
  Ba  Ba26  1  0.50017158  0.99163364  0.87520004  1
  Ba  Ba27  1  0.83408439  0.99017500  0.37691927  1
  Ba  Ba28  1  0.50100517  0.01363538  0.12534294  1
  Ba  Ba29  1  0.49833129  0.67325008  0.12553719  1
  Ba  Ba30  1  0.17141700  0.99146646  0.36909030  1
  Ba  Ba31  1  -0.00254157  0.82445628  0.37579200  1
  Ba  Ba32  1  0.67051015  0.51788579  0.12507848  1
  Ba  Ba33  1  0.33568698  0.83663769  0.62340577  1
  Ba  Ba34  1  0.33515166  0.15863369  0.87505578  1
  Ba  Ba35  1  0.82935338  0.00905701  0.12923234  1
  La  La36  1  0.16176111  0.34805297  0.12389908  1
  La  La37  1  0.82862203  0.34952244  0.12251311  1
  La  La38  1  0.66436417  0.15230505  0.37492744  1
  La  La39  1  0.66542809  0.82435058  0.87545258  1
  La  La40  1  -0.00717636  0.15200868  0.37382369  1
  La  La41  1  0.33520391  0.51105294  0.12479619  1
  La  La42  1  0.16717608  0.01576917  0.12589812  1
  La  La43  1  0.67379997  0.52205325  0.62696179  1
  La  La44  1  0.32651376  0.81732459  0.37078053  1
  La  La45  1  1.00159958  0.51506760  0.62743543  1
  La  La46  1  -0.00163962  0.81308962  0.87041772  1
  La  La47  1  0.32993795  0.81742429  0.87942190  1
  La  La48  1  0.83965426  0.64592943  0.87729577  1
  La  La49  1  0.50753250  0.31906251  0.88442868  1
  La  La50  1  0.33332127  0.51574533  0.62404153  1
  La  La51  1  0.33852697  0.84775005  0.12349122  1
  La  La52  1  -0.00515399  0.15154568  0.87624869  1
  La  La53  1  0.33254190  0.15143371  0.36944288  1
  La  La54  1  0.49677488  0.34348566  0.12647327  1
  La  La55  1  -0.00551509  0.49418025  0.37701809  1
  La  La56  1  0.50100388  0.67631372  0.62423223  1
  La  La57  1  0.33614276  0.17591323  0.62218957  1
  La  La58  1  0.49845628  0.01182050  0.62317041  1
  La  La59  1  0.82663135  0.68698984  0.12752934  1
  La  La60  1  0.83764165  0.32428265  0.37414972  1
  La  La61  1  0.66586100  0.84232707  0.12732301  1
  La  La62  1  0.50376638  0.31657875  0.37391063  1
  La  La63  1  0.15601080  0.01857053  0.62784889  1
  La  La64  1  0.67110445  0.18214054  0.12598829  1
  La  La65  1  0.16405295  0.32706331  0.37068198  1
  La  La66  1  0.83605100  0.98807058  0.87253616  1
  La  La67  1  0.65866052  0.16906475  0.63034961  1
  La  La68  1  1.00319332  0.18592865  0.62252349  1
  La  La69  1  0.16741285  0.34750529  0.62269224  1
  La  La70  1  0.16791276  0.32451882  0.87746358  1
  La  La71  1  0.82750490  0.34792857  0.62705535  1
  In  In72  1  0.16650446  0.83475879  0.00312230  1
  In  In73  1  -0.00395653  0.66350558  0.00426289  1
  In  In74  1  0.83339019  0.83496859  -0.00332894  1
  In  In75  1  0.00086218  -0.00217694  0.24814097  1
  In  In76  1  0.50142630  0.83352467  -0.00138258  1
  In  In77  1  0.83322830  0.17142562  0.50083937  1
  In  In78  1  0.66887680  0.33139926  0.49690267  1
  In  In79  1  0.83124403  0.16485285  -0.00100389  1
  In  In80  1  0.66531906  0.00261170  0.24856083  1
  In  In81  1  0.00207338  0.00251642  0.50055757  1
  In  In82  1  0.17089754  0.83579948  0.50028191  1
  In  In83  1  0.49644932  0.16303255  0.75068009  1
  In  In84  1  0.50109206  0.49919628  0.00146647  1
  In  In85  1  0.32854869  -0.00376495  0.74720008  1
  In  In86  1  0.50115031  0.49771294  0.25049030  1
  In  In87  1  0.00084790  -0.00247679  0.75151612  1
  In  In88  1  0.82772755  0.50187428  0.25395218  1
  In  In89  1  0.16579921  0.17217052  0.25118862  1
  In  In90  1  -0.00040886  0.33186485  -0.00110433  1
  In  In91  1  0.50204806  0.49565392  0.74662859  1
  In  In92  1  0.50132380  0.49244326  0.50342238  1
  In  In93  1  0.66534761  0.33076799  0.74803318  1
  In  In94  1  0.33063968  -0.00028689  0.50032022  1
  In  In95  1  0.33157626  0.33446750  0.74978823  1
  In  In96  1  0.16498245  0.49713982  0.75157056  1
  In  In97  1  0.50149203  0.83694951  0.50127639  1
  In  In98  1  0.00143191  -0.00239477  -0.00119387  1
  In  In99  1  0.67006710  0.66899289  0.75516709  1
  In  In100  1  0.16683223  0.17025825  -0.00207180  1
  In  In101  1  0.16687449  0.17347394  0.49708243  1
  In  In102  1  0.33609042  0.66362687  0.50007568  1
  In  In103  1  0.00163325  0.66594019  0.50133790  1
  In  In104  1  -0.00021995  0.66367733  0.24982458  1
  In  In105  1  0.33470692  0.66511484  0.24834474  1
  In  In106  1  0.83422636  0.16718685  0.74905834  1
  In  In107  1  0.33407482  0.66539444  0.75085584  1
  Ir  Ir108  1  0.83108936  0.83426982  0.50128213  1
  Ir  Ir109  1  0.33151901  0.33023063  0.49233093  1
  Ir  Ir110  1  0.83301948  0.49743117  0.50388992  1
  Ir  Ir111  1  0.50010369  0.17045969  0.25070838  1
  Ir  Ir112  1  0.50257470  0.83513623  0.75202163  1
  Ir  Ir113  1  -0.00161974  0.33612988  0.25355658  1
  Ir  Ir114  1  0.66663762  -0.00207778  0.74917677  1
  Ir  Ir115  1  0.33403554  0.33287468  0.00409665  1
  Ir  Ir116  1  0.00100054  0.33345080  0.74298499  1
  Ir  Ir117  1  0.83122917  0.17517021  0.25034871  1
  Ir  Ir118  1  0.66761788  0.00128634  -0.00222096  1
  Ir  Ir119  1  0.83090706  0.83294004  0.25320479  1
  Ir  Ir120  1  0.66315155  0.00510922  0.50229338  1
  Ir  Ir121  1  0.33082640  0.66534080  0.00168416  1
  Ir  Ir122  1  0.67133419  0.67240098  0.00337052  1
  Ir  Ir123  1  0.83606818  0.49789855  0.74744247  1
  Ir  Ir124  1  0.82793764  0.49841562  -0.00070865  1
  Ir  Ir125  1  0.16532749  0.49137478  0.49772930  1
  Ir  Ir126  1  0.49837485  0.83382333  0.24699510  1
  Ir  Ir127  1  0.50259114  0.16692192  0.00691460  1
  Ir  Ir128  1  0.17273817  0.83369592  0.24667968  1
  Ir  Ir129  1  0.16681150  0.83328075  0.75418991  1
  Ir  Ir130  1  0.16464702  0.49306013  0.25106086  1
  Ir  Ir131  1  0.16397993  0.17391037  0.74642509  1
  Ir  Ir132  1  0.66404531  0.33000302  0.00654880  1
  Ir  Ir133  1  0.33241871  0.33170283  0.24954130  1
  Ir  Ir134  1  0.33647990  -0.00098771  0.00098441  1
  Ir  Ir135  1  0.16888058  0.49645441  0.00465000  1
  Ir  Ir136  1  0.66633047  0.67390957  0.24977994  1
  Ir  Ir137  1  0.33710462  -0.00090452  0.24691658  1
  Ir  Ir138  1  0.83016045  0.83628724  0.75182381  1
  Ir  Ir139  1  -0.00018721  0.33921028  0.49900880  1
  Ir  Ir140  1  0.66709540  0.32974422  0.25024894  1
  Ir  Ir141  1  0.49809826  0.16605419  0.49471774  1
  Ir  Ir142  1  0.67159769  0.66743580  0.49950774  1
  Ir  Ir143  1  -0.00417734  0.66690660  0.75198052  1
  O  O144  1  0.29794520  0.32896865  0.12733959  1
  O  O145  1  0.30118448  0.31404020  0.61190622  1
  O  O146  1  0.31334821  0.65961156  0.12048428  1
  O  O147  1  0.31060964  0.65779551  0.62532765  1
  O  O148  1  0.30591081  0.98799071  0.12479807  1
  O  O149  1  0.28984188  0.99606540  0.62450954  1
  O  O150  1  0.63439646  0.32182622  0.12977664  1
  O  O151  1  0.64870551  0.30670052  0.61935393  1
  O  O152  1  0.64687648  0.68425504  0.12654612  1
  O  O153  1  0.64720983  0.66599605  0.62130772  1
  O  O154  1  0.65194951  0.98470194  0.11927029  1
  O  O155  1  0.63532459  1.00150129  0.62584627  1
  O  O156  1  0.96712504  0.33117059  0.13359166  1
  O  O157  1  0.96554965  0.32486106  0.61967592  1
  O  O158  1  0.96336914  0.66276754  0.12756562  1
  O  O159  1  0.98392743  0.65678214  0.63012199  1
  O  O160  1  0.97740174  0.99883496  0.12471922  1
  O  O161  1  0.98724023  0.99793390  0.62708930  1
  O  O162  1  0.18224940  0.15972828  0.12548616  1
  O  O163  1  0.19870088  0.16735691  0.62685443  1
  O  O164  1  0.19751424  0.48563445  0.12865486  1
  O  O165  1  0.19543201  0.48396961  0.61776197  1
  O  O166  1  0.20344269  0.82715900  0.12924652  1
  O  O167  1  0.18564774  0.82772995  0.63614898  1
  O  O168  1  0.53314385  0.17009520  0.13033775  1
  O  O169  1  0.52454404  0.15771468  0.61544338  1
  O  O170  1  0.52404710  0.48124581  0.12563699  1
  O  O171  1  0.54437553  0.48274144  0.62359452  1
  O  O172  1  0.52948786  0.83139144  0.12653476  1
  O  O173  1  0.52482668  0.82270719  0.63447116  1
  O  O174  1  0.85079706  0.16988169  0.13145135  1
  O  O175  1  0.86860265  0.16631950  0.62412317  1
  O  O176  1  0.84194781  0.48904696  0.12201461  1
  O  O177  1  0.86614660  0.48758422  0.62527023  1
  O  O178  1  0.84507796  0.83135773  0.13052235  1
  O  O179  1  0.85251250  0.83883670  0.62695150  1
  O  O180  1  0.12770005  0.18962141  0.37409014  1
  O  O181  1  0.13170446  0.18453827  0.86549908  1
  O  O182  1  0.13261999  0.49222613  0.37399519  1
  O  O183  1  0.15098916  0.49306669  0.88357401  1
  O  O184  1  0.15029619  0.83821446  0.36385978  1
  O  O185  1  0.13639957  0.83856788  0.87202542  1
  O  O186  1  0.46784763  0.17593719  0.37197631  1
  O  O187  1  0.48610563  0.17740034  0.88329787  1
  O  O188  1  0.48681057  0.50311433  0.37610486  1
  O  O189  1  0.48514989  0.49812331  0.87679446  1
  O  O190  1  0.46799475  0.83420328  0.36796167  1
  O  O191  1  0.46908719  0.83827777  0.87144177  1
  O  O192  1  0.80101349  0.18350576  0.36897011  1
  O  O193  1  0.80950907  0.17415885  0.87401095  1
  O  O194  1  0.80899150  0.49829345  0.38492614  1
  O  O195  1  0.81000100  0.50766530  0.87294587  1
  O  O196  1  0.81306509  0.82718500  0.37758913  1
  O  O197  1  0.80073227  0.84424877  0.86974452  1
  O  O198  1  0.01821906  0.00937668  0.37380276  1
  O  O199  1  0.02606200  0.01543359  0.87262441  1
  O  O200  1  0.02954206  0.35351443  0.37725937  1
  O  O201  1  0.03179535  0.33915742  0.86348476  1
  O  O202  1  0.01299732  0.65948573  0.37540347  1
  O  O203  1  0.00876783  0.66999611  0.87309393  1
  O  O204  1  0.35502534  0.01212811  0.36702741  1
  O  O205  1  0.35045469  0.00324799  0.87863679  1
  O  O206  1  0.36767498  0.33840134  0.37065092  1
  O  O207  1  0.36904174  0.33626350  0.88392112  1
  O  O208  1  0.35556531  0.67126013  0.37307440  1
  O  O209  1  0.35090353  0.67189978  0.88107657  1
  O  O210  1  0.68237996  0.01434312  0.37935081  1
  O  O211  1  0.69717777  0.00245492  0.87195600  1
  O  O212  1  0.69999672  0.33353885  0.36756561  1
  O  O213  1  0.67938128  0.32830463  0.88528777  1
  O  O214  1  0.68863682  0.66373098  0.37322781  1
  O  O215  1  0.70289082  0.67693955  0.88435171  1
  O  O216  1  0.06924651  0.10137346  0.00540568  1
  O  O217  1  0.07152632  0.10558891  0.52684699  1
  O  O218  1  0.07936044  0.42644037  0.02186663  1
  O  O219  1  0.06570904  0.43096590  0.52616687  1
  O  O220  1  0.06905668  0.76049042  0.00710716  1
  O  O221  1  0.07949384  0.75648268  0.51132464  1
  O  O222  1  0.40820568  0.09653551  0.01779128  1
  O  O223  1  0.40391970  0.10204896  0.52183658  1
  O  O224  1  0.40060413  0.42219846  0.03256045  1
  O  O225  1  0.39246955  0.42278788  0.52358247  1
  O  O226  1  0.39896633  0.75998637  0.01686580  1
  O  O227  1  0.42461254  0.74816870  0.52464502  1
  O  O228  1  0.72741709  0.09728318  0.02654464  1
  O  O229  1  0.72602227  0.10502336  0.51677524  1
  O  O230  1  0.73421953  0.42250817  0.02173219  1
  O  O231  1  0.73925752  0.43359510  0.53104938  1
  O  O232  1  0.73299095  0.76820748  0.02357403  1
  O  O233  1  0.74343401  0.75819701  0.51463971  1
  O  O234  1  0.10332893  0.27337403  0.01896850  1
  O  O235  1  0.09409355  0.27499935  0.52527731  1
  O  O236  1  0.09430050  0.58477904  0.01782988  1
  O  O237  1  0.09388820  0.57903573  0.52158222  1
  O  O238  1  0.10724760  0.93682437  0.02881908  1
  O  O239  1  0.10637280  0.93752893  0.52023017  1
  O  O240  1  0.43518137  0.26675820  0.02495827  1
  O  O241  1  0.42722438  0.26164664  0.51073438  1
  O  O242  1  0.41735447  0.58925610  0.02061230  1
  O  O243  1  0.42888195  0.58578180  0.53523520  1
  O  O244  1  0.42396224  0.92682331  0.02098447  1
  O  O245  1  0.43311911  0.93557508  0.52626896  1
  O  O246  1  0.75820682  0.26520109  0.03172026  1
  O  O247  1  0.77889620  0.27790043  0.50998318  1
  O  O248  1  0.76691369  0.60426320  0.02227930  1
  O  O249  1  0.76297457  0.59010769  0.52859191  1
  O  O250  1  0.76177847  0.93692087  0.00676639  1
  O  O251  1  0.75685210  0.93526687  0.51281091  1
  O  O252  1  0.25138089  0.07565481  0.26302977  1
  O  O253  1  0.23075273  0.08144009  0.76415306  1
  O  O254  1  0.23284513  0.39509593  0.27050218  1
  O  O255  1  0.22554934  0.39263509  0.76424484  1
  O  O256  1  0.24277534  0.74431217  0.27058757  1
  O  O257  1  0.23858684  0.74434631  0.77657591  1
  O  O258  1  0.57366841  0.08317083  0.27058222  1
  O  O259  1  0.57211913  0.06300094  0.75711673  1
  O  O260  1  0.57074190  0.39146264  0.27107818  1
  O  O261  1  0.56463590  0.39175432  0.77687704  1
  O  O262  1  0.57076228  0.74434231  0.26843647  1
  O  O263  1  0.57640238  0.74876206  0.77780215  1
  O  O264  1  0.90491434  0.08906563  0.27243279  1
  O  O265  1  0.90363846  0.07061103  0.77871172  1
  O  O266  1  0.90411029  0.40130936  0.27383914  1
  O  O267  1  0.90406194  0.39922746  0.76057770  1
  O  O268  1  0.89892669  0.74164979  0.25911271  1
  O  O269  1  0.89879832  0.73939806  0.77975575  1
  O  O270  1  0.26629474  0.24111717  0.27896434  1
  O  O271  1  0.25066166  0.24161194  0.77381697  1
  O  O272  1  0.25373729  0.56394052  0.25970855  1
  O  O273  1  0.26216535  0.56644534  0.75749908  1
  O  O274  1  0.27318170  0.89993189  0.26509542  1
  O  O275  1  0.26317013  0.89452992  0.77724368  1
  O  O276  1  0.59803688  0.23576343  0.27737066  1
  O  O277  1  0.59410487  0.23062451  0.75674846  1
  O  O278  1  0.59519777  0.58319409  0.25846271  1
  O  O279  1  0.60188779  0.57173189  0.75723558  1
  O  O280  1  0.58774083  0.90653803  0.26088738  1
  O  O281  1  0.60029569  0.90216575  0.77564909  1
  O  O282  1  0.92722298  0.24368780  0.28231885  1
  O  O283  1  0.94407828  0.23665537  0.76599993  1
  O  O284  1  0.92864475  0.56313235  0.27369829  1
  O  O285  1  0.92803032  0.57020145  0.76639516  1
  O  O286  1  0.92026355  0.90391026  0.26721743  1
  O  O287  1  0.92466241  0.89937414  0.77821244  1
  O  O288  1  0.26612164  0.24169416  0.46170390  1
  O  O289  1  0.26232931  0.24764137  0.97607227  1
  O  O290  1  0.25669158  0.55986831  0.48502895  1
  O  O291  1  0.26339279  0.56656246  0.99336089  1
  O  O292  1  0.27241615  0.89942164  0.46854949  1
  O  O293  1  0.27460261  0.90165545  0.98291224  1
  O  O294  1  0.59341507  0.22984965  0.46781228  1
  O  O295  1  0.59775786  0.23424909  0.99291877  1
  O  O296  1  0.60167285  0.57841720  0.49418183  1
  O  O297  1  0.59989934  0.58208178  0.98951747  1
  O  O298  1  0.59589401  0.91350010  0.48533699  1
  O  O299  1  0.60389929  0.90510953  0.97714612  1
  O  O300  1  0.93873374  0.24561622  0.46872567  1
  O  O301  1  0.93384778  0.23353752  0.97641704  1
  O  O302  1  0.93027650  0.56023249  0.48760846  1
  O  O303  1  0.91671194  0.56848573  0.97972742  1
  O  O304  1  0.91802865  0.90738649  0.48757812  1
  O  O305  1  0.93453312  0.89607071  0.96836325  1
  O  O306  1  0.24482111  0.08369069  0.47226608  1
  O  O307  1  0.24625886  0.07091736  0.99374979  1
  O  O308  1  0.23110658  0.39286411  0.47565402  1
  O  O309  1  0.23672711  0.39818792  0.98254880  1
  O  O310  1  0.24987365  0.74540249  0.47798940  1
  O  O311  1  0.24527505  0.74087565  0.97950418  1
  O  O312  1  0.56614145  0.07099896  0.48436789  1
  O  O313  1  0.57099809  0.06990869  0.98711180  1
  O  O314  1  0.56835347  0.39318843  0.47146870  1
  O  O315  1  0.56653754  0.39127908  0.98798100  1
  O  O316  1  0.58521706  0.74143368  0.48718136  1
  O  O317  1  0.58263203  0.74302695  0.97671329  1
  O  O318  1  0.91076506  0.08456238  0.47389825  1
  O  O319  1  0.89740942  0.06497891  0.97433829  1
  O  O320  1  0.90251709  0.40387745  0.47388446  1
  O  O321  1  0.89915742  0.40581638  0.99192284  1
  O  O322  1  0.90496683  0.74618934  0.49420166  1
  O  O323  1  0.89206391  0.72979878  0.98221152  1
  O  O324  1  0.09449660  0.27446152  0.22971290  1
  O  O325  1  0.09642879  0.26880328  0.71545837  1
  O  O326  1  0.09595785  0.58261668  0.23321104  1
  O  O327  1  0.08389307  0.58988208  0.73572164  1
  O  O328  1  0.10746486  0.92684714  0.22248074  1
  O  O329  1  0.10609241  0.93029818  0.73030809  1
  O  O330  1  0.43198607  0.26750405  0.22918427  1
  O  O331  1  0.41283939  0.24866903  0.72587006  1
  O  O332  1  0.41681778  0.58071044  0.22271347  1
  O  O333  1  0.43557417  0.59813193  0.72216052  1
  O  O334  1  0.42449803  0.92132573  0.22122801  1
  O  O335  1  0.43568098  0.92723549  0.72450269  1
  O  O336  1  0.76234400  0.26699545  0.22202188  1
  O  O337  1  0.76757598  0.26683015  0.72506648  1
  O  O338  1  0.76121506  0.60742464  0.22872879  1
  O  O339  1  0.76761078  0.59048092  0.73621741  1
  O  O340  1  0.75705428  0.92129819  0.24097601  1
  O  O341  1  0.76621421  0.93423681  0.73646393  1
  O  O342  1  0.08053971  0.08928903  0.23598681  1
  O  O343  1  0.07319005  0.10727393  0.72059598  1
  O  O344  1  0.07163847  0.42443135  0.22887311  1
  O  O345  1  0.06571537  0.42653245  0.71587801  1
  O  O346  1  0.08183809  0.76245865  0.23286412  1
  O  O347  1  0.06426134  0.76630235  0.74324329  1
  O  O348  1  0.40577937  0.09926050  0.23313055  1
  O  O349  1  0.40523769  0.08812510  0.71698178  1
  O  O350  1  0.39947378  0.42025204  0.22128076  1
  O  O351  1  0.39493565  0.43322223  0.72036368  1
  O  O352  1  0.40652627  0.76652296  0.22378697  1
  O  O353  1  0.41485848  0.76205785  0.73676167  1
  O  O354  1  0.73572872  0.10741230  0.23237050  1
  O  O355  1  0.73065958  0.09248744  0.72398362  1
  O  O356  1  0.73723052  0.41967761  0.22839791  1
  O  O357  1  0.74088337  0.43196461  0.72335077  1
  O  O358  1  0.73569387  0.76656500  0.22662036  1
  O  O359  1  0.73960140  0.76770849  0.73897881  1
