# generated using pymatgen
data_BaLaInIrO6
_symmetry_space_group_name_H-M   'P 1'
_cell_length_a   17.53497495
_cell_length_b   17.54637794
_cell_length_c   16.50299050
_cell_angle_alpha   89.98579314
_cell_angle_beta   89.99382595
_cell_angle_gamma   89.97600178
_symmetry_Int_Tables_number   1
_chemical_formula_structural   BaLaInIrO6
_chemical_formula_sum   'Ba36 La36 In36 Ir36 O216'
_cell_volume   5077.56188412
_cell_formula_units_Z   36
loop_
 _symmetry_equiv_pos_site_id
 _symmetry_equiv_pos_as_xyz
  1  'x, y, z'
loop_
 _atom_site_type_symbol
 _atom_site_label
 _atom_site_symmetry_multiplicity
 _atom_site_fract_x
 _atom_site_fract_y
 _atom_site_fract_z
 _atom_site_occupancy
  Ba  Ba0  1  0.67081763  0.82391712  0.37236477  1
  Ba  Ba1  1  0.50503984  0.65799237  0.37593929  1
  Ba  Ba2  1  0.83587099  0.33936832  0.62556130  1
  Ba  Ba3  1  -0.00142095  0.82188568  0.88452189  1
  Ba  Ba4  1  0.17024735  0.65673136  0.37581665  1
  Ba  Ba5  1  0.50369380  0.32390777  0.87358549  1
  Ba  Ba6  1  0.66371774  0.49030405  0.87524205  1
  Ba  Ba7  1  0.16639201  0.99362639  0.37373106  1
  Ba  Ba8  1  -0.00353220  0.48877537  0.87420813  1
  Ba  Ba9  1  0.16335841  0.33456416  0.12149674  1
  Ba  Ba10  1  0.82568902  0.32701601  0.87491673  1
  Ba  Ba11  1  0.50481574  0.01068869  0.62231277  1
  Ba  Ba12  1  0.00144068  0.16049506  0.37579284  1
  Ba  Ba13  1  0.32975930  0.48936432  0.37797446  1
  Ba  Ba14  1  0.66522848  0.18255024  0.12710329  1
  Ba  Ba15  1  0.16742420  0.00589154  0.12563443  1
  Ba  Ba16  1  -0.00264218  0.48917363  0.37297331  1
  Ba  Ba17  1  0.66705758  0.50913061  0.62859034  1
  Ba  Ba18  1  0.83942433  0.65837721  0.37645931  1
  Ba  Ba19  1  0.16429865  0.34150284  0.62270364  1
  Ba  Ba20  1  0.83561084  0.65827541  0.87416071  1
  Ba  Ba21  1  0.33580126  0.15950862  0.87674922  1
  Ba  Ba22  1  0.66183667  0.49144929  0.37813864  1
  Ba  Ba23  1  0.33619047  0.50758544  0.62479247  1
  Ba  Ba24  1  0.49480062  0.34600589  0.12138762  1
  Ba  Ba25  1  0.82745595  0.34187876  0.12504986  1
  Ba  Ba26  1  0.83906457  0.99400379  0.36783115  1
  Ba  Ba27  1  0.66496271  0.84238518  0.12354868  1
  Ba  Ba28  1  0.83893902  0.67224182  0.62577106  1
  Ba  Ba29  1  0.49854534  0.65697807  0.87899364  1
  Ba  Ba30  1  1.00141385  0.84352795  0.63217942  1
  Ba  Ba31  1  0.49667263  0.32625030  0.37474375  1
  Ba  Ba32  1  0.33258818  0.17734170  0.12282782  1
  Ba  Ba33  1  0.33740928  0.84170968  0.12677837  1
  Ba  Ba34  1  0.99909200  0.50559035  0.12088594  1
  Ba  Ba35  1  0.33616198  0.84046652  0.62278914  1
  La  La36  1  0.16895647  0.98228883  0.87785869  1
  La  La37  1  0.50467169  0.99077910  0.37238046  1
  La  La38  1  0.32778759  0.81676924  0.87784433  1
  La  La39  1  1.00642077  0.84363863  0.12728587  1
  La  La40  1  0.17329863  0.65034039  0.87383837  1
  La  La41  1  0.34090111  0.18141569  0.62119505  1
  La  La42  1  -0.00556037  0.82002025  0.37485133  1
  La  La43  1  0.50530296  0.67382739  0.13160318  1
  La  La44  1  0.65348571  0.15978067  0.87700657  1
  La  La45  1  0.16390122  0.67802861  0.12390707  1
  La  La46  1  0.32550617  0.15764402  0.37370833  1
  La  La47  1  0.83113191  0.01589223  0.12148860  1
  La  La48  1  0.49875559  0.67901277  0.61934701  1
  La  La49  1  -0.00722178  0.15466540  0.88048434  1
  La  La50  1  0.17225242  0.31786366  0.87106164  1
  La  La51  1  0.83091007  0.67819200  0.11981391  1
  La  La52  1  0.49642725  0.35083570  0.62307265  1
  La  La53  1  0.16227939  0.01259545  0.63478256  1
  La  La54  1  0.49313631  0.02193501  0.12475652  1
  La  La55  1  0.16122221  0.68416046  0.62555252  1
  La  La56  1  0.32780496  0.81732617  0.37209583  1
  La  La57  1  0.83319386  0.98657541  0.88149795  1
  La  La58  1  1.00540478  0.51830723  0.62678563  1
  La  La59  1  0.50350774  0.98918337  0.87654195  1
  La  La60  1  0.83223863  0.32399385  0.37708729  1
  La  La61  1  0.33122588  0.48476744  0.87422070  1
  La  La62  1  0.82430209  0.00480353  0.62459203  1
  La  La63  1  0.66801554  0.82957747  0.62215788  1
  La  La64  1  0.66986619  0.50960437  0.12281313  1
  La  La65  1  0.66412120  0.81686034  0.87822749  1
  La  La66  1  0.66204371  0.16192234  0.37488214  1
  La  La67  1  0.33966253  0.51532516  0.12388714  1
  La  La68  1  1.00293533  0.17560418  0.12832482  1
  La  La69  1  0.99364450  0.17017070  0.63260978  1
  La  La70  1  0.67081601  0.18359309  0.62515057  1
  La  La71  1  0.17108060  0.31901910  0.37563989  1
  In  In72  1  0.00428663  0.66846246  0.75742938  1
  In  In73  1  0.33170605  0.33544049  0.24877122  1
  In  In74  1  0.49987371  0.83525471  0.24952646  1
  In  In75  1  0.66347525  0.33421054  0.74817180  1
  In  In76  1  0.33518499  0.00039838  0.74951447  1
  In  In77  1  0.66787948  0.00254393  0.24534922  1
  In  In78  1  0.50019807  0.83473335  -0.00131644  1
  In  In79  1  0.66848843  0.00126459  0.49664992  1
  In  In80  1  0.67139514  0.66711523  0.24807968  1
  In  In81  1  0.83207214  0.49967721  0.24924278  1
  In  In82  1  0.83354147  0.83666139  0.75490332  1
  In  In83  1  0.33551157  -0.00202251  -0.00186215  1
  In  In84  1  0.82892972  0.16233515  0.75410232  1
  In  In85  1  0.00225473  0.32902593  0.75135981  1
  In  In86  1  0.33241202  0.33406530  -0.00256821  1
  In  In87  1  0.16747199  0.16534879  0.50575489  1
  In  In88  1  0.00071392  0.33185329  0.49898440  1
  In  In89  1  0.49949932  0.83627953  0.49753419  1
  In  In90  1  0.00263586  0.66451441  0.24678949  1
  In  In91  1  0.83577716  0.49808200  0.74936350  1
  In  In92  1  0.83164812  0.16993409  0.24765458  1
  In  In93  1  -0.00056097  0.00163563  0.50438506  1
  In  In94  1  0.33387257  0.66486905  0.74868375  1
  In  In95  1  0.83862129  0.83750277  0.50032562  1
  In  In96  1  0.66687337  -0.00196084  0.75107192  1
  In  In97  1  0.16760290  0.83858303  0.49872067  1
  In  In98  1  0.33342449  0.00042437  0.49950590  1
  In  In99  1  0.16748824  0.49799232  -0.00012339  1
  In  In100  1  0.83402536  0.49699694  0.50033256  1
  In  In101  1  0.33441893  0.33225817  0.74806792  1
  In  In102  1  0.33182334  0.66368826  0.50124471  1
  In  In103  1  0.16802666  0.49649355  0.24734900  1
  In  In104  1  0.66989330  0.66584861  0.50055666  1
  In  In105  1  -0.00302378  0.33089224  -0.00127892  1
  In  In106  1  0.16178539  0.15994454  -0.00214296  1
  In  In107  1  0.16782132  0.83488658  0.24939031  1
  Ir  Ir108  1  0.83143503  0.50193731  0.00045625  1
  Ir  Ir109  1  0.83248423  0.83396107  0.00499010  1
  Ir  Ir110  1  0.50207467  0.83355421  0.75401065  1
  Ir  Ir111  1  0.16523840  0.16296284  0.24990744  1
  Ir  Ir112  1  -0.00082984  0.32839009  0.25102525  1
  Ir  Ir113  1  0.49977720  0.49704105  0.49998755  1
  Ir  Ir114  1  0.66726722  0.66536364  -0.00139986  1
  Ir  Ir115  1  0.33231227  0.66670021  -0.00020768  1
  Ir  Ir116  1  0.66135296  0.32918893  0.49784206  1
  Ir  Ir117  1  -0.00054266  0.66784341  0.00352242  1
  Ir  Ir118  1  0.82799115  0.16619385  0.50109896  1
  Ir  Ir119  1  -0.00505015  -0.00357721  0.00076542  1
  Ir  Ir120  1  0.82672127  0.16466026  -0.00266095  1
  Ir  Ir121  1  0.16455665  0.16131123  0.75214062  1
  Ir  Ir122  1  0.50002512  0.50687585  0.00137709  1
  Ir  Ir123  1  0.65997724  0.67123506  0.75380891  1
  Ir  Ir124  1  0.66165259  0.33692344  0.25055568  1
  Ir  Ir125  1  0.49848316  0.17074121  0.49898843  1
  Ir  Ir126  1  -0.00107363  -0.00080874  0.24484380  1
  Ir  Ir127  1  0.49892337  0.50414692  0.74909174  1
  Ir  Ir128  1  0.49651211  0.16896196  0.25432512  1
  Ir  Ir129  1  0.50191896  0.16529685  0.74570773  1
  Ir  Ir130  1  0.16824931  0.83467710  0.75729885  1
  Ir  Ir131  1  0.00706876  0.66667790  0.50163397  1
  Ir  Ir132  1  0.33548177  0.66376705  0.24616121  1
  Ir  Ir133  1  0.50127524  0.50090078  0.24710732  1
  Ir  Ir134  1  0.66335122  0.33469870  0.00288765  1
  Ir  Ir135  1  0.66812926  0.00254465  -0.00052083  1
  Ir  Ir136  1  0.16520620  0.49869576  0.50421671  1
  Ir  Ir137  1  0.33466481  0.33198387  0.49977295  1
  Ir  Ir138  1  0.33866336  0.00586638  0.25044133  1
  Ir  Ir139  1  0.16792780  0.50116463  0.74774122  1
  Ir  Ir140  1  0.00011028  0.00169650  0.75950052  1
  Ir  Ir141  1  0.84114512  0.83530392  0.24387230  1
  Ir  Ir142  1  0.16455001  0.82829266  -0.00170702  1
  Ir  Ir143  1  0.50274398  0.16595213  -0.00051735  1
  O  O144  1  0.31705610  0.33779928  0.12254167  1
  O  O145  1  0.31713998  0.32682905  0.62124929  1
  O  O146  1  0.30319653  0.65589692  0.12236824  1
  O  O147  1  0.29650005  0.66692323  0.62785886  1
  O  O148  1  0.31834120  1.00126053  0.12981207  1
  O  O149  1  0.29762722  0.99577133  0.62774162  1
  O  O150  1  0.64188948  0.34368808  0.12579056  1
  O  O151  1  0.63110124  0.32096653  0.61806402  1
  O  O152  1  0.63919478  0.65770028  0.11698572  1
  O  O153  1  0.63423579  0.67646139  0.63487793  1
  O  O154  1  0.63113138  0.99799969  0.11635444  1
  O  O155  1  0.65403872  0.96847894  0.62521762  1
  O  O156  1  0.97581788  0.31792354  0.13132841  1
  O  O157  1  0.98562260  0.30684962  0.62441965  1
  O  O158  1  0.96762148  0.66731734  0.11901201  1
  O  O159  1  0.99424852  0.65979775  0.62360776  1
  O  O160  1  0.96587194  0.98355992  0.12212764  1
  O  O161  1  0.96457662  1.00319604  0.64001653  1
  O  O162  1  0.18211653  0.16137455  0.13010906  1
  O  O163  1  0.20227974  0.15149261  0.63402976  1
  O  O164  1  0.20554609  0.49259290  0.12216148  1
  O  O165  1  0.18913048  0.49627298  0.62673706  1
  O  O166  1  0.18865785  0.82253414  0.11790241  1
  O  O167  1  0.18701401  0.82642344  0.63665231  1
  O  O168  1  0.52102949  0.15739947  0.12766919  1
  O  O169  1  0.53252185  0.16673704  0.62173302  1
  O  O170  1  0.53036534  0.50657318  0.12378492  1
  O  O171  1  0.51960954  0.48674465  0.62465004  1
  O  O172  1  0.51281900  0.81447755  0.12243558  1
  O  O173  1  0.53290488  0.82416703  0.63476889  1
  O  O174  1  0.86251698  0.16379732  0.11585853  1
  O  O175  1  0.85878008  0.15550558  0.62148016  1
  O  O176  1  0.84939870  0.49610350  0.11849958  1
  O  O177  1  0.87025330  0.49435859  0.62312422  1
  O  O178  1  0.86999767  0.82554896  0.12336904  1
  O  O179  1  0.84587701  0.85150356  0.62907224  1
  O  O180  1  0.15187582  0.17113498  0.36978985  1
  O  O181  1  0.12977209  0.17182594  0.86923755  1
  O  O182  1  0.14761677  0.50077034  0.38491400  1
  O  O183  1  0.14643735  0.51527193  0.86696739  1
  O  O184  1  0.13031649  0.83553455  0.37224240  1
  O  O185  1  0.14407881  0.84396374  0.87755628  1
  O  O186  1  0.46413383  0.17219320  0.37645732  1
  O  O187  1  0.48347638  0.16443071  0.87294216  1
  O  O188  1  0.47869402  0.50137799  0.37203655  1
  O  O189  1  0.46860072  0.50677614  0.87383301  1
  O  O190  1  0.46035428  0.84469752  0.37107845  1
  O  O191  1  0.46635462  0.84398028  0.87232175  1
  O  O192  1  0.79998661  0.17607494  0.37915707  1
  O  O193  1  0.79060655  0.16272901  0.88087837  1
  O  O194  1  0.81321193  0.49696036  0.37434042  1
  O  O195  1  0.81459338  0.50445869  0.88202090  1
  O  O196  1  0.82242674  0.83528276  0.36428356  1
  O  O197  1  0.79983384  0.84167090  0.88608627  1
  O  O198  1  0.01639989  0.00711104  0.36588418  1
  O  O199  1  0.03380645  0.01168350  0.88061256  1
  O  O200  1  0.03254680  0.33146310  0.36812727  1
  O  O201  1  0.03804785  0.32705466  0.87418813  1
  O  O202  1  0.02094194  0.67865759  0.37922260  1
  O  O203  1  0.03525336  0.66676877  0.88554576  1
  O  O204  1  0.36842015  0.01925222  0.36831551  1
  O  O205  1  0.36856253  0.00313061  0.87276955  1
  O  O206  1  0.34613640  0.32613730  0.37961049  1
  O  O207  1  0.35577370  0.34125061  0.87161871  1
  O  O208  1  0.35398015  0.67232156  0.36758251  1
  O  O209  1  0.34939701  0.67604092  0.87781672  1
  O  O210  1  0.68934939  0.02721378  0.37076955  1
  O  O211  1  0.69682582  0.01753163  0.88199471  1
  O  O212  1  0.69228856  0.32990106  0.37503188  1
  O  O213  1  0.67370823  0.32658479  0.88204200  1
  O  O214  1  0.68795501  0.66421336  0.37312102  1
  O  O215  1  0.68851629  0.67673865  0.87621156  1
  O  O216  1  0.06039468  0.08632142  0.02508837  1
  O  O217  1  0.06942864  0.09722433  0.53457962  1
  O  O218  1  0.07505384  0.42256148  0.01508927  1
  O  O219  1  0.06865587  0.43698287  0.52502579  1
  O  O220  1  0.06950932  0.75942611  0.03013130  1
  O  O221  1  0.07849428  0.75443273  0.52277648  1
  O  O222  1  0.41404472  0.09471581  0.01792629  1
  O  O223  1  0.40420817  0.10868729  0.52260311  1
  O  O224  1  0.40275322  0.44465234  0.01459114  1
  O  O225  1  0.40862580  0.42218106  0.51910884  1
  O  O226  1  0.39646002  0.76211477  0.00596063  1
  O  O227  1  0.41578838  0.75007408  0.52387589  1
  O  O228  1  0.74145640  0.08879113  0.03018774  1
  O  O229  1  0.73507051  0.10211076  0.52776231  1
  O  O230  1  0.73302908  0.43470678  0.02110194  1
  O  O231  1  0.73245630  0.41518492  0.51808948  1
  O  O232  1  0.74391690  0.75542795  0.02624737  1
  O  O233  1  0.74195068  0.76583125  0.52205607  1
  O  O234  1  0.07514789  0.24102819  0.02317153  1
  O  O235  1  0.10118909  0.26385771  0.50169545  1
  O  O236  1  0.09768037  0.60467119  0.02318668  1
  O  O237  1  0.10210137  0.59517188  0.52911573  1
  O  O238  1  0.08756000  0.92092940  0.02290511  1
  O  O239  1  0.10356560  0.93782192  0.53074118  1
  O  O240  1  0.42981073  0.25483599  0.01104826  1
  O  O241  1  0.43076823  0.26527440  0.52777759  1
  O  O242  1  0.43048972  0.60256725  0.02927416  1
  O  O243  1  0.43266475  0.59032265  0.52244363  1
  O  O244  1  0.44002425  0.93810371  0.01976933  1
  O  O245  1  0.42979891  0.93289818  0.51765231  1
  O  O246  1  0.75711874  0.25946352  0.01997234  1
  O  O247  1  0.75301775  0.25766419  0.52131798  1
  O  O248  1  0.75983474  0.59472735  0.02592596  1
  O  O249  1  0.75923211  0.58952192  0.52324357  1
  O  O250  1  0.76496797  0.93369641  0.02465031  1
  O  O251  1  0.77276212  0.94017281  0.50828136  1
  O  O252  1  0.24559540  0.07802323  0.27456422  1
  O  O253  1  0.22700427  0.06639335  0.77847658  1
  O  O254  1  0.23238091  0.39896337  0.27716784  1
  O  O255  1  0.23299071  0.40609151  0.77122596  1
  O  O256  1  0.24820780  0.73936294  0.26417479  1
  O  O257  1  0.23649584  0.74219879  0.78157866  1
  O  O258  1  0.56533960  0.07876664  0.27290051  1
  O  O259  1  0.56840525  0.07119305  0.77498787  1
  O  O260  1  0.56819183  0.40597907  0.26507226  1
  O  O261  1  0.56511817  0.40940737  0.75822954  1
  O  O262  1  0.57633429  0.74033821  0.25734133  1
  O  O263  1  0.57345262  0.74637992  0.78158574  1
  O  O264  1  0.91294520  0.07364496  0.25018503  1
  O  O265  1  0.90853157  0.06801398  0.78927166  1
  O  O266  1  0.90610801  0.39511908  0.27274745  1
  O  O267  1  0.90862347  0.40105514  0.76881583  1
  O  O268  1  0.91334519  0.74956633  0.26546934  1
  O  O269  1  0.91132838  0.74642373  0.76528204  1
  O  O270  1  0.25433482  0.23529393  0.27179018  1
  O  O271  1  0.25291237  0.23610719  0.77010229  1
  O  O272  1  0.26909064  0.57360947  0.26021746  1
  O  O273  1  0.26384989  0.56572125  0.77649071  1
  O  O274  1  0.27090187  0.90944644  0.27187330  1
  O  O275  1  0.25930558  0.90287571  0.78307194  1
  O  O276  1  0.59402573  0.23599143  0.27460692  1
  O  O277  1  0.59709347  0.22765873  0.76492773  1
  O  O278  1  0.59065421  0.56939772  0.25708682  1
  O  O279  1  0.59202264  0.57560604  0.76725229  1
  O  O280  1  0.59081612  0.91446100  0.27172831  1
  O  O281  1  0.59215747  0.90350954  0.78605176  1
  O  O282  1  0.92382782  0.24327310  0.27352177  1
  O  O283  1  0.93387616  0.22308140  0.76958318  1
  O  O284  1  0.92635722  0.57438679  0.26262784  1
  O  O285  1  0.93121842  0.57441231  0.75837865  1
  O  O286  1  0.93708619  0.90145790  0.26673070  1
  O  O287  1  0.93266898  0.91528663  0.78497336  1
  O  O288  1  0.27013470  0.23739959  0.48611845  1
  O  O289  1  0.24623475  0.24571953  0.97672029  1
  O  O290  1  0.25671489  0.56660208  0.48737665  1
  O  O291  1  0.26930715  0.57232660  0.97558055  1
  O  O292  1  0.26844068  0.90190629  0.46632033  1
  O  O293  1  0.26031081  0.89669876  0.97445767  1
  O  O294  1  0.59597782  0.23334618  0.47606355  1
  O  O295  1  0.59825325  0.23474685  0.98269022  1
  O  O296  1  0.58592740  0.57041428  0.49213106  1
  O  O297  1  0.59657185  0.57316146  0.98358058  1
  O  O298  1  0.58845695  0.91576834  0.46737053  1
  O  O299  1  0.60076429  0.91132173  0.96866316  1
  O  O300  1  0.91332686  0.23839508  0.47856860  1
  O  O301  1  0.91659160  0.23264972  0.96871723  1
  O  O302  1  0.93839621  0.57701009  0.49030449  1
  O  O303  1  0.92619863  0.57386303  0.98131495  1
  O  O304  1  0.94194930  0.90017858  0.47758693  1
  O  O305  1  0.91772682  0.91062961  0.97676439  1
  O  O306  1  0.24630582  0.08011518  0.47476744  1
  O  O307  1  0.23391627  0.06357799  0.97574490  1
  O  O308  1  0.23333015  0.39753305  0.47920846  1
  O  O309  1  0.24023474  0.40869926  0.95794367  1
  O  O310  1  0.24543200  0.74593980  0.47888378  1
  O  O311  1  0.23284099  0.73197382  0.97453476  1
  O  O312  1  0.56491099  0.07994369  0.47187676  1
  O  O313  1  0.57383062  0.07027435  0.97292786  1
  O  O314  1  0.56759093  0.39777830  0.48778616  1
  O  O315  1  0.56902890  0.40940059  0.98306163  1
  O  O316  1  0.57737748  0.74365482  0.49194862  1
  O  O317  1  0.58314208  0.74405214  0.97861439  1
  O  O318  1  0.89768130  0.07642878  0.48692802  1
  O  O319  1  0.89985756  0.06980668  0.97533669  1
  O  O320  1  0.90237236  0.39701210  0.47329554  1
  O  O321  1  0.90093994  0.41010570  0.98484478  1
  O  O322  1  0.91880762  0.73998963  0.48673928  1
  O  O323  1  0.90147586  0.73744040  0.98633269  1
  O  O324  1  0.08674306  0.24893548  0.22602895  1
  O  O325  1  0.09849796  0.24837128  0.72685883  1
  O  O326  1  0.10249629  0.59607410  0.22385690  1
  O  O327  1  0.10854548  0.59943075  0.72937699  1
  O  O328  1  0.08556416  0.92596921  0.22672102  1
  O  O329  1  0.10082808  0.93488578  0.73645237  1
  O  O330  1  0.42681513  0.25710135  0.23495083  1
  O  O331  1  0.43381395  0.25891333  0.71978417  1
  O  O332  1  0.43073460  0.59431470  0.21960987  1
  O  O333  1  0.43564203  0.59832555  0.72420774  1
  O  O334  1  0.43278978  0.94228078  0.22800608  1
  O  O335  1  0.43519088  0.92326678  0.73173930  1
  O  O336  1  0.75226773  0.26688921  0.24055148  1
  O  O337  1  0.75332414  0.25445012  0.72755710  1
  O  O338  1  0.75909355  0.59263898  0.21144310  1
  O  O339  1  0.75000012  0.60244805  0.73544811  1
  O  O340  1  0.77151167  0.92651573  0.22055540  1
  O  O341  1  0.77567698  0.94341386  0.74923068  1
  O  O342  1  0.06891528  0.09297977  0.22346757  1
  O  O343  1  0.06995066  0.09274327  0.72635192  1
  O  O344  1  0.06936774  0.41710777  0.23040960  1
  O  O345  1  0.07371717  0.43710697  0.72564648  1
  O  O346  1  0.07670121  0.75816731  0.21722755  1
  O  O347  1  0.08325613  0.76049018  0.73669388  1
  O  O348  1  0.40536303  0.09947353  0.22861380  1
  O  O349  1  0.40460251  0.10350290  0.72321597  1
  O  O350  1  0.40557631  0.43723541  0.22904524  1
  O  O351  1  0.40876286  0.43314498  0.73825255  1
  O  O352  1  0.40650574  0.75073158  0.23095155  1
  O  O353  1  0.41487156  0.75983973  0.73181422  1
  O  O354  1  0.74868584  0.08862376  0.21855583  1
  O  O355  1  0.73515964  0.09355224  0.71416964  1
  O  O356  1  0.72715552  0.43009093  0.22948396  1
  O  O357  1  0.74032326  0.42462942  0.73698783  1
  O  O358  1  0.75549451  0.76085826  0.22168098  1
  O  O359  1  0.72427952  0.76962457  0.73996365  1
