# generated using pymatgen
data_BaLaInIrO6
_symmetry_space_group_name_H-M   'P 1'
_cell_length_a   17.54631607
_cell_length_b   17.57770193
_cell_length_c   16.51403435
_cell_angle_alpha   90.00934558
_cell_angle_beta   89.99168846
_cell_angle_gamma   90.03588249
_symmetry_Int_Tables_number   1
_chemical_formula_structural   BaLaInIrO6
_chemical_formula_sum   'Ba36 La36 In36 Ir36 O216'
_cell_volume   5093.32198788
_cell_formula_units_Z   36
loop_
 _symmetry_equiv_pos_site_id
 _symmetry_equiv_pos_as_xyz
  1  'x, y, z'
loop_
 _atom_site_type_symbol
 _atom_site_label
 _atom_site_symmetry_multiplicity
 _atom_site_fract_x
 _atom_site_fract_y
 _atom_site_fract_z
 _atom_site_occupancy
  Ba  Ba0  1  0.66633533  0.50345014  0.12732680  1
  Ba  Ba1  1  0.83183350  0.67629926  0.62180796  1
  Ba  Ba2  1  0.32827369  0.15816651  0.87882583  1
  Ba  Ba3  1  0.66691961  0.82415627  0.87292774  1
  Ba  Ba4  1  0.82926692  0.01333328  0.12487608  1
  Ba  Ba5  1  0.33078777  0.49042690  0.37719801  1
  Ba  Ba6  1  0.50425002  0.65717562  0.87234740  1
  Ba  Ba7  1  0.49924602  0.32999629  0.38138829  1
  Ba  Ba8  1  0.66618655  0.49219944  0.37923806  1
  Ba  Ba9  1  0.49783629  0.00912151  0.63027081  1
  Ba  Ba10  1  0.16334588  0.33993971  0.62615339  1
  Ba  Ba11  1  0.49899026  0.34047726  0.62351428  1
  Ba  Ba12  1  0.33579222  0.50753363  0.62373377  1
  Ba  Ba13  1  0.82912134  0.01391164  0.62647626  1
  Ba  Ba14  1  0.49879867  0.67222253  0.62112101  1
  Ba  Ba15  1  0.16685789  0.00789038  0.61979922  1
  Ba  Ba16  1  0.33298741  0.82671469  0.87901155  1
  Ba  Ba17  1  0.16219170  0.68121056  0.12357942  1
  Ba  Ba18  1  0.33695176  0.16468767  0.37499179  1
  Ba  Ba19  1  0.83623388  0.65487806  0.37391809  1
  Ba  Ba20  1  1.00587619  0.50739917  0.12072718  1
  Ba  Ba21  1  1.00098165  0.84670220  0.12592523  1
  Ba  Ba22  1  0.66543662  0.50551444  0.62171243  1
  Ba  Ba23  1  -0.00069516  0.16061808  0.87587528  1
  Ba  Ba24  1  0.66172862  0.16120828  0.37771203  1
  Ba  Ba25  1  0.16861934  0.99007318  0.87185889  1
  Ba  Ba26  1  0.17317981  0.65287672  0.37223873  1
  Ba  Ba27  1  0.16372734  0.34203698  0.12455137  1
  Ba  Ba28  1  0.50079040  0.65834362  0.37454050  1
  Ba  Ba29  1  0.33226763  0.83121171  0.37421237  1
  Ba  Ba30  1  0.66561673  0.84287750  0.62514297  1
  Ba  Ba31  1  0.83666073  0.65990613  0.87176375  1
  Ba  Ba32  1  0.50065943  0.33715003  0.12974951  1
  Ba  Ba33  1  0.49745384  0.00622246  0.12357174  1
  Ba  Ba34  1  0.83630540  0.32254462  0.88133116  1
  Ba  Ba35  1  1.00038860  0.17263600  0.62221409  1
  La  La36  1  0.33360425  0.18112541  0.12515584  1
  La  La37  1  1.00847248  0.84616386  0.63127663  1
  La  La38  1  0.33874852  0.18120455  0.62773172  1
  La  La39  1  0.65595168  0.82088297  0.37817460  1
  La  La40  1  -0.00243427  0.47919935  0.37249509  1
  La  La41  1  0.32976771  0.48303350  0.87206906  1
  La  La42  1  0.16571554  0.68178493  0.62301683  1
  La  La43  1  0.00031103  0.48165495  0.87754956  1
  La  La44  1  -0.00201013  0.82286761  0.87759323  1
  La  La45  1  0.67576490  0.84677249  0.12168745  1
  La  La46  1  0.50879960  0.98771477  0.38259971  1
  La  La47  1  0.34212542  0.84840973  0.62973155  1
  La  La48  1  0.16687605  0.99099848  0.37277706  1
  La  La49  1  0.83231847  0.98805013  0.37376829  1
  La  La50  1  0.50066047  0.98482607  0.87358619  1
  La  La51  1  0.17418625  0.65311845  0.87648752  1
  La  La52  1  1.00053548  0.18244954  0.12294177  1
  La  La53  1  -0.00698106  0.15218051  0.37336042  1
  La  La54  1  0.83204375  0.33857865  0.62652604  1
  La  La55  1  0.49437137  0.67725022  0.12164257  1
  La  La56  1  0.66280944  0.15280698  0.87700155  1
  La  La57  1  0.16198480  0.01434047  0.12343225  1
  La  La58  1  0.16971260  0.32129086  0.37450600  1
  La  La59  1  0.16757939  0.31540887  0.87579665  1
  La  La60  1  0.66704603  0.17596336  0.62533283  1
  La  La61  1  0.50568402  0.31992606  0.86560976  1
  La  La62  1  -0.00493242  0.81945754  0.37017691  1
  La  La63  1  0.67014960  0.18229390  0.12706964  1
  La  La64  1  0.34009399  0.51503838  0.12764437  1
  La  La65  1  0.33125556  0.84834312  0.12403522  1
  La  La66  1  0.83634307  0.31750836  0.37427216  1
  La  La67  1  0.82815654  0.34493658  0.12420879  1
  La  La68  1  1.00878617  0.51073514  0.62348859  1
  La  La69  1  0.83261742  0.68203202  0.12507076  1
  La  La70  1  0.83897240  0.98680225  0.87555972  1
  La  La71  1  0.66804244  0.49018956  0.86347262  1
  In  In72  1  0.66590490  0.33271048  -0.00378908  1
  In  In73  1  0.16843570  0.16593790  0.74427145  1
  In  In74  1  0.49883604  0.49642518  -0.00448615  1
  In  In75  1  0.83888431  0.49772853  0.75098581  1
  In  In76  1  0.66544548  0.00423789  0.25164456  1
  In  In77  1  0.49877775  0.50014162  0.50021530  1
  In  In78  1  0.49741767  0.50074744  0.75003822  1
  In  In79  1  0.66969566  0.33168895  0.25565431  1
  In  In80  1  0.50071072  0.83588609  0.24727096  1
  In  In81  1  0.66719256  0.00270667  0.75180501  1
  In  In82  1  0.49931484  0.82949828  0.75168108  1
  In  In83  1  0.33152269  0.66940954  0.50082953  1
  In  In84  1  0.00244348  0.66301887  0.24910110  1
  In  In85  1  0.83387911  0.83560324  0.49749271  1
  In  In86  1  0.33140570  0.67135037  0.24559298  1
  In  In87  1  0.83881279  0.49544859  0.49947382  1
  In  In88  1  0.49978837  0.16499961  0.25077582  1
  In  In89  1  0.49946118  0.16420225  -0.00037220  1
  In  In90  1  0.16931716  0.49842698  -0.00143495  1
  In  In91  1  0.66557086  0.66528054  0.24739653  1
  In  In92  1  0.33171311  0.00597049  0.24992198  1
  In  In93  1  0.50050511  0.83252318  0.00253158  1
  In  In94  1  -0.00079643  0.00312674  0.75190864  1
  In  In95  1  0.83765513  0.83457675  0.74791601  1
  In  In96  1  0.33379489  0.00611478  0.49743689  1
  In  In97  1  0.66517412  0.66158482  0.00073948  1
  In  In98  1  0.83552847  0.50375671  0.00125297  1
  In  In99  1  0.33261396  0.33544321  0.00102222  1
  In  In100  1  0.83094400  0.83459688  0.25077780  1
  In  In101  1  0.16593546  0.83438066  0.49933098  1
  In  In102  1  0.00570216  0.66372157  0.75210379  1
  In  In103  1  0.50110231  0.49915711  0.24971326  1
  In  In104  1  -0.00028429  0.33132696  0.74709265  1
  In  In105  1  -0.00302152  -0.00085035  0.49644196  1
  In  In106  1  0.00221831  0.66528172  0.49951102  1
  In  In107  1  0.83481817  0.83404927  0.00001059  1
  Ir  Ir108  1  0.15996052  0.16816708  0.25021113  1
  Ir  Ir109  1  0.16263543  0.17015569  0.49264639  1
  Ir  Ir110  1  0.66784227  0.00680750  0.50130156  1
  Ir  Ir111  1  0.16667670  0.49473476  0.25096233  1
  Ir  Ir112  1  0.33052058  0.66801866  -0.00277043  1
  Ir  Ir113  1  0.32730581  0.66721109  0.75407401  1
  Ir  Ir114  1  0.84023394  0.49466857  0.25022964  1
  Ir  Ir115  1  0.82697527  0.16885348  0.75273903  1
  Ir  Ir116  1  0.32480176  0.33214965  0.25200921  1
  Ir  Ir117  1  0.16847993  0.50125771  0.74779918  1
  Ir  Ir118  1  0.66900974  0.32925383  0.74857600  1
  Ir  Ir119  1  0.00133042  0.00289570  0.00345658  1
  Ir  Ir120  1  0.50015548  0.16778562  0.50699538  1
  Ir  Ir121  1  0.16269459  0.84167843  0.24721355  1
  Ir  Ir122  1  0.16486471  0.16443337  0.00554114  1
  Ir  Ir123  1  0.00650694  0.66862008  -0.00351780  1
  Ir  Ir124  1  0.67225489  0.32813169  0.50720467  1
  Ir  Ir125  1  0.32610533  0.32898974  0.49984072  1
  Ir  Ir126  1  0.00090578  0.32963295  0.00353714  1
  Ir  Ir127  1  0.67078730  0.66439155  0.74625470  1
  Ir  Ir128  1  0.66869636  0.66968814  0.50258059  1
  Ir  Ir129  1  0.00050583  0.32852027  0.49461759  1
  Ir  Ir130  1  0.49722201  0.16738747  0.75224182  1
  Ir  Ir131  1  0.50029546  0.83772530  0.50307670  1
  Ir  Ir132  1  0.83187196  0.16800887  0.49851188  1
  Ir  Ir133  1  0.83814450  0.16773580  0.25001599  1
  Ir  Ir134  1  0.17189746  0.83240508  0.75107662  1
  Ir  Ir135  1  0.00136078  0.00520165  0.24751621  1
  Ir  Ir136  1  0.33351920  0.00109686  0.75200287  1
  Ir  Ir137  1  0.33253350  0.33198439  0.74980920  1
  Ir  Ir138  1  0.16345072  0.49434916  0.50225333  1
  Ir  Ir139  1  0.66739768  0.00441691  -0.00195604  1
  Ir  Ir140  1  0.83410144  0.16414756  0.00286865  1
  Ir  Ir141  1  0.00059306  0.32985966  0.25106902  1
  Ir  Ir142  1  0.16431973  0.83595029  -0.00104312  1
  Ir  Ir143  1  0.32601895  0.00058306  0.00156175  1
  O  O144  1  0.30939789  0.32110226  0.13218398  1
  O  O145  1  0.30758364  0.31772213  0.62465349  1
  O  O146  1  0.30663968  0.65305683  0.11412722  1
  O  O147  1  0.30007267  0.66438209  0.63559383  1
  O  O148  1  0.29674485  0.99179459  0.12084903  1
  O  O149  1  0.31692271  0.98988133  0.62959230  1
  O  O150  1  0.65700236  0.31972076  0.12459045  1
  O  O151  1  0.64683425  0.31423812  0.62852623  1
  O  O152  1  0.62689937  0.65402800  0.12373229  1
  O  O153  1  0.64905390  0.66411881  0.62588706  1
  O  O154  1  0.64680821  0.99516945  0.11765322  1
  O  O155  1  0.64864192  1.01009969  0.62104339  1
  O  O156  1  0.96733823  0.32394682  0.12889367  1
  O  O157  1  0.97026571  0.32759746  0.61534781  1
  O  O158  1  0.97374569  0.66304836  0.11784825  1
  O  O159  1  0.98000286  0.64553102  0.62632629  1
  O  O160  1  0.97764464  1.00205856  0.12548131  1
  O  O161  1  0.97824970  0.98972339  0.62402806  1
  O  O162  1  0.19577723  0.15526304  0.12965721  1
  O  O163  1  0.19676114  0.16607880  0.61222911  1
  O  O164  1  0.19758984  0.49293549  0.12871327  1
  O  O165  1  0.18980543  0.48950233  0.62462616  1
  O  O166  1  0.19435337  0.83926951  0.12340012  1
  O  O167  1  0.20616291  0.82822775  0.63395323  1
  O  O168  1  0.53452210  0.16151321  0.12250000  1
  O  O169  1  0.52857777  0.16341989  0.63051300  1
  O  O170  1  0.51182323  0.49271317  0.12130239  1
  O  O171  1  0.51256986  0.49751810  0.62599431  1
  O  O172  1  0.54042118  0.83666865  0.12297798  1
  O  O173  1  0.51399627  0.83759630  0.62305866  1
  O  O174  1  0.86656310  0.16325282  0.12667796  1
  O  O175  1  0.85323002  0.16886253  0.62529127  1
  O  O176  1  0.86062244  0.48268814  0.13129841  1
  O  O177  1  0.87123079  0.48182137  0.62448725  1
  O  O178  1  0.85388839  0.82569729  0.12392387  1
  O  O179  1  0.87070685  0.83711582  0.62203599  1
  O  O180  1  0.12717622  0.18127163  0.37051178  1
  O  O181  1  0.15049718  0.17516862  0.88365373  1
  O  O182  1  0.13432632  0.49486942  0.37808819  1
  O  O183  1  0.13750646  0.51138412  0.86624708  1
  O  O184  1  0.13161156  0.84899336  0.36748210  1
  O  O185  1  0.13524695  0.83571121  0.87441962  1
  O  O186  1  0.48552426  0.17261563  0.38640141  1
  O  O187  1  0.47510162  0.18159446  0.87056525  1
  O  O188  1  0.48086300  0.49436431  0.37636547  1
  O  O189  1  0.46419642  0.50073402  0.87163957  1
  O  O190  1  0.48228816  0.84283479  0.38353408  1
  O  O191  1  0.48315282  0.84430940  0.87762818  1
  O  O192  1  0.81162655  0.17936525  0.37414964  1
  O  O193  1  0.79968073  0.16922799  0.87724475  1
  O  O194  1  0.81863125  0.49414018  0.36912526  1
  O  O195  1  0.80205778  0.50272678  0.87550311  1
  O  O196  1  0.79340669  0.84661566  0.37325556  1
  O  O197  1  0.81791108  0.84542917  0.87652686  1
  O  O198  1  0.03202096  0.01547794  0.36530083  1
  O  O199  1  0.02106857  0.00734300  0.88616919  1
  O  O200  1  0.03261452  0.33661856  0.37289825  1
  O  O201  1  0.03120021  0.33403316  0.88315464  1
  O  O202  1  0.02811903  0.68176366  0.37415647  1
  O  O203  1  0.03961636  0.68145805  0.87856487  1
  O  O204  1  0.37084712  0.00733485  0.37395531  1
  O  O205  1  0.36182924  0.00498181  0.87732488  1
  O  O206  1  0.34733562  0.33214932  0.37499015  1
  O  O207  1  0.36456519  0.33707766  0.86874187  1
  O  O208  1  0.34490351  0.67417829  0.37173888  1
  O  O209  1  0.35307061  0.67337143  0.87662735  1
  O  O210  1  0.69679144  0.01022909  0.38265234  1
  O  O211  1  0.70052744  0.01492383  0.88071877  1
  O  O212  1  0.70025109  0.33075280  0.38645072  1
  O  O213  1  0.68870518  0.34473644  0.86654059  1
  O  O214  1  0.68780305  0.67998631  0.38269948  1
  O  O215  1  0.68620974  0.66477400  0.86493764  1
  O  O216  1  0.07242500  0.09407996  0.03352255  1
  O  O217  1  0.07317964  0.09882496  0.50583179  1
  O  O218  1  0.07325058  0.42037695  0.01093030  1
  O  O219  1  0.06344003  0.42837204  0.51820406  1
  O  O220  1  0.07045789  0.76820426  0.01506107  1
  O  O221  1  0.07443727  0.75974664  0.53981887  1
  O  O222  1  0.39382959  0.09175688  0.02434318  1
  O  O223  1  0.40553890  0.10274717  0.52798370  1
  O  O224  1  0.38641627  0.44198525  0.01437323  1
  O  O225  1  0.40228718  0.41191144  0.51412704  1
  O  O226  1  0.39508737  0.76166466  0.02886713  1
  O  O227  1  0.40613411  0.77157269  0.52452044  1
  O  O228  1  0.73263473  0.10291843  0.02084762  1
  O  O229  1  0.73372277  0.10362246  0.52424621  1
  O  O230  1  0.74984736  0.41790964  0.01951763  1
  O  O231  1  0.75025574  0.41157492  0.52762885  1
  O  O232  1  0.73619904  0.76280689  0.02440087  1
  O  O233  1  0.73827182  0.75895959  0.51746908  1
  O  O234  1  0.08796207  0.25085530  0.02770692  1
  O  O235  1  0.09251735  0.26121436  0.51439235  1
  O  O236  1  0.09733107  0.59876866  0.00922857  1
  O  O237  1  0.10029593  0.58660804  0.52975978  1
  O  O238  1  0.09912795  0.93616886  0.02381961  1
  O  O239  1  0.08412126  0.91941529  0.52059687  1
  O  O240  1  0.41726988  0.25237312  0.02274612  1
  O  O241  1  0.41932877  0.25326276  0.52759372  1
  O  O242  1  0.42570645  0.60525809  0.02021262  1
  O  O243  1  0.41973017  0.59197172  0.51422822  1
  O  O244  1  0.41320129  0.92699994  0.01853854  1
  O  O245  1  0.42708799  0.92487936  0.51857462  1
  O  O246  1  0.76828787  0.25446563  0.02742615  1
  O  O247  1  0.76667980  0.26014178  0.52739126  1
  O  O248  1  0.77377530  0.60423659  0.02833011  1
  O  O249  1  0.75519430  0.59206935  0.51235034  1
  O  O250  1  0.75465780  0.93175820  0.01614435  1
  O  O251  1  0.75785199  0.93777051  0.51472350  1
  O  O252  1  0.22512345  0.07519066  0.27409111  1
  O  O253  1  0.24704382  0.07362147  0.76180125  1
  O  O254  1  0.22910440  0.39872222  0.27352993  1
  O  O255  1  0.23838307  0.40320752  0.77846772  1
  O  O256  1  0.23596865  0.75436377  0.26027744  1
  O  O257  1  0.23266488  0.73417413  0.77530501  1
  O  O258  1  0.56217905  0.06358056  0.27679100  1
  O  O259  1  0.56586167  0.07790309  0.78250717  1
  O  O260  1  0.57649725  0.40395077  0.26592480  1
  O  O261  1  0.57728235  0.40047006  0.77118526  1
  O  O262  1  0.57832878  0.74767195  0.27478023  1
  O  O263  1  0.58024619  0.73701033  0.75922102  1
  O  O264  1  0.90457683  0.07049459  0.27706621  1
  O  O265  1  0.89211342  0.07379921  0.77584125  1
  O  O266  1  0.90654222  0.39600630  0.27795767  1
  O  O267  1  0.91482649  0.40614948  0.78030602  1
  O  O268  1  0.91210529  0.74459534  0.26939733  1
  O  O269  1  0.92260875  0.74836152  0.77276902  1
  O  O270  1  0.25023092  0.23974629  0.27297347  1
  O  O271  1  0.25939864  0.24584252  0.76879451  1
  O  O272  1  0.25728168  0.56403116  0.25986225  1
  O  O273  1  0.26222274  0.56994623  0.77942048  1
  O  O274  1  0.24683470  0.91556090  0.27089108  1
  O  O275  1  0.26451411  0.90615913  0.76974702  1
  O  O276  1  0.59950961  0.23348028  0.25692131  1
  O  O277  1  0.59485829  0.23645157  0.77674825  1
  O  O278  1  0.59607181  0.57245473  0.27141309  1
  O  O279  1  0.60127492  0.57018071  0.76596169  1
  O  O280  1  0.59317489  0.90986812  0.28433748  1
  O  O281  1  0.58426851  0.91727357  0.77024414  1
  O  O282  1  0.93587274  0.23281177  0.27267369  1
  O  O283  1  0.91891927  0.23592909  0.76347813  1
  O  O284  1  0.93441796  0.55975455  0.27262958  1
  O  O285  1  0.94050159  0.56440841  0.77798741  1
  O  O286  1  0.93362278  0.91382537  0.27456049  1
  O  O287  1  0.93534490  0.90739477  0.78100325  1
  O  O288  1  0.24978435  0.24368469  0.47252493  1
  O  O289  1  0.24858572  0.24248940  0.98730188  1
  O  O290  1  0.25121888  0.56373168  0.48847779  1
  O  O291  1  0.26573684  0.57349463  0.96853645  1
  O  O292  1  0.25053522  0.91951464  0.47648001  1
  O  O293  1  0.25782433  0.90403876  0.98525463  1
  O  O294  1  0.59735948  0.23620466  0.49453534  1
  O  O295  1  0.60013383  0.23245759  0.97234366  1
  O  O296  1  0.59416443  0.58496738  0.48842216  1
  O  O297  1  0.60594585  0.55532295  0.96853283  1
  O  O298  1  0.59686854  0.91137306  0.47656605  1
  O  O299  1  0.59540343  0.91752959  0.97627723  1
  O  O300  1  0.93001518  0.23456560  0.46882251  1
  O  O301  1  0.93081851  0.23208814  0.99167582  1
  O  O302  1  0.93898875  0.56042224  0.47603862  1
  O  O303  1  0.94274702  0.57377562  0.97196438  1
  O  O304  1  0.92193843  0.91312233  0.45333737  1
  O  O305  1  0.93405516  0.91178490  0.97670929  1
  O  O306  1  0.23026385  0.07915232  0.46867175  1
  O  O307  1  0.23309338  0.07163255  0.98673637  1
  O  O308  1  0.23058221  0.39785254  0.47645751  1
  O  O309  1  0.23618716  0.40344773  0.96189147  1
  O  O310  1  0.23268793  0.73622071  0.49275021  1
  O  O311  1  0.23030289  0.73553814  0.97693997  1
  O  O312  1  0.56816292  0.07166514  0.48275028  1
  O  O313  1  0.57312451  0.06843177  0.96739541  1
  O  O314  1  0.58746204  0.40408838  0.49292460  1
  O  O315  1  0.55994493  0.39064846  0.97218090  1
  O  O316  1  0.57785350  0.74933826  0.48157588  1
  O  O317  1  0.56587048  0.73263163  0.98879657  1
  O  O318  1  0.89889062  0.07604129  0.46935189  1
  O  O319  1  0.90248780  0.06740935  0.97870960  1
  O  O320  1  0.90955081  0.39334696  0.46827046  1
  O  O321  1  0.91920487  0.40844346  0.98230709  1
  O  O322  1  0.91400891  0.74719507  0.47279884  1
  O  O323  1  0.91790624  0.73903732  0.97954741  1
  O  O324  1  0.08821250  0.25718270  0.22380137  1
  O  O325  1  0.09560717  0.26241051  0.74429642  1
  O  O326  1  0.09849063  0.58490902  0.23268474  1
  O  O327  1  0.10964851  0.59660730  0.72460002  1
  O  O328  1  0.09802224  0.94131172  0.22670281  1
  O  O329  1  0.09794895  0.91690722  0.72889915  1
  O  O330  1  0.41397513  0.25997862  0.23642512  1
  O  O331  1  0.42201239  0.25698327  0.72500133  1
  O  O332  1  0.42403671  0.59385190  0.21884222  1
  O  O333  1  0.41666014  0.59949276  0.73591189  1
  O  O334  1  0.41280186  0.91914965  0.22382558  1
  O  O335  1  0.41943450  0.92710885  0.74014117  1
  O  O336  1  0.77775061  0.26410691  0.23123400  1
  O  O337  1  0.76138292  0.26139971  0.72215520  1
  O  O338  1  0.77847794  0.59060625  0.22618820  1
  O  O339  1  0.75899861  0.59105494  0.72976464  1
  O  O340  1  0.75519803  0.92776003  0.22869695  1
  O  O341  1  0.76330046  0.93173055  0.74249076  1
  O  O342  1  0.06663858  0.10112084  0.22258261  1
  O  O343  1  0.07642120  0.09106156  0.73481867  1
  O  O344  1  0.06666744  0.42564338  0.23773391  1
  O  O345  1  0.07221745  0.43769502  0.72946170  1
  O  O346  1  0.07668199  0.76874076  0.23415938  1
  O  O347  1  0.08423941  0.76290845  0.72215233  1
  O  O348  1  0.39703975  0.10328674  0.21971736  1
  O  O349  1  0.40101332  0.09890694  0.72836029  1
  O  O350  1  0.38939307  0.42417028  0.22926811  1
  O  O351  1  0.40156029  0.41991182  0.73587577  1
  O  O352  1  0.40842990  0.75995465  0.21025558  1
  O  O353  1  0.39405948  0.76106705  0.72961966  1
  O  O354  1  0.73958034  0.10732701  0.22825594  1
  O  O355  1  0.72883660  0.10991003  0.73759272  1
  O  O356  1  0.75263253  0.42256818  0.23160947  1
  O  O357  1  0.74294321  0.41554490  0.72485150  1
  O  O358  1  0.74083307  0.75552877  0.21394063  1
  O  O359  1  0.74236252  0.75429896  0.73209203  1
