# generated using pymatgen
data_BaLaInIrO6
_symmetry_space_group_name_H-M   'P 1'
_cell_length_a   17.52385199
_cell_length_b   17.54621945
_cell_length_c   16.49811298
_cell_angle_alpha   90.03759290
_cell_angle_beta   90.00791891
_cell_angle_gamma   90.06188361
_symmetry_Int_Tables_number   1
_chemical_formula_structural   BaLaInIrO6
_chemical_formula_sum   'Ba36 La36 In36 Ir36 O216'
_cell_volume   5072.79200325
_cell_formula_units_Z   36
loop_
 _symmetry_equiv_pos_site_id
 _symmetry_equiv_pos_as_xyz
  1  'x, y, z'
loop_
 _atom_site_type_symbol
 _atom_site_label
 _atom_site_symmetry_multiplicity
 _atom_site_fract_x
 _atom_site_fract_y
 _atom_site_fract_z
 _atom_site_occupancy
  Ba  Ba0  1  1.00252387  0.83793541  0.62393034  1
  Ba  Ba1  1  0.66712386  0.50996036  0.12554675  1
  Ba  Ba2  1  0.83773750  0.98578586  0.37873308  1
  Ba  Ba3  1  0.33479956  0.84479934  0.13004239  1
  Ba  Ba4  1  1.00471542  0.50405115  0.62240493  1
  Ba  Ba5  1  0.50195945  0.67527984  0.13011901  1
  Ba  Ba6  1  0.49967852  0.00900185  0.12675153  1
  Ba  Ba7  1  0.49826031  0.33708058  0.12139279  1
  Ba  Ba8  1  0.83565548  0.65310230  0.37410358  1
  Ba  Ba9  1  0.49673590  0.66103453  0.87710561  1
  Ba  Ba10  1  0.16669474  0.33855627  0.12830526  1
  Ba  Ba11  1  1.00014509  0.17161617  0.62577465  1
  Ba  Ba12  1  0.33682184  0.49287232  0.37237324  1
  Ba  Ba13  1  0.33564712  0.83006122  0.37663007  1
  Ba  Ba14  1  0.66509519  0.15823281  0.87495098  1
  Ba  Ba15  1  0.33024002  0.82785642  0.87794090  1
  Ba  Ba16  1  0.33366969  0.50952989  0.62053761  1
  Ba  Ba17  1  0.00443992  0.49240229  0.87246504  1
  Ba  Ba18  1  0.16480121  0.67299016  0.62687365  1
  Ba  Ba19  1  0.83444122  0.00736127  0.62675955  1
  Ba  Ba20  1  -0.00341395  0.82569992  0.87335880  1
  Ba  Ba21  1  0.16874934  0.99300272  0.37811474  1
  Ba  Ba22  1  0.50090062  0.99066122  0.87656776  1
  Ba  Ba23  1  0.66542627  0.48704115  0.36930948  1
  Ba  Ba24  1  0.83443312  0.33835164  0.62497424  1
  Ba  Ba25  1  0.67098621  0.17635722  0.62703566  1
  Ba  Ba26  1  -0.00101584  0.15825567  0.87674574  1
  Ba  Ba27  1  0.33206708  0.16041884  0.37505535  1
  Ba  Ba28  1  0.82659717  0.67847947  0.12761721  1
  Ba  Ba29  1  0.50498840  0.31985514  0.36951752  1
  Ba  Ba30  1  0.83602960  0.99180622  0.87012092  1
  Ba  Ba31  1  0.00107180  0.15181977  0.37389784  1
  Ba  Ba32  1  0.16363938  0.34033938  0.61860724  1
  Ba  Ba33  1  0.16917107  0.99011870  0.87492895  1
  Ba  Ba34  1  0.49626146  0.01407799  0.62918148  1
  Ba  Ba35  1  0.16325921  0.00386813  0.62506169  1
  La  La36  1  0.49692160  0.99664532  0.36966347  1
  La  La37  1  0.84107894  0.32069243  0.87348345  1
  La  La38  1  0.16399873  0.01499402  0.12716534  1
  La  La39  1  0.83297939  0.67793803  0.62660402  1
  La  La40  1  1.00004019  0.51873591  0.12313525  1
  La  La41  1  0.17379879  0.31798873  0.86491741  1
  La  La42  1  0.32390034  0.48778276  0.87533123  1
  La  La43  1  0.82794894  0.34985420  0.12123546  1
  La  La44  1  0.49995329  0.32153757  0.87233310  1
  La  La45  1  0.17214572  0.31815157  0.37847848  1
  La  La46  1  0.50845681  0.64670548  0.37917720  1
  La  La47  1  0.34500120  0.51697648  0.12249368  1
  La  La48  1  0.83392657  0.32008404  0.37422503  1
  La  La49  1  0.33806743  0.18389716  0.62294702  1
  La  La50  1  0.66668086  0.15333003  0.37575656  1
  La  La51  1  0.66099587  0.82851910  0.87764496  1
  La  La52  1  0.16175658  0.68498829  0.12515863  1
  La  La53  1  1.00410017  0.17993805  0.12756365  1
  La  La54  1  0.49384345  0.68217185  0.62200799  1
  La  La55  1  0.99957114  0.85156220  0.12905394  1
  La  La56  1  0.82881118  0.01529746  0.12791044  1
  La  La57  1  0.66898738  0.84841628  0.62418076  1
  La  La58  1  0.16711755  0.65624989  0.38059740  1
  La  La59  1  0.66300212  0.81667580  0.37935515  1
  La  La60  1  0.83639176  0.65265388  0.87773645  1
  La  La61  1  0.49684840  0.34695374  0.61829313  1
  La  La62  1  0.67277914  0.84540730  0.12518449  1
  La  La63  1  0.33341336  0.85233426  0.63016364  1
  La  La64  1  -0.00572065  0.47939086  0.37124673  1
  La  La65  1  0.33165608  0.15471692  0.87199003  1
  La  La66  1  0.67054312  0.18495022  0.12771076  1
  La  La67  1  0.67164880  0.51425686  0.62231189  1
  La  La68  1  0.32952653  0.16656910  0.13515401  1
  La  La69  1  0.17293039  0.65295952  0.87371218  1
  La  La70  1  0.66308629  0.48754078  0.87413661  1
  La  La71  1  0.00176094  0.82442670  0.37976782  1
  In  In72  1  0.33100355  0.66935033  0.00048452  1
  In  In73  1  0.32997370  0.66950926  0.25404715  1
  In  In74  1  0.83533761  0.16864338  0.00360291  1
  In  In75  1  0.83436748  0.83472708  0.00056140  1
  In  In76  1  0.33383101  0.66823417  0.74666936  1
  In  In77  1  0.50034462  0.49564600  0.24620123  1
  In  In78  1  0.83430411  0.16759394  0.74950719  1
  In  In79  1  0.83341204  0.49764944  0.75059189  1
  In  In80  1  0.49851209  0.16818218  0.00033317  1
  In  In81  1  0.16728301  0.49939264  0.49550109  1
  In  In82  1  0.49988287  0.83304438  0.75071577  1
  In  In83  1  0.66849066  0.66706757  0.25314972  1
  In  In84  1  0.83397335  0.49759348  0.49877555  1
  In  In85  1  0.33026321  0.33226993  0.24869401  1
  In  In86  1  -0.00052397  0.66974241  0.24745173  1
  In  In87  1  0.66617516  -0.00205283  0.49778075  1
  In  In88  1  0.16533783  0.50073660  0.24847457  1
  In  In89  1  0.33093987  -0.00042564  0.00292949  1
  In  In90  1  0.00062400  0.33751100  0.00187547  1
  In  In91  1  0.50149164  0.50359572  0.74952744  1
  In  In92  1  0.16901066  0.49720506  0.00501827  1
  In  In93  1  0.66760296  0.33668404  -0.00379385  1
  In  In94  1  0.83324929  0.16664967  0.49733361  1
  In  In95  1  0.50152651  0.83437957  0.25224476  1
  In  In96  1  -0.00013752  0.66360423  0.49864441  1
  In  In97  1  0.66765140  0.00286576  0.00362229  1
  In  In98  1  0.16991003  0.83159740  0.50030857  1
  In  In99  1  0.16536275  0.16615339  -0.00134651  1
  In  In100  1  0.33253029  0.33075943  -0.00285356  1
  In  In101  1  -0.00010628  0.66554154  0.75412715  1
  In  In102  1  0.50075293  0.83474707  0.50040862  1
  In  In103  1  0.66457307  0.00036131  0.75163737  1
  In  In104  1  0.66684657  0.66772165  -0.00268896  1
  In  In105  1  0.50164686  0.16634796  0.49871999  1
  In  In106  1  0.00241703  -0.00300164  0.75200630  1
  In  In107  1  0.16717606  0.16360449  0.50279004  1
  Ir  Ir108  1  0.66518287  0.33481017  0.49944014  1
  Ir  Ir109  1  0.66423867  0.66528686  0.50625071  1
  Ir  Ir110  1  0.83446021  0.83692448  0.25502301  1
  Ir  Ir111  1  0.67218641  0.32845901  0.25020761  1
  Ir  Ir112  1  0.83512904  0.16643272  0.24832034  1
  Ir  Ir113  1  0.50631782  0.49823417  0.50264264  1
  Ir  Ir114  1  0.33453959  0.00229758  0.50442739  1
  Ir  Ir115  1  0.67163600  0.00005500  0.25035245  1
  Ir  Ir116  1  0.16853259  0.49588833  0.75076788  1
  Ir  Ir117  1  0.49650652  0.17376515  0.74721433  1
  Ir  Ir118  1  0.82986571  0.82848035  0.50099499  1
  Ir  Ir119  1  0.00085045  0.33086099  0.49385986  1
  Ir  Ir120  1  0.16223474  0.83909220  0.24642705  1
  Ir  Ir121  1  0.16232079  0.16485458  0.25024852  1
  Ir  Ir122  1  0.82659042  0.82797526  0.74685453  1
  Ir  Ir123  1  0.16812208  0.83224611  0.75502005  1
  Ir  Ir124  1  0.50454954  0.16258551  0.24928774  1
  Ir  Ir125  1  0.33672032  0.33589273  0.74430046  1
  Ir  Ir126  1  0.83598224  0.49256015  0.24848196  1
  Ir  Ir127  1  -0.00322279  -0.00120665  0.24989427  1
  Ir  Ir128  1  0.83361611  0.50266660  -0.00185700  1
  Ir  Ir129  1  0.50214945  0.83283136  0.00243759  1
  Ir  Ir130  1  0.00018508  0.66807737  0.00120419  1
  Ir  Ir131  1  0.66294739  0.33771314  0.74846138  1
  Ir  Ir132  1  0.49534808  0.50063588  -0.00556251  1
  Ir  Ir133  1  0.33205373  0.00654477  0.74786802  1
  Ir  Ir134  1  0.32997188  0.00303838  0.25388687  1
  Ir  Ir135  1  0.17204990  0.16922264  0.74914376  1
  Ir  Ir136  1  -0.00178319  -0.00242831  0.00809578  1
  Ir  Ir137  1  -0.00093034  -0.00516888  0.49720859  1
  Ir  Ir138  1  0.33828273  0.66770733  0.49890620  1
  Ir  Ir139  1  0.66848857  0.66713139  0.74757601  1
  Ir  Ir140  1  0.33572589  0.33523385  0.49933967  1
  Ir  Ir141  1  0.00681559  0.33278345  0.75064313  1
  Ir  Ir142  1  -0.00508827  0.33008684  0.24971464  1
  Ir  Ir143  1  0.15957065  0.83285918  0.00304897  1
  O  O144  1  0.31551825  0.30469380  0.12277098  1
  O  O145  1  0.31259432  0.32464658  0.62214110  1
  O  O146  1  0.29774617  0.65671010  0.12498741  1
  O  O147  1  0.31342725  0.66425503  0.61665423  1
  O  O148  1  0.30339269  1.00507681  0.13399396  1
  O  O149  1  0.31154291  0.99153528  0.62580755  1
  O  O150  1  0.65040020  0.32492030  0.12987783  1
  O  O151  1  0.63276351  0.33129527  0.62405792  1
  O  O152  1  0.65511222  0.67046259  0.12579712  1
  O  O153  1  0.63133588  0.65234080  0.62775407  1
  O  O154  1  0.64794803  0.98454846  0.13389620  1
  O  O155  1  0.64587142  0.98800279  0.62476241  1
  O  O156  1  0.96226999  0.32003245  0.13183218  1
  O  O157  1  0.98182360  0.33017731  0.61845797  1
  O  O158  1  0.97242927  0.66141835  0.11932975  1
  O  O159  1  0.97054243  0.66165496  0.62745426  1
  O  O160  1  0.96613370  0.99206379  0.13015344  1
  O  O161  1  0.98610185  0.99590138  0.61824339  1
  O  O162  1  0.19043809  0.15812536  0.13044490  1
  O  O163  1  0.20060233  0.16722010  0.62956935  1
  O  O164  1  0.21034972  0.49105529  0.12746478  1
  O  O165  1  0.18248043  0.49525213  0.62940624  1
  O  O166  1  0.18581796  0.82481820  0.12396345  1
  O  O167  1  0.19619744  0.82995544  0.63360111  1
  O  O168  1  0.53279482  0.16779858  0.13060486  1
  O  O169  1  0.51957894  0.17360918  0.62824327  1
  O  O170  1  0.51790698  0.49582053  0.11273793  1
  O  O171  1  0.53501380  0.48764858  0.62269339  1
  O  O172  1  0.53318885  0.83430887  0.12443853  1
  O  O173  1  0.53249215  0.82115062  0.62427761  1
  O  O174  1  0.86918881  0.15651764  0.13160227  1
  O  O175  1  0.84846880  0.17522014  0.62250550  1
  O  O176  1  0.86508470  0.48955718  0.12278442  1
  O  O177  1  0.85308901  0.49804634  0.62507465  1
  O  O178  1  0.86309096  0.83228584  0.13554615  1
  O  O179  1  0.85435817  0.81501716  0.62423895  1
  O  O180  1  0.14990693  0.17506123  0.37221636  1
  O  O181  1  0.14782070  0.17603777  0.86800240  1
  O  O182  1  0.12627697  0.51474457  0.37067254  1
  O  O183  1  0.15424780  0.50631286  0.87066539  1
  O  O184  1  0.13680900  0.84072813  0.36571330  1
  O  O185  1  0.14232368  0.83691196  0.88033767  1
  O  O186  1  0.48354477  0.15868349  0.36875006  1
  O  O187  1  0.46717367  0.17762993  0.86514551  1
  O  O188  1  0.48747943  0.50593098  0.38122297  1
  O  O189  1  0.46305929  0.50438133  0.87621097  1
  O  O190  1  0.48490558  0.85907665  0.37729260  1
  O  O191  1  0.48201324  0.83200672  0.88173005  1
  O  O192  1  0.80190085  0.17865523  0.36636313  1
  O  O193  1  0.81575636  0.18319934  0.87651516  1
  O  O194  1  0.81443699  0.48844992  0.36827723  1
  O  O195  1  0.79991338  0.50999194  0.87786945  1
  O  O196  1  0.79978101  0.83447817  0.37803518  1
  O  O197  1  0.79948031  0.83551958  0.86773908  1
  O  O198  1  0.01921144  -0.00928190  0.37193793  1
  O  O199  1  0.01812699  -0.00213224  0.88775609  1
  O  O200  1  0.03188426  0.33943297  0.37110040  1
  O  O201  1  0.03591978  0.33523660  0.87042731  1
  O  O202  1  0.02958843  0.68369155  0.36935658  1
  O  O203  1  0.03454579  0.66959574  0.88354687  1
  O  O204  1  0.36178095  0.00507733  0.38057648  1
  O  O205  1  0.34954449  0.01536547  0.87110196  1
  O  O206  1  0.35525521  0.33181242  0.37988062  1
  O  O207  1  0.36392821  0.34775457  0.86254832  1
  O  O208  1  0.37264803  0.67128890  0.38337209  1
  O  O209  1  0.34526478  0.67051734  0.87369971  1
  O  O210  1  0.69048699  0.01525943  0.36755536  1
  O  O211  1  0.68555882  -0.00997076  0.87816310  1
  O  O212  1  0.69735542  0.33385442  0.37519143  1
  O  O213  1  0.69970016  0.34857674  0.86767766  1
  O  O214  1  0.68830553  0.67432153  0.38587653  1
  O  O215  1  0.70041554  0.68248905  0.86614997  1
  O  O216  1  0.06499358  0.08998118  0.03174999  1
  O  O217  1  0.07212534  0.08486761  0.51053090  1
  O  O218  1  0.06521904  0.43621997  0.02920503  1
  O  O219  1  0.06944569  0.42127721  0.50442877  1
  O  O220  1  0.06295041  0.76494882  0.03017148  1
  O  O221  1  0.07375664  0.76145386  0.50797166  1
  O  O222  1  0.39294474  0.10651153  0.02111908  1
  O  O223  1  0.39876538  0.09885263  0.52484752  1
  O  O224  1  0.39679233  0.43887179  0.01447526  1
  O  O225  1  0.41364597  0.42407679  0.52323161  1
  O  O226  1  0.41167466  0.76301207  0.02034472  1
  O  O227  1  0.40336323  0.76127970  0.52786288  1
  O  O228  1  0.73842573  0.10031237  0.03515448  1
  O  O229  1  0.73435192  0.09797425  0.50307000  1
  O  O230  1  0.74119074  0.43460049  0.01568194  1
  O  O231  1  0.72781378  0.43175376  0.52120396  1
  O  O232  1  0.73238790  0.77214866  0.01727339  1
  O  O233  1  0.73013739  0.76362709  0.52572981  1
  O  O234  1  0.08711073  0.25370276  0.02533822  1
  O  O235  1  0.09064194  0.25954379  0.50689008  1
  O  O236  1  0.09552377  0.60263040  0.02536001  1
  O  O237  1  0.10032634  0.59708273  0.51124940  1
  O  O238  1  0.09367625  0.92986443  0.03445782  1
  O  O239  1  0.08718632  0.92421882  0.50986492  1
  O  O240  1  0.43637978  0.27189154  -0.00477190  1
  O  O241  1  0.42645344  0.26344549  0.52197507  1
  O  O242  1  0.42712735  0.59019320  0.02164007  1
  O  O243  1  0.44037299  0.60075682  0.51995537  1
  O  O244  1  0.42896531  0.92405118  0.01693472  1
  O  O245  1  0.42138784  0.92977737  0.52295063  1
  O  O246  1  0.76362233  0.26714945  0.02791231  1
  O  O247  1  0.75879139  0.27189752  0.50625133  1
  O  O248  1  0.76944740  0.59741982  0.00769604  1
  O  O249  1  0.75974339  0.60043940  0.52818435  1
  O  O250  1  0.76549417  0.93116694  0.03342048  1
  O  O251  1  0.76363216  0.91876898  0.52046572  1
  O  O252  1  0.23456227  0.07321226  0.26561288  1
  O  O253  1  0.24612620  0.08422383  0.77567375  1
  O  O254  1  0.22965741  0.39890021  0.27911450  1
  O  O255  1  0.24265060  0.40397944  0.77487149  1
  O  O256  1  0.22416673  0.74425571  0.26859020  1
  O  O257  1  0.23215355  0.73801678  0.77509321  1
  O  O258  1  0.57593940  0.06752881  0.27419508  1
  O  O259  1  0.56536655  0.08343382  0.76646021  1
  O  O260  1  0.58100665  0.40033704  0.26211138  1
  O  O261  1  0.57337795  0.40571089  0.77650473  1
  O  O262  1  0.57423493  0.74112709  0.28855204  1
  O  O263  1  0.57991775  0.73437832  0.76781209  1
  O  O264  1  0.90127606  0.06861559  0.26831696  1
  O  O265  1  0.91649433  0.07754910  0.76310796  1
  O  O266  1  0.90232430  0.39688822  0.27431697  1
  O  O267  1  0.91022187  0.40029112  0.77486952  1
  O  O268  1  0.90567900  0.74864543  0.27612449  1
  O  O269  1  0.89283857  0.73622174  0.77072444  1
  O  O270  1  0.24980843  0.23833023  0.26828625  1
  O  O271  1  0.26695003  0.24241554  0.77325268  1
  O  O272  1  0.24736963  0.58644325  0.28647162  1
  O  O273  1  0.26008071  0.56658069  0.76943798  1
  O  O274  1  0.25597055  0.90902501  0.27002713  1
  O  O275  1  0.26531573  0.90597856  0.76285574  1
  O  O276  1  0.60638038  0.22765748  0.26887682  1
  O  O277  1  0.58660163  0.24726299  0.77615384  1
  O  O278  1  0.58568969  0.57923534  0.26718621  1
  O  O279  1  0.60699537  0.57055364  0.77440148  1
  O  O280  1  0.60842375  0.90678505  0.27592261  1
  O  O281  1  0.59644947  0.89978758  0.77117154  1
  O  O282  1  0.92401587  0.23841235  0.27627429  1
  O  O283  1  0.92955704  0.25098206  0.77008887  1
  O  O284  1  0.93060224  0.56045113  0.26582156  1
  O  O285  1  0.91742353  0.58041410  0.78225436  1
  O  O286  1  0.93483104  0.89930781  0.27295671  1
  O  O287  1  0.91540451  0.90100068  0.76080472  1
  O  O288  1  0.25959083  0.24855526  0.48420823  1
  O  O289  1  0.26152260  0.23537378  0.96430699  1
  O  O290  1  0.26610420  0.57883786  0.47731530  1
  O  O291  1  0.26256815  0.56884906  0.97334275  1
  O  O292  1  0.26536174  0.90831438  0.49265289  1
  O  O293  1  0.25199330  0.90133748  0.98961181  1
  O  O294  1  0.60288590  0.23684167  0.47540730  1
  O  O295  1  0.59359541  0.24485684  0.98079038  1
  O  O296  1  0.60021286  0.56841327  0.48388061  1
  O  O297  1  0.59386272  0.56619248  0.97269665  1
  O  O298  1  0.60840922  0.89174050  0.48376654  1
  O  O299  1  0.59720750  0.89728448  0.98657566  1
  O  O300  1  0.92576945  0.24589886  0.47170248  1
  O  O301  1  0.92433441  0.24765153  0.98086586  1
  O  O302  1  0.93264640  0.56430544  0.46869955  1
  O  O303  1  0.93246460  0.57152980  0.98152452  1
  O  O304  1  0.92925701  0.89502641  0.47825598  1
  O  O305  1  0.93524119  0.90279474  0.99425074  1
  O  O306  1  0.24714836  0.07282910  0.48793824  1
  O  O307  1  0.23040727  0.06648705  0.99540278  1
  O  O308  1  0.24148624  0.40329419  0.47490572  1
  O  O309  1  0.23439561  0.39783593  0.96757512  1
  O  O310  1  0.24421391  0.73300204  0.47320149  1
  O  O311  1  0.22000897  0.73488593  0.98454963  1
  O  O312  1  0.56467102  0.06447448  0.47598345  1
  O  O313  1  0.57027802  0.07349374  0.98675468  1
  O  O314  1  0.56740882  0.39825505  0.48640000  1
  O  O315  1  0.56690496  0.41055018  0.96596443  1
  O  O316  1  0.56730504  0.72628929  0.48141363  1
  O  O317  1  0.57283647  0.74509077  0.98063931  1
  O  O318  1  0.91215043  0.06900608  0.48616234  1
  O  O319  1  0.90547002  0.06389580  0.99268276  1
  O  O320  1  0.90805727  0.39889793  0.47129458  1
  O  O321  1  0.89504666  0.40565533  0.97869426  1
  O  O322  1  0.89902963  0.73868285  0.48587169  1
  O  O323  1  0.90356434  0.73121598  0.97561168  1
  O  O324  1  0.08472342  0.25356003  0.22563680  1
  O  O325  1  0.10153844  0.26161714  0.73168317  1
  O  O326  1  0.09122927  0.59606738  0.21079076  1
  O  O327  1  0.09637960  0.58604975  0.74078268  1
  O  O328  1  0.09264006  0.93299301  0.22005419  1
  O  O329  1  0.09586576  0.92016096  0.73808510  1
  O  O330  1  0.42699132  0.24603183  0.23177753  1
  O  O331  1  0.42863231  0.26707614  0.71889278  1
  O  O332  1  0.41670902  0.58464678  0.23129964  1
  O  O333  1  0.43555100  0.60065742  0.72201759  1
  O  O334  1  0.42315913  0.93591340  0.24146355  1
  O  O335  1  0.41832435  0.92932826  0.73196693  1
  O  O336  1  0.76854612  0.26038766  0.22131282  1
  O  O337  1  0.75235068  0.26906525  0.73773400  1
  O  O338  1  0.76443691  0.58347311  0.23668246  1
  O  O339  1  0.75831436  0.59991581  0.72307461  1
  O  O340  1  0.76709665  0.93231475  0.22610745  1
  O  O341  1  0.75666409  0.91303779  0.72366025  1
  O  O342  1  0.06780607  0.09211106  0.22102535  1
  O  O343  1  0.08619045  0.09442779  0.73503113  1
  O  O344  1  0.05578354  0.42741433  0.22564591  1
  O  O345  1  0.07845417  0.42229296  0.73217986  1
  O  O346  1  0.07061744  0.77191634  0.22203060  1
  O  O347  1  0.07818561  0.76092331  0.73901096  1
  O  O348  1  0.40317642  0.09588854  0.22964996  1
  O  O349  1  0.39747766  0.10775328  0.72699555  1
  O  O350  1  0.40205840  0.42597197  0.22308120  1
  O  O351  1  0.41075518  0.42126783  0.72059501  1
  O  O352  1  0.40710740  0.76064428  0.23601566  1
  O  O353  1  0.40406999  0.76527279  0.72021728  1
  O  O354  1  0.73803862  0.09874412  0.22152777  1
  O  O355  1  0.74290649  0.08961677  0.73814775  1
  O  O356  1  0.74561658  0.41871457  0.22248034  1
  O  O357  1  0.72613627  0.43303595  0.72769859  1
  O  O358  1  0.73723091  0.77450233  0.23642342  1
  O  O359  1  0.73518037  0.75740050  0.71450432  1
