# generated using pymatgen
data_BaLaInIrO6
_symmetry_space_group_name_H-M   'P 1'
_cell_length_a   17.53532583
_cell_length_b   17.56902946
_cell_length_c   16.50229435
_cell_angle_alpha   90.07575291
_cell_angle_beta   89.98604439
_cell_angle_gamma   90.02270616
_symmetry_Int_Tables_number   1
_chemical_formula_structural   BaLaInIrO6
_chemical_formula_sum   'Ba36 La36 In36 Ir36 O216'
_cell_volume   5083.99967341
_cell_formula_units_Z   36
loop_
 _symmetry_equiv_pos_site_id
 _symmetry_equiv_pos_as_xyz
  1  'x, y, z'
loop_
 _atom_site_type_symbol
 _atom_site_label
 _atom_site_symmetry_multiplicity
 _atom_site_fract_x
 _atom_site_fract_y
 _atom_site_fract_z
 _atom_site_occupancy
  Ba  Ba0  1  0.83539325  0.99430895  0.87468730  1
  Ba  Ba1  1  0.83214057  0.67312467  0.62526345  1
  Ba  Ba2  1  0.83449988  0.66005467  0.87341411  1
  Ba  Ba3  1  0.16884650  0.01326233  0.62299506  1
  Ba  Ba4  1  0.66717240  0.17865140  0.12335134  1
  Ba  Ba5  1  0.17093379  0.98759375  0.86815755  1
  Ba  Ba6  1  -0.00569256  0.82470173  0.37594466  1
  Ba  Ba7  1  0.16692430  0.65451979  0.87572546  1
  Ba  Ba8  1  -0.00055938  0.15981014  0.87374847  1
  Ba  Ba9  1  0.16710708  0.99112948  0.37820239  1
  Ba  Ba10  1  0.16722937  0.67564715  0.62272461  1
  Ba  Ba11  1  0.82989709  0.32765319  0.37635856  1
  Ba  Ba12  1  0.66521333  0.49337053  0.37708671  1
  Ba  Ba13  1  0.49768354  0.34750367  0.62929492  1
  Ba  Ba14  1  0.66634467  0.15988925  0.87504322  1
  Ba  Ba15  1  0.83318534  0.99235410  0.37748848  1
  Ba  Ba16  1  0.33517394  0.48868259  0.37680633  1
  Ba  Ba17  1  -0.00501864  0.49062291  0.86979608  1
  Ba  Ba18  1  0.33641072  0.50704707  0.12551877  1
  Ba  Ba19  1  0.66710077  0.50612418  0.62188249  1
  Ba  Ba20  1  -0.00306112  0.82630298  0.87245219  1
  Ba  Ba21  1  0.83475850  0.34027192  0.62569373  1
  Ba  Ba22  1  0.50277058  0.32818619  0.38041156  1
  Ba  Ba23  1  0.33275733  0.84243795  0.12289783  1
  Ba  Ba24  1  -0.00337036  0.15447117  0.37476362  1
  Ba  Ba25  1  0.66831916  0.82017883  0.87343036  1
  Ba  Ba26  1  0.66774938  0.84398514  0.12487739  1
  Ba  Ba27  1  0.50292050  0.33939271  0.12622950  1
  Ba  Ba28  1  0.83023814  0.66183189  0.37522735  1
  Ba  Ba29  1  0.49687648  0.66821803  0.61997177  1
  Ba  Ba30  1  0.83310427  0.33897547  0.12518729  1
  Ba  Ba31  1  0.66572183  0.83823376  0.62622937  1
  Ba  Ba32  1  0.67150475  0.50455462  0.12743126  1
  Ba  Ba33  1  1.00271780  0.50939387  0.12481942  1
  Ba  Ba34  1  0.33622927  0.50777782  0.62330828  1
  Ba  Ba35  1  0.66480031  0.81986397  0.37372036  1
  La  La36  1  0.49470777  0.68170454  0.12613418  1
  La  La37  1  0.83741395  0.00932262  0.62673017  1
  La  La38  1  0.49615655  0.01746608  0.12271396  1
  La  La39  1  0.83525324  0.68045327  0.12502296  1
  La  La40  1  0.32289939  0.15209105  0.86995409  1
  La  La41  1  0.49241309  0.01989563  0.63126935  1
  La  La42  1  0.16036051  0.68361088  0.12562115  1
  La  La43  1  0.99857761  0.18194393  0.12365402  1
  La  La44  1  0.34056232  0.18003841  0.12715414  1
  La  La45  1  1.00436409  0.84784094  0.62247804  1
  La  La46  1  1.00484524  0.51490910  0.62526329  1
  La  La47  1  0.50547619  0.64569395  0.36973606  1
  La  La48  1  0.16808036  0.64995104  0.37223823  1
  La  La49  1  0.32449167  0.81796155  0.37625278  1
  La  La50  1  0.50529355  0.64665919  0.87562052  1
  La  La51  1  1.00078224  0.84780047  0.12677879  1
  La  La52  1  0.83317399  0.32415483  0.87364478  1
  La  La53  1  0.49812345  0.31942224  0.87500750  1
  La  La54  1  0.16133028  0.34932178  0.63063068  1
  La  La55  1  0.16026120  0.01399070  0.12879284  1
  La  La56  1  0.15889529  0.35122003  0.12398467  1
  La  La57  1  0.83149792  0.01679398  0.12528574  1
  La  La58  1  0.67109785  0.49028436  0.87344238  1
  La  La59  1  0.32928643  0.15700712  0.37591809  1
  La  La60  1  0.50701882  0.98893369  0.37576720  1
  La  La61  1  0.66504789  0.16022212  0.37218581  1
  La  La62  1  1.00538515  0.17914026  0.62187474  1
  La  La63  1  0.33859116  0.84798220  0.63019655  1
  La  La64  1  0.17762828  0.32017027  0.37856681  1
  La  La65  1  0.32868303  0.48266207  0.87036883  1
  La  La66  1  0.50622045  0.98418701  0.87593504  1
  La  La67  1  0.67094051  0.17489121  0.62220987  1
  La  La68  1  0.32699980  0.81663927  0.87179080  1
  La  La69  1  -0.00593802  0.49026265  0.37519324  1
  La  La70  1  0.33700528  0.18727502  0.62489446  1
  La  La71  1  0.16709422  0.32038854  0.87464616  1
  In  In72  1  0.00295004  0.00171740  0.00076118  1
  In  In73  1  0.33199651  0.66487040  0.24847838  1
  In  In74  1  0.66614475  -0.00067255  0.74903955  1
  In  In75  1  0.66431767  0.66404299  0.24632121  1
  In  In76  1  0.83519612  0.50177502  0.00262406  1
  In  In77  1  0.66583798  0.00081491  0.00258282  1
  In  In78  1  0.33369796  0.66480425  0.74968866  1
  In  In79  1  0.49795492  0.16993031  0.25356962  1
  In  In80  1  0.83260165  0.83473450  0.24991273  1
  In  In81  1  0.49991651  0.82891018  0.75088820  1
  In  In82  1  0.83498128  0.16623424  0.50036962  1
  In  In83  1  0.33610205  0.00056296  0.49899559  1
  In  In84  1  0.16989640  0.16768477  0.00066315  1
  In  In85  1  0.00263310  0.66852225  0.75006173  1
  In  In86  1  0.33272203  -0.00145580  -0.00204361  1
  In  In87  1  0.16669341  0.49770622  0.49811830  1
  In  In88  1  0.83433919  0.16836385  -0.00103440  1
  In  In89  1  0.33303667  -0.00020116  0.24943223  1
  In  In90  1  0.00366371  0.33277177  0.25206047  1
  In  In91  1  0.00114731  0.66545404  0.25213485  1
  In  In92  1  0.66524228  0.66497671  0.00258540  1
  In  In93  1  0.66303919  0.00002142  0.50462979  1
  In  In94  1  0.16712482  0.83456307  -0.00243975  1
  In  In95  1  0.16784906  0.16760497  0.24985699  1
  In  In96  1  0.33283678  0.66874427  0.49737057  1
  In  In97  1  0.66358792  0.33221680  0.75001516  1
  In  In98  1  0.83260749  0.83478491  0.50344537  1
  In  In99  1  0.83629944  0.83535139  0.00138006  1
  In  In100  1  0.33123449  0.33388878  0.00124928  1
  In  In101  1  0.00488139  0.00347940  0.74756007  1
  In  In102  1  0.66659905  0.33204628  0.50206564  1
  In  In103  1  0.66511223  0.33636213  -0.00197276  1
  In  In104  1  0.66413891  0.66597302  0.50153225  1
  In  In105  1  0.33264697  0.66158877  -0.00061904  1
  In  In106  1  0.49668247  0.83625435  0.25083182  1
  In  In107  1  0.00459685  0.33389893  0.49988691  1
  Ir  Ir108  1  0.33605171  0.00342256  0.74772955  1
  Ir  Ir109  1  0.16627859  0.49403491  0.75400426  1
  Ir  Ir110  1  0.00412606  0.33467323  -0.00278234  1
  Ir  Ir111  1  0.83704683  0.49752107  0.25464382  1
  Ir  Ir112  1  0.16994645  0.83382900  0.74329216  1
  Ir  Ir113  1  0.49186298  0.16800538  0.75261038  1
  Ir  Ir114  1  0.66647325  0.65955238  0.75264724  1
  Ir  Ir115  1  0.49718738  0.49737084  0.50061105  1
  Ir  Ir116  1  0.49783182  0.49841836  -0.00170660  1
  Ir  Ir117  1  0.66509542  0.00545257  0.25193886  1
  Ir  Ir118  1  0.49285793  0.83706281  0.49872889  1
  Ir  Ir119  1  0.83683471  0.16790185  0.74658337  1
  Ir  Ir120  1  0.66961510  0.33227109  0.25227878  1
  Ir  Ir121  1  0.83628881  0.83291774  0.74725420  1
  Ir  Ir122  1  0.16552986  0.83231693  0.49708469  1
  Ir  Ir123  1  0.00373278  0.66625894  0.50061178  1
  Ir  Ir124  1  0.49715100  0.49904614  0.75530777  1
  Ir  Ir125  1  0.49649316  0.16634324  0.50380367  1
  Ir  Ir126  1  0.16595975  0.49713764  -0.00343511  1
  Ir  Ir127  1  0.49669352  0.83328314  -0.00097277  1
  Ir  Ir128  1  0.32973813  0.33447507  0.25364479  1
  Ir  Ir129  1  0.16440438  0.83384003  0.25503285  1
  Ir  Ir130  1  0.16992846  0.16988381  0.50319385  1
  Ir  Ir131  1  0.17056611  0.17262920  0.74495305  1
  Ir  Ir132  1  0.83346964  0.49838649  0.74553435  1
  Ir  Ir133  1  0.50091814  0.49441689  0.24566483  1
  Ir  Ir134  1  0.00283894  -0.00029350  0.49991493  1
  Ir  Ir135  1  -0.00156194  0.00147732  0.25001516  1
  Ir  Ir136  1  0.49276088  0.16682505  -0.00281230  1
  Ir  Ir137  1  0.33316950  0.32947412  0.50001254  1
  Ir  Ir138  1  -0.00009821  0.33322026  0.75203294  1
  Ir  Ir139  1  0.83274002  0.16484372  0.25126702  1
  Ir  Ir140  1  0.16686231  0.49997902  0.24754787  1
  Ir  Ir141  1  0.33267234  0.33394012  0.74952346  1
  Ir  Ir142  1  0.83933742  0.50059908  0.49887698  1
  Ir  Ir143  1  0.00156135  0.66435705  0.00265037  1
  O  O144  1  0.29839636  0.32530949  0.13219645  1
  O  O145  1  0.30043542  0.32678733  0.62472237  1
  O  O146  1  0.29676971  0.66078527  0.12445268  1
  O  O147  1  0.31970215  0.66352799  0.62343407  1
  O  O148  1  0.29393410  0.99588501  0.12414533  1
  O  O149  1  0.31527138  0.98817597  0.62772337  1
  O  O150  1  0.65617280  0.33566863  0.12991028  1
  O  O151  1  0.64438045  0.31542237  0.62742924  1
  O  O152  1  0.62549708  0.65964735  0.12347665  1
  O  O153  1  0.64701165  0.66373888  0.63250657  1
  O  O154  1  0.63187453  1.00301078  0.13252174  1
  O  O155  1  0.62653866  1.00490751  0.62832246  1
  O  O156  1  0.98597997  0.32931938  0.11877864  1
  O  O157  1  0.98430034  0.31907267  0.63231029  1
  O  O158  1  0.97621507  0.66174598  0.12208535  1
  O  O159  1  0.98478259  0.65432022  0.62093155  1
  O  O160  1  0.97215843  0.99362429  0.13261326  1
  O  O161  1  0.97847142  0.99623623  0.62055448  1
  O  O162  1  0.20697235  0.15494997  0.12573717  1
  O  O163  1  0.20156532  0.16826147  0.62386719  1
  O  O164  1  0.18976479  0.48652954  0.12083799  1
  O  O165  1  0.18774346  0.48907060  0.63374955  1
  O  O166  1  0.18476572  0.82411587  0.13544211  1
  O  O167  1  0.20080432  0.83088068  0.61862116  1
  O  O168  1  0.51773421  0.16109889  0.11777079  1
  O  O169  1  0.52974515  0.15924151  0.62791029  1
  O  O170  1  0.52207902  0.48914199  0.12041055  1
  O  O171  1  0.51673956  0.50016429  0.62747625  1
  O  O172  1  0.52004120  0.82004152  0.11782870  1
  O  O173  1  0.51439633  0.82509799  0.61727745  1
  O  O174  1  0.86157887  0.16096184  0.13134990  1
  O  O175  1  0.86875767  0.16001886  0.62889420  1
  O  O176  1  0.85411683  0.48979294  0.13526306  1
  O  O177  1  0.86813619  0.49554156  0.62080040  1
  O  O178  1  0.86684681  0.82011279  0.12700124  1
  O  O179  1  0.86523554  0.82997777  0.62922177  1
  O  O180  1  0.14493279  0.18285525  0.38290070  1
  O  O181  1  0.14789167  0.18063895  0.86526928  1
  O  O182  1  0.13338541  0.50666878  0.36749470  1
  O  O183  1  0.14295980  0.49354930  0.87529045  1
  O  O184  1  0.14036984  0.83843350  0.37635052  1
  O  O185  1  0.14745141  0.83374808  0.86359020  1
  O  O186  1  0.46505614  0.17083737  0.38396239  1
  O  O187  1  0.45830627  0.17909355  0.87444189  1
  O  O188  1  0.48118188  0.50462440  0.37138943  1
  O  O189  1  0.46553778  0.50940516  0.87749652  1
  O  O190  1  0.46075806  0.85404120  0.38045588  1
  O  O191  1  0.46394916  0.84753128  0.88044381  1
  O  O192  1  0.80311406  0.16500199  0.37134236  1
  O  O193  1  0.81799221  0.17709955  0.86693052  1
  O  O194  1  0.81609704  0.50383168  0.37610833  1
  O  O195  1  0.80888360  0.50167973  0.86581604  1
  O  O196  1  0.81747912  0.83887888  0.37632423  1
  O  O197  1  0.81989985  0.83832569  0.86785084  1
  O  O198  1  0.02080950  0.00309331  0.37649594  1
  O  O199  1  0.02078503  0.00336154  0.87247988  1
  O  O200  1  0.04102499  0.34449171  0.37578104  1
  O  O201  1  0.03116656  0.33431690  0.87453022  1
  O  O202  1  0.03296180  0.66676531  0.38045054  1
  O  O203  1  0.01891507  0.66744675  0.88104049  1
  O  O204  1  0.37034125  0.01750022  0.37651771  1
  O  O205  1  0.36896636  0.01539782  0.86683874  1
  O  O206  1  0.35581784  0.33041421  0.37653629  1
  O  O207  1  0.36175093  0.34285295  0.86933981  1
  O  O208  1  0.36695129  0.68011963  0.37361982  1
  O  O209  1  0.36527157  0.67625404  0.87479839  1
  O  O210  1  0.68357370  0.01871841  0.37348181  1
  O  O211  1  0.68171389  0.00567653  0.87403107  1
  O  O212  1  0.67956634  0.32589867  0.37299570  1
  O  O213  1  0.69566496  0.34368027  0.87068380  1
  O  O214  1  0.67418063  0.65886029  0.37437173  1
  O  O215  1  0.68293992  0.65188191  0.87216704  1
  O  O216  1  0.07389674  0.09983640  0.03443044  1
  O  O217  1  0.07194252  0.10281339  0.52285886  1
  O  O218  1  0.07310842  0.42661074  0.01687192  1
  O  O219  1  0.07464775  0.42751126  0.53443701  1
  O  O220  1  0.06983189  0.75775061  0.02800559  1
  O  O221  1  0.06941374  0.76455725  0.52458453  1
  O  O222  1  0.40377578  0.09825066  0.02649755  1
  O  O223  1  0.40466585  0.10195118  0.53238571  1
  O  O224  1  0.40276520  0.43239145  0.00776129  1
  O  O225  1  0.40436339  0.42070618  0.51716690  1
  O  O226  1  0.41011927  0.76144088  0.01737720  1
  O  O227  1  0.39312467  0.77897339  0.51555101  1
  O  O228  1  0.74164515  0.09323807  0.02174153  1
  O  O229  1  0.73690242  0.09545963  0.52829294  1
  O  O230  1  0.73266864  0.43743191  0.00031528  1
  O  O231  1  0.75288643  0.42445807  0.51190542  1
  O  O232  1  0.74257725  0.75843867  0.01637612  1
  O  O233  1  0.73926564  0.75796748  0.51443328  1
  O  O234  1  0.10080703  0.27050443  0.01904964  1
  O  O235  1  0.10523873  0.26224046  0.52971159  1
  O  O236  1  0.10290749  0.59902555  0.02270950  1
  O  O237  1  0.08875483  0.59207090  0.51737346  1
  O  O238  1  0.10354420  0.93301525  0.03017501  1
  O  O239  1  0.09414974  0.92406958  0.52401021  1
  O  O240  1  0.42253886  0.25521231  0.02065143  1
  O  O241  1  0.42524027  0.25749797  0.52836029  1
  O  O242  1  0.43841522  0.59695455  0.02204314  1
  O  O243  1  0.42354834  0.58429332  0.50343270  1
  O  O244  1  0.43741318  0.93345229  0.02292579  1
  O  O245  1  0.43649907  0.93445048  0.52741143  1
  O  O246  1  0.76408496  0.26535179  0.00216051  1
  O  O247  1  0.75417909  0.25240602  0.52301842  1
  O  O248  1  0.76757622  0.59993864  0.02810579  1
  O  O249  1  0.76217957  0.58310447  0.51435380  1
  O  O250  1  0.76610846  0.93366099  0.02801660  1
  O  O251  1  0.76409704  0.93445801  0.52966801  1
  O  O252  1  0.24562910  0.08041548  0.28034283  1
  O  O253  1  0.24231360  0.07911357  0.76857821  1
  O  O254  1  0.23170794  0.40114137  0.27401509  1
  O  O255  1  0.23583222  0.39834255  0.77680670  1
  O  O256  1  0.22913084  0.73891829  0.27866231  1
  O  O257  1  0.23908817  0.74541372  0.76708657  1
  O  O258  1  0.57230214  0.07447813  0.27744282  1
  O  O259  1  0.55547570  0.07422003  0.77332980  1
  O  O260  1  0.57345817  0.40030112  0.26602142  1
  O  O261  1  0.56449774  0.40720934  0.78024974  1
  O  O262  1  0.56240058  0.73561148  0.27102853  1
  O  O263  1  0.57063258  0.72558530  0.77478852  1
  O  O264  1  0.90025659  0.06772389  0.26398771  1
  O  O265  1  0.90678113  0.07863809  0.76060875  1
  O  O266  1  0.91274734  0.41059505  0.27703670  1
  O  O267  1  0.90087649  0.40111442  0.77171206  1
  O  O268  1  0.90706682  0.73523875  0.26332710  1
  O  O269  1  0.90661411  0.74353571  0.76303655  1
  O  O270  1  0.26259532  0.24475564  0.28029191  1
  O  O271  1  0.26743974  0.23817217  0.76950843  1
  O  O272  1  0.25295593  0.57257388  0.27550208  1
  O  O273  1  0.26063071  0.56224503  0.77472919  1
  O  O274  1  0.26152545  0.89839757  0.27776429  1
  O  O275  1  0.27155712  0.90163138  0.76774362  1
  O  O276  1  0.60016478  0.23759100  0.26891272  1
  O  O277  1  0.57787923  0.24173591  0.77808728  1
  O  O278  1  0.58620425  0.56616152  0.26549651  1
  O  O279  1  0.59619149  0.56402846  0.77647138  1
  O  O280  1  0.59430039  0.91707412  0.27529976  1
  O  O281  1  0.58714339  0.90692004  0.77219779  1
  O  O282  1  0.92596881  0.23467604  0.26130173  1
  O  O283  1  0.92167848  0.24851373  0.77716264  1
  O  O284  1  0.93172384  0.56273595  0.27323717  1
  O  O285  1  0.92452349  0.56859763  0.75426628  1
  O  O286  1  0.93355090  0.90948323  0.26091476  1
  O  O287  1  0.92550019  0.90506039  0.75458489  1
  O  O288  1  0.26689929  0.23527509  0.47671332  1
  O  O289  1  0.26142295  0.24213989  0.96544659  1
  O  O290  1  0.25004775  0.57981666  0.47429703  1
  O  O291  1  0.26281051  0.55871059  0.97319484  1
  O  O292  1  0.26273211  0.89844693  0.47733498  1
  O  O293  1  0.26924353  0.89956220  0.96870463  1
  O  O294  1  0.59332180  0.22572153  0.48041069  1
  O  O295  1  0.58001855  0.24253845  0.97601909  1
  O  O296  1  0.57992138  0.57601410  0.48597169  1
  O  O297  1  0.59090493  0.56235328  0.97155500  1
  O  O298  1  0.58615841  0.90441437  0.47656282  1
  O  O299  1  0.58573318  0.90465493  0.98005221  1
  O  O300  1  0.93133072  0.24009694  0.48910361  1
  O  O301  1  0.93912851  0.24078985  0.99214739  1
  O  O302  1  0.93863340  0.56911081  0.47926429  1
  O  O303  1  0.93460903  0.57207322  0.98585938  1
  O  O304  1  0.93630349  0.90746555  0.49457116  1
  O  O305  1  0.94032718  0.89781170  0.99820685  1
  O  O306  1  0.24336853  0.08255559  0.48004689  1
  O  O307  1  0.24488194  0.07772202  0.96762928  1
  O  O308  1  0.23709548  0.39588089  0.48018634  1
  O  O309  1  0.22960879  0.40154280  0.97590850  1
  O  O310  1  0.23099674  0.74108906  0.46704799  1
  O  O311  1  0.24093554  0.74020008  0.98202688  1
  O  O312  1  0.55997289  0.07328491  0.47854219  1
  O  O313  1  0.55817760  0.07276825  0.97847931  1
  O  O314  1  0.57482425  0.41249678  0.49305587  1
  O  O315  1  0.56115428  0.40393036  0.97049069  1
  O  O316  1  0.55248879  0.74141485  0.47252701  1
  O  O317  1  0.56032256  0.73651168  0.97479988  1
  O  O318  1  0.90993333  0.06747211  0.49088247  1
  O  O319  1  0.90499953  0.07182818  0.99463834  1
  O  O320  1  0.91577998  0.41745639  0.47717315  1
  O  O321  1  0.90584652  0.39642685  0.97456946  1
  O  O322  1  0.91598469  0.73612534  0.48794655  1
  O  O323  1  0.90956702  0.72912357  0.99071930  1
  O  O324  1  0.09504276  0.25844552  0.21583712  1
  O  O325  1  0.10171675  0.26899730  0.72816356  1
  O  O326  1  0.10547497  0.59904462  0.22718004  1
  O  O327  1  0.09336979  0.58292182  0.73184469  1
  O  O328  1  0.09601286  0.93332879  0.22646391  1
  O  O329  1  0.09650477  0.92077928  0.72249292  1
  O  O330  1  0.41597081  0.26011990  0.22992110  1
  O  O331  1  0.42141841  0.26088419  0.72709334  1
  O  O332  1  0.43498021  0.59061854  0.22948353  1
  O  O333  1  0.43432693  0.59326446  0.74250507  1
  O  O334  1  0.43605102  0.93840855  0.22390724  1
  O  O335  1  0.42885184  0.93743878  0.72739039  1
  O  O336  1  0.76357898  0.26053646  0.23539209  1
  O  O337  1  0.75779921  0.24943937  0.73082860  1
  O  O338  1  0.77054202  0.59047483  0.22970606  1
  O  O339  1  0.76139912  0.58924910  0.72865149  1
  O  O340  1  0.75811038  0.93848483  0.22623270  1
  O  O341  1  0.76798528  0.92670250  0.72423843  1
  O  O342  1  0.06785633  0.09343130  0.22446804  1
  O  O343  1  0.07566106  0.10752690  0.72268651  1
  O  O344  1  0.08249724  0.42578067  0.22650306  1
  O  O345  1  0.07065796  0.42500888  0.72342365  1
  O  O346  1  0.07309250  0.76656042  0.22697235  1
  O  O347  1  0.07608594  0.76665998  0.72144035  1
  O  O348  1  0.40515008  0.09834578  0.21907090  1
  O  O349  1  0.39791197  0.10113631  0.72109600  1
  O  O350  1  0.40373095  0.42201432  0.23218203  1
  O  O351  1  0.39754291  0.43279660  0.73982834  1
  O  O352  1  0.40320324  0.76010765  0.22937731  1
  O  O353  1  0.39594827  0.77286617  0.73460863  1
  O  O354  1  0.73853022  0.09484682  0.22864065  1
  O  O355  1  0.74895442  0.09391890  0.71685374  1
  O  O356  1  0.74225819  0.42643674  0.24168570  1
  O  O357  1  0.74271481  0.42906605  0.73353611  1
  O  O358  1  0.74339128  0.75322485  0.22480398  1
  O  O359  1  0.73768394  0.75608362  0.73612081  1
