# generated using pymatgen
data_BaLaInIrO6
_symmetry_space_group_name_H-M   'P 1'
_cell_length_a   17.53046945
_cell_length_b   17.55301823
_cell_length_c   16.50872254
_cell_angle_alpha   90.03755720
_cell_angle_beta   90.02076674
_cell_angle_gamma   89.97789406
_symmetry_Int_Tables_number   1
_chemical_formula_structural   BaLaInIrO6
_chemical_formula_sum   'Ba36 La36 In36 Ir36 O216'
_cell_volume   5079.94095525
_cell_formula_units_Z   36
loop_
 _symmetry_equiv_pos_site_id
 _symmetry_equiv_pos_as_xyz
  1  'x, y, z'
loop_
 _atom_site_type_symbol
 _atom_site_label
 _atom_site_symmetry_multiplicity
 _atom_site_fract_x
 _atom_site_fract_y
 _atom_site_fract_z
 _atom_site_occupancy
  Ba  Ba0  1  1.00161947  0.84829114  0.62547638  1
  Ba  Ba1  1  1.00076965  0.50665084  0.12387721  1
  Ba  Ba2  1  0.49756001  0.99836975  0.87598308  1
  Ba  Ba3  1  0.33465234  0.82435896  0.37683448  1
  Ba  Ba4  1  0.49577520  0.33093586  0.37410647  1
  Ba  Ba5  1  0.82933419  0.66342219  0.87577130  1
  Ba  Ba6  1  0.49806909  0.00714449  0.62330448  1
  Ba  Ba7  1  0.50184774  0.32534469  0.87823116  1
  Ba  Ba8  1  0.66749574  0.84280823  0.12850094  1
  Ba  Ba9  1  1.00260943  0.17544614  0.12841680  1
  Ba  Ba10  1  0.16551169  0.67705724  0.62596905  1
  Ba  Ba11  1  0.16916897  0.99242710  0.87310308  1
  Ba  Ba12  1  0.33616912  0.17574608  0.62441478  1
  Ba  Ba13  1  0.66574259  0.83209642  0.87468987  1
  Ba  Ba14  1  0.50489912  0.00594836  0.13092514  1
  Ba  Ba15  1  0.66450359  0.82669895  0.37092960  1
  Ba  Ba16  1  0.66722974  0.84961455  0.61938028  1
  Ba  Ba17  1  0.83696716  0.32273605  0.87507522  1
  Ba  Ba18  1  0.50476089  0.66111168  0.37542401  1
  Ba  Ba19  1  0.66920782  0.49101538  0.37616038  1
  Ba  Ba20  1  0.15926204  0.67389457  0.12944171  1
  Ba  Ba21  1  -0.00081915  0.83008960  0.87287952  1
  Ba  Ba22  1  0.00107872  0.48643880  0.37323067  1
  Ba  Ba23  1  0.16921170  0.32524784  0.87847302  1
  Ba  Ba24  1  0.33116845  0.50970358  0.12407700  1
  Ba  Ba25  1  0.16774064  0.65580462  0.38032744  1
  Ba  Ba26  1  0.33212487  0.48741406  0.87645432  1
  Ba  Ba27  1  0.50105681  0.34076309  0.62743827  1
  Ba  Ba28  1  0.17014607  0.32571316  0.37039354  1
  Ba  Ba29  1  0.67599420  0.50894545  0.13002802  1
  Ba  Ba30  1  0.83024289  0.01013124  0.12519057  1
  Ba  Ba31  1  0.67041748  0.17124800  0.12348130  1
  Ba  Ba32  1  0.33442430  0.16080686  0.87051012  1
  Ba  Ba33  1  0.66350611  0.16217729  0.87502291  1
  Ba  Ba34  1  0.83360182  0.34072143  0.12685332  1
  Ba  Ba35  1  0.83198870  0.67688946  0.12782765  1
  La  La36  1  0.34248766  0.51097580  0.62337166  1
  La  La37  1  -0.00768182  0.81404839  0.37343428  1
  La  La38  1  0.83122973  0.99173499  0.87711009  1
  La  La39  1  1.00351772  0.17449202  0.62408336  1
  La  La40  1  -0.00706246  0.14303257  0.87500943  1
  La  La41  1  0.32452359  0.81993257  0.87379511  1
  La  La42  1  0.50505085  0.98962897  0.37773742  1
  La  La43  1  0.17062929  0.34808469  0.63066838  1
  La  La44  1  0.83140015  0.68597023  0.62492307  1
  La  La45  1  0.32603845  0.14492110  0.37233464  1
  La  La46  1  0.50807308  0.65514902  0.87551205  1
  La  La47  1  0.16396560  0.00879644  0.62434828  1
  La  La48  1  0.82882260  0.34875014  0.62437773  1
  La  La49  1  0.33726067  0.49992706  0.37315150  1
  La  La50  1  0.83913152  0.98416159  0.36790592  1
  La  La51  1  0.66844912  0.15299523  0.37378143  1
  La  La52  1  0.84334537  0.31337886  0.37052394  1
  La  La53  1  0.66968797  0.51580351  0.62229098  1
  La  La54  1  0.66539859  0.17845398  0.62348713  1
  La  La55  1  0.82770022  0.01502472  0.62339958  1
  La  La56  1  1.00552092  0.51458788  0.62886754  1
  La  La57  1  0.16466070  0.98232250  0.37279740  1
  La  La58  1  0.65872272  0.48775330  0.88260372  1
  La  La59  1  -0.00335531  0.15153431  0.37381030  1
  La  La60  1  0.33707101  0.84427518  0.62462874  1
  La  La61  1  0.50133856  0.34563200  0.12275815  1
  La  La62  1  0.33283583  0.83972072  0.13169412  1
  La  La63  1  0.33499145  0.17673602  0.12221084  1
  La  La64  1  0.16887059  0.65155609  0.87426006  1
  La  La65  1  1.00108922  0.84734010  0.12402683  1
  La  La66  1  0.16085703  0.34977691  0.12521864  1
  La  La67  1  0.49540803  0.68353290  0.62676984  1
  La  La68  1  0.83314833  0.65134721  0.37405377  1
  La  La69  1  0.00091174  0.48929355  0.88147961  1
  La  La70  1  0.49942967  0.68476008  0.12917455  1
  La  La71  1  0.16064182  0.01086568  0.12497293  1
  In  In72  1  0.66938013  0.33654472  0.74669795  1
  In  In73  1  0.33313001  0.66968556  0.00038203  1
  In  In74  1  0.49839492  0.16812458  0.49656016  1
  In  In75  1  0.16382251  0.16770535  0.74752528  1
  In  In76  1  0.49987746  0.16899537  0.25301233  1
  In  In77  1  0.33102917  -0.00082010  0.75046191  1
  In  In78  1  0.33310133  0.66767343  0.25015979  1
  In  In79  1  0.49807857  0.83668130  0.75413118  1
  In  In80  1  0.50491048  0.50018416  0.50193092  1
  In  In81  1  0.49856659  0.50481193  0.00396796  1
  In  In82  1  0.66802722  0.33097154  0.25638697  1
  In  In83  1  0.00087260  0.66709383  0.75215626  1
  In  In84  1  -0.00088678  0.32998739  0.50246863  1
  In  In85  1  0.83229531  0.50238757  -0.00298019  1
  In  In86  1  0.33121453  0.33392730  0.49898423  1
  In  In87  1  0.66508132  0.66945247  0.74786876  1
  In  In88  1  0.16721090  0.49575490  0.50405192  1
  In  In89  1  0.33555036  0.66562734  0.50200262  1
  In  In90  1  0.83496756  0.83665587  0.49815730  1
  In  In91  1  0.33164293  0.33057990  0.00323299  1
  In  In92  1  0.66855982  0.33227282  0.00221615  1
  In  In93  1  0.66740132  0.66856884  0.50050808  1
  In  In94  1  0.16566249  0.16449341  0.00034612  1
  In  In95  1  0.16616625  0.83221888  0.00111442  1
  In  In96  1  0.00130245  0.32914786  -0.00206872  1
  In  In97  1  0.16510847  0.50026189  0.25184907  1
  In  In98  1  0.66580973  -0.00149666  -0.00106979  1
  In  In99  1  0.83362809  0.50229007  0.74813662  1
  In  In100  1  -0.00130026  0.33063120  0.74572283  1
  In  In101  1  0.66598601  0.67103423  0.00155526  1
  In  In102  1  0.16182356  0.83198147  0.49932315  1
  In  In103  1  0.33191675  0.33293996  0.24752120  1
  In  In104  1  0.32845756  -0.00183159  0.49644302  1
  In  In105  1  0.50006532  0.16512920  0.00389510  1
  In  In106  1  -0.00012245  0.67055865  -0.00051844  1
  In  In107  1  0.83220711  0.83774148  0.74865647  1
  Ir  Ir108  1  0.00169457  0.32722658  0.25080578  1
  Ir  Ir109  1  0.50107720  0.83709349  0.49931045  1
  Ir  Ir110  1  0.83542138  0.16280742  0.49927705  1
  Ir  Ir111  1  -0.00431959  0.66919150  0.25384334  1
  Ir  Ir112  1  0.50231584  0.16723899  0.74725949  1
  Ir  Ir113  1  -0.00324969  0.00090256  0.74582017  1
  Ir  Ir114  1  0.83501870  0.16230751  0.25304930  1
  Ir  Ir115  1  0.33373911  0.66587041  0.75095232  1
  Ir  Ir116  1  0.67768470  0.33022984  0.49982183  1
  Ir  Ir117  1  0.32938816  -0.00581724  0.00556974  1
  Ir  Ir118  1  -0.00142085  -0.00146933  0.00271317  1
  Ir  Ir119  1  0.17229396  0.50080350  0.74989752  1
  Ir  Ir120  1  0.49031417  0.83749860  0.00228510  1
  Ir  Ir121  1  0.16129505  0.83525144  0.25050183  1
  Ir  Ir122  1  0.83465756  0.83397630  0.25068036  1
  Ir  Ir123  1  0.50140752  0.50250057  0.75093378  1
  Ir  Ir124  1  0.83837386  0.16152905  0.74697441  1
  Ir  Ir125  1  0.83525154  0.83833669  0.00252987  1
  Ir  Ir126  1  -0.00243521  0.00401562  0.49700134  1
  Ir  Ir127  1  0.66756286  0.66946964  0.25142881  1
  Ir  Ir128  1  0.49955339  0.83818835  0.24873367  1
  Ir  Ir129  1  0.16615248  0.50222788  -0.00305461  1
  Ir  Ir130  1  0.33412102  0.33536666  0.75042551  1
  Ir  Ir131  1  0.66840693  0.00835255  0.74319593  1
  Ir  Ir132  1  0.00212627  -0.00192055  0.25149671  1
  Ir  Ir133  1  0.83801383  0.49766398  0.50009144  1
  Ir  Ir134  1  0.16682093  0.16033019  0.25404486  1
  Ir  Ir135  1  0.83692281  0.16171989  -0.00301504  1
  Ir  Ir136  1  0.16878583  0.83317769  0.74938476  1
  Ir  Ir137  1  0.16239141  0.16314408  0.49397587  1
  Ir  Ir138  1  0.83605925  0.50039945  0.25699185  1
  Ir  Ir139  1  0.32713053  -0.00379716  0.24769437  1
  Ir  Ir140  1  0.66967507  0.00649239  0.49913702  1
  Ir  Ir141  1  -0.00550325  0.66280483  0.49798390  1
  Ir  Ir142  1  0.67088385  -0.00009671  0.25724915  1
  Ir  Ir143  1  0.50388987  0.50416179  0.24849463  1
  O  O144  1  0.29361439  0.31003915  0.12628788  1
  O  O145  1  0.31100649  0.33717414  0.63222688  1
  O  O146  1  0.31021050  0.68259436  0.12656775  1
  O  O147  1  0.31158074  0.65195469  0.63357764  1
  O  O148  1  0.29629560  0.98073566  0.12765013  1
  O  O149  1  0.29906468  0.98290555  0.62171852  1
  O  O150  1  0.63809680  0.32717427  0.13210067  1
  O  O151  1  0.65460255  0.31729610  0.61762148  1
  O  O152  1  0.63676586  0.67132970  0.13103026  1
  O  O153  1  0.63034577  0.65550758  0.62495161  1
  O  O154  1  0.65747572  0.99919810  0.13509126  1
  O  O155  1  0.64535890  1.01347444  0.62028651  1
  O  O156  1  0.98441118  0.33187821  0.13137866  1
  O  O157  1  0.96005746  0.30792744  0.62208570  1
  O  O158  1  0.98282236  0.66461466  0.13396910  1
  O  O159  1  0.96818266  0.65423403  0.61858144  1
  O  O160  1  0.97685810  0.98634477  0.12792642  1
  O  O161  1  0.96527018  1.00320181  0.62065842  1
  O  O162  1  0.19618626  0.14676362  0.13563114  1
  O  O163  1  0.18453713  0.14537845  0.61138159  1
  O  O164  1  0.17644684  0.50224867  0.11845249  1
  O  O165  1  0.20438391  0.49670376  0.63330557  1
  O  O166  1  0.19414889  0.83203172  0.13218434  1
  O  O167  1  0.19578754  0.83724735  0.62943065  1
  O  O168  1  0.51995706  0.15615757  0.13141939  1
  O  O169  1  0.52829813  0.16476866  0.62497381  1
  O  O170  1  0.52653844  0.49166877  0.13187191  1
  O  O171  1  0.53219386  0.49602906  0.63378509  1
  O  O172  1  0.51820703  0.82448077  0.12504651  1
  O  O173  1  0.51748402  0.82734333  0.61984993  1
  O  O174  1  0.85643156  0.16200054  0.12358941  1
  O  O175  1  0.86744650  0.15119770  0.62309080  1
  O  O176  1  0.85253384  0.50156973  0.13873141  1
  O  O177  1  0.87097291  0.48675008  0.61514432  1
  O  O178  1  0.86380025  0.83396833  0.12680903  1
  O  O179  1  0.85418592  0.83408531  0.62176138  1
  O  O180  1  0.13168747  0.17070828  0.37363636  1
  O  O181  1  0.13028992  0.16575515  0.87346084  1
  O  O182  1  0.15253249  0.49350805  0.37838168  1
  O  O183  1  0.13926855  0.50540368  0.87176672  1
  O  O184  1  0.12663888  0.84436586  0.36934915  1
  O  O185  1  0.14841969  0.83801771  0.86861875  1
  O  O186  1  0.46087834  0.16657737  0.37244704  1
  O  O187  1  0.48425707  0.16675601  0.86793272  1
  O  O188  1  0.47437079  0.50724325  0.37011403  1
  O  O189  1  0.47688674  0.51525184  0.86832396  1
  O  O190  1  0.48158912  0.85190233  0.37315153  1
  O  O191  1  0.46210160  0.84194056  0.88256119  1
  O  O192  1  0.80590151  0.17147541  0.37712438  1
  O  O193  1  0.81455935  0.15731150  0.87178775  1
  O  O194  1  0.81638440  0.51226264  0.37981890  1
  O  O195  1  0.79367647  0.50655093  0.86971315  1
  O  O196  1  0.81514649  0.84386701  0.37103747  1
  O  O197  1  0.81808513  0.84993566  0.88013555  1
  O  O198  1  0.03023642  0.01193210  0.37464382  1
  O  O199  1  0.02176769  0.00703397  0.87429310  1
  O  O200  1  0.01634401  0.32395927  0.37188678  1
  O  O201  1  0.02031954  0.34815641  0.86992212  1
  O  O202  1  0.01879756  0.67721528  0.37544979  1
  O  O203  1  0.03512075  0.67729787  0.87423478  1
  O  O204  1  0.36203895  0.00514467  0.36568300  1
  O  O205  1  0.34564710  0.00066554  0.88433470  1
  O  O206  1  0.34159954  0.36086123  0.37239310  1
  O  O207  1  0.34897141  0.33211616  0.87073676  1
  O  O208  1  0.35440098  0.66115309  0.37521737  1
  O  O209  1  0.36765344  0.67978207  0.86887409  1
  O  O210  1  0.70228675  0.00655790  0.37950629  1
  O  O211  1  0.69472280  0.00240100  0.86374272  1
  O  O212  1  0.70849652  0.33546059  0.38336809  1
  O  O213  1  0.68723133  0.34494561  0.87060937  1
  O  O214  1  0.69538914  0.67048838  0.37206700  1
  O  O215  1  0.67765613  0.67921458  0.87378905  1
  O  O216  1  0.07028720  0.08601282  0.02072243  1
  O  O217  1  0.06067055  0.10134781  0.51560014  1
  O  O218  1  0.07907073  0.43014941  0.01036545  1
  O  O219  1  0.06726902  0.42518215  0.53787861  1
  O  O220  1  0.06756849  0.76824405  0.02961336  1
  O  O221  1  0.06070320  0.75893452  0.50971210  1
  O  O222  1  0.39212002  0.09059780  0.02336727  1
  O  O223  1  0.40516122  0.08837700  0.51203014  1
  O  O224  1  0.41175237  0.42102454  0.02270770  1
  O  O225  1  0.40171795  0.43727172  0.51733193  1
  O  O226  1  0.39701707  0.77606759  0.02219177  1
  O  O227  1  0.41173046  0.76458356  0.52495261  1
  O  O228  1  0.74835235  0.09167214  0.00834021  1
  O  O229  1  0.73840671  0.09989403  0.52600871  1
  O  O230  1  0.74468484  0.42300863  0.01911541  1
  O  O231  1  0.74153817  0.43162321  0.52715323  1
  O  O232  1  0.74405064  0.77008406  0.01382700  1
  O  O233  1  0.74732248  0.75510481  0.52306150  1
  O  O234  1  0.09985548  0.26376571  0.02760323  1
  O  O235  1  0.09833711  0.25406923  0.52652410  1
  O  O236  1  0.09949807  0.59401842  0.00353795  1
  O  O237  1  0.08460587  0.59104426  0.52232389  1
  O  O238  1  0.09221505  0.93033216  0.02728562  1
  O  O239  1  0.09290326  0.94024431  0.51992705  1
  O  O240  1  0.42735548  0.25909770  0.03295164  1
  O  O241  1  0.42711331  0.26367998  0.51450164  1
  O  O242  1  0.43337612  0.60644281  0.02480102  1
  O  O243  1  0.43484098  0.59853526  0.53297584  1
  O  O244  1  0.42336386  0.93052442  0.02536364  1
  O  O245  1  0.42264495  0.91833759  0.51438208  1
  O  O246  1  0.76815311  0.25080136  0.01296099  1
  O  O247  1  0.77418135  0.26150620  0.52347241  1
  O  O248  1  0.75858059  0.59658706  0.01973806  1
  O  O249  1  0.77451881  0.59317529  0.52326916  1
  O  O250  1  0.76500781  0.92825716  0.00926986  1
  O  O251  1  0.76524875  0.94126851  0.51752013  1
  O  O252  1  0.23180070  0.06316799  0.27906938  1
  O  O253  1  0.23642295  0.07268160  0.75437282  1
  O  O254  1  0.23426339  0.40238936  0.24254553  1
  O  O255  1  0.23959652  0.40458192  0.76657866  1
  O  O256  1  0.23096823  0.74800361  0.27235260  1
  O  O257  1  0.23796326  0.73610456  0.77679993  1
  O  O258  1  0.57920284  0.06855747  0.28377497  1
  O  O259  1  0.57424677  0.07697792  0.76372782  1
  O  O260  1  0.57266708  0.41354341  0.26843042  1
  O  O261  1  0.57184818  0.41469394  0.77200157  1
  O  O262  1  0.57171762  0.74318500  0.26463088  1
  O  O263  1  0.55637357  0.73331018  0.76583537  1
  O  O264  1  0.90935988  0.06860049  0.27969069  1
  O  O265  1  0.90012280  0.06428949  0.77180535  1
  O  O266  1  0.90405684  0.39766115  0.27529328  1
  O  O267  1  0.90070473  0.39963962  0.75445184  1
  O  O268  1  0.90170917  0.74016246  0.27902916  1
  O  O269  1  0.90317448  0.73749653  0.75571550  1
  O  O270  1  0.26257193  0.22201265  0.27498480  1
  O  O271  1  0.25958588  0.24777754  0.76034273  1
  O  O272  1  0.26586264  0.56775704  0.26857423  1
  O  O273  1  0.25819258  0.57784966  0.78016838  1
  O  O274  1  0.25355182  0.90515913  0.27434250  1
  O  O275  1  0.26359768  0.89458193  0.77023980  1
  O  O276  1  0.59940871  0.23536661  0.28852577  1
  O  O277  1  0.59271993  0.23862323  0.75446263  1
  O  O278  1  0.59713358  0.57738632  0.27016199  1
  O  O279  1  0.59530356  0.56627576  0.77511133  1
  O  O280  1  0.58741970  0.91767634  0.27423405  1
  O  O281  1  0.59555427  0.91791756  0.75953964  1
  O  O282  1  0.92982366  0.23036317  0.27566798  1
  O  O283  1  0.93657485  0.21858852  0.76979136  1
  O  O284  1  0.92315286  0.58145323  0.28178061  1
  O  O285  1  0.94125469  0.56013000  0.76978745  1
  O  O286  1  0.93257566  0.90316020  0.27536568  1
  O  O287  1  0.92488581  0.91614548  0.76821976  1
  O  O288  1  0.25946898  0.22286920  0.47349967  1
  O  O289  1  0.26474516  0.22862872  0.98637656  1
  O  O290  1  0.27282617  0.55873783  0.48745376  1
  O  O291  1  0.25509867  0.57442768  0.97918989  1
  O  O292  1  0.24792653  0.91191731  0.46815351  1
  O  O293  1  0.27089841  0.89583563  0.98546829  1
  O  O294  1  0.61438278  0.23326246  0.48214538  1
  O  O295  1  0.59058579  0.24337224  0.98597457  1
  O  O296  1  0.60332223  0.56739567  0.48989669  1
  O  O297  1  0.59061406  0.57905342  0.97026497  1
  O  O298  1  0.59008089  0.91771528  0.47467272  1
  O  O299  1  0.58372917  0.90311411  0.98780518  1
  O  O300  1  0.92879033  0.22581557  0.47219114  1
  O  O301  1  0.93209821  0.22571664  0.97616551  1
  O  O302  1  0.93045809  0.56674293  0.47967807  1
  O  O303  1  0.93218603  0.57306095  0.97435756  1
  O  O304  1  0.93470076  0.90923385  0.46838252  1
  O  O305  1  0.92892976  0.90759111  0.98700298  1
  O  O306  1  0.22642227  0.07027758  0.46589154  1
  O  O307  1  0.23410775  0.05634472  0.99861912  1
  O  O308  1  0.22425402  0.38794217  0.50475097  1
  O  O309  1  0.23531413  0.41015722  0.99491166  1
  O  O310  1  0.24065610  0.74119362  0.48981925  1
  O  O311  1  0.23697414  0.73788022  0.96459435  1
  O  O312  1  0.57853582  0.07444593  0.46893140  1
  O  O313  1  0.57535605  0.07213072  0.98666974  1
  O  O314  1  0.58490163  0.39728685  0.48492105  1
  O  O315  1  0.57847274  0.41628648  0.98211457  1
  O  O316  1  0.57352821  0.75026308  0.48624676  1
  O  O317  1  0.55300187  0.74091660  0.98518191  1
  O  O318  1  0.89867753  0.06644472  0.47104681  1
  O  O319  1  0.90553134  0.06665491  0.97226275  1
  O  O320  1  0.89451305  0.39696515  0.47756660  1
  O  O321  1  0.91580995  0.41297081  0.98077873  1
  O  O322  1  0.90426444  0.73280483  0.47376518  1
  O  O323  1  0.90379002  0.74949185  0.98612683  1
  O  O324  1  0.10077563  0.25902247  0.22690728  1
  O  O325  1  0.09329309  0.25920249  0.71163827  1
  O  O326  1  0.08385143  0.59551189  0.24302258  1
  O  O327  1  0.09918494  0.58743974  0.73081222  1
  O  O328  1  0.09376159  0.92859817  0.22257759  1
  O  O329  1  0.10002472  0.93283052  0.72469994  1
  O  O330  1  0.43157247  0.26891926  0.22149897  1
  O  O331  1  0.42684963  0.26094846  0.73259729  1
  O  O332  1  0.43824294  0.59742205  0.22472190  1
  O  O333  1  0.43046794  0.59846299  0.72466799  1
  O  O334  1  0.41676254  0.92180708  0.22282010  1
  O  O335  1  0.41667637  0.91841345  0.72335662  1
  O  O336  1  0.76851286  0.25473821  0.24144842  1
  O  O337  1  0.77308741  0.25536518  0.72293580  1
  O  O338  1  0.76734073  0.59988320  0.24548164  1
  O  O339  1  0.76398257  0.59792822  0.70952037  1
  O  O340  1  0.76872564  0.93144669  0.24101613  1
  O  O341  1  0.76205796  0.94301401  0.72555123  1
  O  O342  1  0.07403999  0.08819971  0.23029455  1
  O  O343  1  0.06521893  0.09102912  0.72150851  1
  O  O344  1  0.07183700  0.41656338  0.23240301  1
  O  O345  1  0.08243011  0.42950720  0.71948058  1
  O  O346  1  0.06058199  0.77100765  0.23302746  1
  O  O347  1  0.07899002  0.76464376  0.72910924  1
  O  O348  1  0.38783755  0.09144291  0.22732165  1
  O  O349  1  0.41424694  0.09274255  0.73307200  1
  O  O350  1  0.41488657  0.43396547  0.23138984  1
  O  O351  1  0.40416168  0.43427669  0.72827466  1
  O  O352  1  0.41222746  0.76443624  0.22915115  1
  O  O353  1  0.39614820  0.75844286  0.72144736  1
  O  O354  1  0.73919000  0.09515515  0.24287547  1
  O  O355  1  0.73986147  0.09998496  0.71814339  1
  O  O356  1  0.75068255  0.42575371  0.24189048  1
  O  O357  1  0.73861950  0.42979710  0.70950727  1
  O  O358  1  0.74076313  0.76330340  0.23265932  1
  O  O359  1  0.73905710  0.76385666  0.72716356  1
