# generated using pymatgen
data_BaLaInIrO6
_symmetry_space_group_name_H-M   'P 1'
_cell_length_a   17.51869855
_cell_length_b   17.53802645
_cell_length_c   16.46860051
_cell_angle_alpha   90.00415584
_cell_angle_beta   90.00689325
_cell_angle_gamma   90.00681332
_symmetry_Int_Tables_number   1
_chemical_formula_structural   BaLaInIrO6
_chemical_formula_sum   'Ba36 La36 In36 Ir36 O216'
_cell_volume   5059.86870352
_cell_formula_units_Z   36
loop_
 _symmetry_equiv_pos_site_id
 _symmetry_equiv_pos_as_xyz
  1  'x, y, z'
loop_
 _atom_site_type_symbol
 _atom_site_label
 _atom_site_symmetry_multiplicity
 _atom_site_fract_x
 _atom_site_fract_y
 _atom_site_fract_z
 _atom_site_occupancy
  Ba  Ba0  1  0.83513280  0.32488031  0.87457885  1
  Ba  Ba1  1  0.50374084  0.32557486  0.37666049  1
  Ba  Ba2  1  0.00227709  0.82492928  0.37798727  1
  Ba  Ba3  1  0.49652454  0.01070972  0.62951300  1
  Ba  Ba4  1  0.50033952  0.65700452  0.37160747  1
  Ba  Ba5  1  -0.00324091  0.16072310  0.37808253  1
  Ba  Ba6  1  0.66261327  0.16345621  0.37616826  1
  Ba  Ba7  1  0.16659758  0.99229415  0.37604642  1
  Ba  Ba8  1  0.66289037  0.48765497  0.37337454  1
  Ba  Ba9  1  0.99994407  0.84484063  0.62537558  1
  Ba  Ba10  1  0.00018545  0.49173946  0.87231301  1
  Ba  Ba11  1  0.66515886  0.82448431  0.87045528  1
  Ba  Ba12  1  0.66450502  0.84078941  0.12525971  1
  Ba  Ba13  1  1.00188241  0.50454857  0.12246403  1
  Ba  Ba14  1  0.83367011  0.32699883  0.37506476  1
  Ba  Ba15  1  0.33208493  0.15668018  0.37440846  1
  Ba  Ba16  1  0.67249387  0.50831956  0.12331943  1
  Ba  Ba17  1  0.50069277  0.67589810  0.12535644  1
  Ba  Ba18  1  0.83561822  0.33825518  0.62237288  1
  Ba  Ba19  1  0.83311178  0.99150004  0.87513869  1
  Ba  Ba20  1  0.83380402  0.34144302  0.12636465  1
  Ba  Ba21  1  0.33968688  0.84609516  0.12941923  1
  Ba  Ba22  1  0.33045280  0.15798321  0.87754910  1
  Ba  Ba23  1  0.99895203  0.17053594  0.62800019  1
  Ba  Ba24  1  0.16962612  0.67566080  0.12489400  1
  Ba  Ba25  1  0.16881334  0.32483060  0.87832074  1
  Ba  Ba26  1  0.16453964  0.00864339  0.62412432  1
  Ba  Ba27  1  0.83143170  0.00919424  0.62929611  1
  Ba  Ba28  1  0.50343336  0.99324228  0.37898826  1
  Ba  Ba29  1  0.66804737  0.48817999  0.87146171  1
  Ba  Ba30  1  0.17081531  0.32551643  0.37190633  1
  Ba  Ba31  1  0.83237585  0.67348963  0.62795855  1
  Ba  Ba32  1  0.32939749  0.82649880  0.37656493  1
  Ba  Ba33  1  0.16367138  0.99466224  0.87371164  1
  Ba  Ba34  1  0.16243037  0.67656175  0.63003254  1
  Ba  Ba35  1  0.16973942  0.66021121  0.37945354  1
  La  La36  1  0.49972182  0.34523412  0.62297110  1
  La  La37  1  0.65994362  0.82123157  0.37799860  1
  La  La38  1  1.00533954  0.84720236  0.12456935  1
  La  La39  1  0.66846296  0.18044381  0.12746765  1
  La  La40  1  0.66416778  0.15605179  0.87355552  1
  La  La41  1  0.66980834  0.18326359  0.62452958  1
  La  La42  1  -0.00840828  0.81850856  0.87410157  1
  La  La43  1  0.16582982  0.65163341  0.87578373  1
  La  La44  1  0.32711603  0.48694587  0.87173927  1
  La  La45  1  0.50812146  0.31781562  0.87552782  1
  La  La46  1  0.16574745  0.34614247  0.12551777  1
  La  La47  1  0.33923530  0.51238618  0.62030020  1
  La  La48  1  0.82567767  0.68018124  0.12648698  1
  La  La49  1  0.16263277  0.33867837  0.62576293  1
  La  La50  1  0.50084464  0.34956899  0.12774573  1
  La  La51  1  0.50620689  0.98796556  0.87829474  1
  La  La52  1  0.82771622  0.01601887  0.12583864  1
  La  La53  1  -0.00231430  0.49419247  0.37468892  1
  La  La54  1  0.67200529  0.85272931  0.62271071  1
  La  La55  1  0.34116224  0.51380111  0.12606905  1
  La  La56  1  0.50341934  0.64546034  0.87559280  1
  La  La57  1  0.83838691  0.98803253  0.37690907  1
  La  La58  1  0.49214355  0.68313003  0.61931001  1
  La  La59  1  1.00414452  0.50547325  0.62401076  1
  La  La60  1  0.32864024  0.82333163  0.87759499  1
  La  La61  1  0.83795999  0.65054645  0.88084795  1
  La  La62  1  -0.00732599  0.15372502  0.86963057  1
  La  La63  1  0.49848943  0.01327186  0.12914278  1
  La  La64  1  0.33147467  0.48267090  0.37257476  1
  La  La65  1  0.16719635  0.01097165  0.12620521  1
  La  La66  1  0.33450257  0.18085796  0.12729315  1
  La  La67  1  1.00457268  0.18294193  0.12294136  1
  La  La68  1  0.33453521  0.18125239  0.62747731  1
  La  La69  1  0.33576419  0.85118467  0.61756231  1
  La  La70  1  0.66784978  0.50757745  0.62098183  1
  La  La71  1  0.83762641  0.64848466  0.37392914  1
  In  In72  1  0.16979228  0.49699712  0.74751471  1
  In  In73  1  -0.00063168  0.66679965  0.00515675  1
  In  In74  1  0.49825991  0.16782784  0.50466707  1
  In  In75  1  0.16970526  0.50362844  0.24973899  1
  In  In76  1  0.49733242  0.83374393  -0.00119338  1
  In  In77  1  0.00277174  0.33110081  0.49977156  1
  In  In78  1  0.66569809  0.66601860  0.50161597  1
  In  In79  1  0.33858729  0.33233191  -0.00057666  1
  In  In80  1  0.16755248  0.83440593  0.24705389  1
  In  In81  1  0.49848487  0.16844686  0.24963475  1
  In  In82  1  0.33375244  0.00149992  0.75444419  1
  In  In83  1  0.66661144  -0.00004497  0.25140189  1
  In  In84  1  -0.00082643  0.66428901  0.50164921  1
  In  In85  1  0.66746765  0.33253977  -0.00129059  1
  In  In86  1  0.00221496  0.33233255  -0.00444107  1
  In  In87  1  -0.00054507  0.00252015  0.50056500  1
  In  In88  1  -0.00208274  0.66782998  0.24821190  1
  In  In89  1  0.49990107  0.49975599  0.49783186  1
  In  In90  1  0.83077660  0.83281913  0.75074923  1
  In  In91  1  0.66717584  -0.00107829  0.00084821  1
  In  In92  1  0.16656916  0.83587659  -0.00136618  1
  In  In93  1  0.49586380  0.83243411  0.74835197  1
  In  In94  1  0.83252231  0.49730458  0.74566982  1
  In  In95  1  -0.00357288  0.00284254  0.24665985  1
  In  In96  1  0.00265436  0.33414474  0.24860011  1
  In  In97  1  0.83205757  0.16674713  0.25134261  1
  In  In98  1  0.66764582  0.66561852  0.25091164  1
  In  In99  1  0.33379034  0.66838501  0.74803806  1
  In  In100  1  0.16688093  0.83314735  0.50406052  1
  In  In101  1  0.33453686  0.66820832  -0.00260675  1
  In  In102  1  0.83011585  0.83055604  0.49707390  1
  In  In103  1  -0.00178900  0.00071185  0.00254514  1
  In  In104  1  0.66667100  0.66579526  -0.00421884  1
  In  In105  1  0.16711862  0.16863976  0.75374721  1
  In  In106  1  0.16845911  0.16689220  0.24931628  1
  In  In107  1  0.66161517  0.66565780  0.74748159  1
  Ir  Ir108  1  0.49760564  0.49424392  0.74986726  1
  Ir  Ir109  1  0.83703372  0.83135896  0.00183995  1
  Ir  Ir110  1  0.33343021  0.00294779  0.50064167  1
  Ir  Ir111  1  0.66186706  0.32987417  0.74791944  1
  Ir  Ir112  1  0.17446640  0.49942615  -0.00313384  1
  Ir  Ir113  1  0.33531367  0.33441564  0.24805958  1
  Ir  Ir114  1  0.50016065  0.83460670  0.25625650  1
  Ir  Ir115  1  0.83481146  0.49718993  0.49847715  1
  Ir  Ir116  1  0.83331359  0.16571161  -0.00163092  1
  Ir  Ir117  1  0.66635320  0.33297406  0.50190012  1
  Ir  Ir118  1  0.00055872  0.33194574  0.74765315  1
  Ir  Ir119  1  0.00048694  0.66599423  0.75381687  1
  Ir  Ir120  1  0.33385477  0.66337310  0.50028179  1
  Ir  Ir121  1  0.50015153  0.16606616  -0.00140842  1
  Ir  Ir122  1  0.33383209  0.00180645  0.24805123  1
  Ir  Ir123  1  0.83161120  0.83345550  0.24804583  1
  Ir  Ir124  1  -0.00012692  0.00043179  0.75391340  1
  Ir  Ir125  1  0.49776507  0.49731433  0.24581870  1
  Ir  Ir126  1  0.66143705  0.00712362  0.74922131  1
  Ir  Ir127  1  0.50154497  0.83504415  0.49848609  1
  Ir  Ir128  1  0.33088224  0.33508239  0.50452306  1
  Ir  Ir129  1  0.50044873  0.17108999  0.75236467  1
  Ir  Ir130  1  0.16996707  0.16452397  0.00411795  1
  Ir  Ir131  1  0.66772309  0.00296407  0.50232913  1
  Ir  Ir132  1  0.66468433  0.33538162  0.24926482  1
  Ir  Ir133  1  0.82824669  0.16840037  0.75105325  1
  Ir  Ir134  1  0.17185466  0.49633738  0.50273317  1
  Ir  Ir135  1  0.33858861  0.66322591  0.25447582  1
  Ir  Ir136  1  0.83550999  0.50085489  0.00174860  1
  Ir  Ir137  1  0.17354143  0.16917615  0.50207736  1
  Ir  Ir138  1  0.33742030  0.00587849  0.00300267  1
  Ir  Ir139  1  0.16215986  0.83247709  0.75681575  1
  Ir  Ir140  1  0.33965205  0.33480742  0.74699122  1
  Ir  Ir141  1  0.83298921  0.49890787  0.25156453  1
  Ir  Ir142  1  0.49649569  0.49607594  -0.00158367  1
  Ir  Ir143  1  0.82681347  0.16662336  0.50383530  1
  O  O144  1  0.30540467  0.32708578  0.12792683  1
  O  O145  1  0.30097255  0.32588894  0.62619646  1
  O  O146  1  0.32008983  0.65216179  0.13100943  1
  O  O147  1  0.31119980  0.64706222  0.61945761  1
  O  O148  1  0.30491647  1.00170172  0.12459031  1
  O  O149  1  0.31527883  0.99729941  0.62006680  1
  O  O150  1  0.63900264  0.32809205  0.12656124  1
  O  O151  1  0.63490591  0.32590526  0.62534298  1
  O  O152  1  0.65474530  0.66644840  0.12350776  1
  O  O153  1  0.62603777  0.64785022  0.62440265  1
  O  O154  1  0.63345733  0.99487044  0.12376095  1
  O  O155  1  0.64275352  0.99035021  0.62523740  1
  O  O156  1  0.98297136  0.32271603  0.11974807  1
  O  O157  1  0.98630100  0.33457038  0.62810064  1
  O  O158  1  0.95916438  0.65857680  0.12587152  1
  O  O159  1  0.98099162  0.64816867  0.63283258  1
  O  O160  1  0.95888479  0.98577943  0.12287142  1
  O  O161  1  0.98281255  1.00418531  0.63308017  1
  O  O162  1  0.20219513  0.15395558  0.12070640  1
  O  O163  1  0.19774963  0.17263473  0.62332028  1
  O  O164  1  0.20468409  0.49401169  0.11694331  1
  O  O165  1  0.20478561  0.48535555  0.62184499  1
  O  O166  1  0.19257296  0.82862773  0.12221969  1
  O  O167  1  0.19705597  0.83159006  0.63846951  1
  O  O168  1  0.53130394  0.15515244  0.11678553  1
  O  O169  1  0.53107561  0.16934967  0.63393259  1
  O  O170  1  0.52424879  0.48788964  0.12090244  1
  O  O171  1  0.53015413  0.48415927  0.63113640  1
  O  O172  1  0.51389670  0.83636321  0.13471524  1
  O  O173  1  0.53348280  0.82489876  0.61840208  1
  O  O174  1  0.86534379  0.15925168  0.11695113  1
  O  O175  1  0.84936523  0.16716465  0.62821270  1
  O  O176  1  0.85448073  0.49589095  0.12791220  1
  O  O177  1  0.86742778  0.49604255  0.61775431  1
  O  O178  1  0.86765897  0.81739945  0.12577344  1
  O  O179  1  0.84864028  0.83541488  0.62549987  1
  O  O180  1  0.15203146  0.16918500  0.38054830  1
  O  O181  1  0.13676835  0.17103809  0.88473651  1
  O  O182  1  0.13883382  0.49993619  0.38347082  1
  O  O183  1  0.15196349  0.50245898  0.87702420  1
  O  O184  1  0.15685975  0.83128170  0.37422197  1
  O  O185  1  0.12704010  0.83885133  0.87292158  1
  O  O186  1  0.48285056  0.17308789  0.37755908  1
  O  O187  1  0.47546522  0.18245918  0.87526687  1
  O  O188  1  0.46875362  0.49544590  0.36808320  1
  O  O189  1  0.46257118  0.50357221  0.87398305  1
  O  O190  1  0.47781431  0.83779918  0.37657020  1
  O  O191  1  0.46214940  0.85286781  0.87272649  1
  O  O192  1  0.81144183  0.16801225  0.38357952  1
  O  O193  1  0.80008840  0.16978349  0.87461455  1
  O  O194  1  0.80868677  0.50736276  0.37461359  1
  O  O195  1  0.81724360  0.50781284  0.87910099  1
  O  O196  1  0.79591154  0.84861237  0.36536788  1
  O  O197  1  0.81393645  0.83627056  0.88163279  1
  O  O198  1  0.01375883  0.00848882  0.37275635  1
  O  O199  1  0.01392117  0.01089729  0.87483710  1
  O  O200  1  0.02099543  0.34864556  0.37578751  1
  O  O201  1  0.01926722  0.32928406  0.86784889  1
  O  O202  1  0.01710351  0.65561281  0.37503631  1
  O  O203  1  0.02873788  0.67679314  0.87407968  1
  O  O204  1  0.35618914  0.00391904  0.37169185  1
  O  O205  1  0.37009290  0.00836578  0.88334552  1
  O  O206  1  0.35733086  0.34516820  0.37713745  1
  O  O207  1  0.37213998  0.34499592  0.86861494  1
  O  O208  1  0.35548258  0.67029838  0.37815826  1
  O  O209  1  0.37151201  0.68048254  0.86981240  1
  O  O210  1  0.69872525  0.00867400  0.38184293  1
  O  O211  1  0.68219843  0.01796466  0.87064528  1
  O  O212  1  0.68599115  0.33363979  0.37748471  1
  O  O213  1  0.68219921  0.32926035  0.86868474  1
  O  O214  1  0.69954127  0.67861791  0.37524240  1
  O  O215  1  0.70153161  0.66357548  0.87178112  1
  O  O216  1  0.07534096  0.09940494  0.02753625  1
  O  O217  1  0.08223936  0.10101088  0.51597473  1
  O  O218  1  0.09207405  0.41954392  0.01846048  1
  O  O219  1  0.08362885  0.42506705  0.53230411  1
  O  O220  1  0.06180066  0.76918813  0.01981345  1
  O  O221  1  0.07614281  0.75339968  0.51967167  1
  O  O222  1  0.40317317  0.10240257  0.02965432  1
  O  O223  1  0.39855858  0.09767539  0.52522001  1
  O  O224  1  0.40815819  0.42800781  0.03068448  1
  O  O225  1  0.40161361  0.42665447  0.52604639  1
  O  O226  1  0.39772901  0.76861178  0.01012328  1
  O  O227  1  0.40645084  0.76200831  0.52673407  1
  O  O228  1  0.73940301  0.09809313  0.02406260  1
  O  O229  1  0.73094375  0.09886661  0.52863741  1
  O  O230  1  0.74595412  0.42613541  0.01216101  1
  O  O231  1  0.73723027  0.42916017  0.52311323  1
  O  O232  1  0.74850160  0.76164556  0.01949734  1
  O  O233  1  0.72564028  0.76982542  0.52096972  1
  O  O234  1  0.10319654  0.25608631  0.03009538  1
  O  O235  1  0.10600156  0.26224872  0.52135569  1
  O  O236  1  0.10097798  0.58966235  0.00818733  1
  O  O237  1  0.09366009  0.57627453  0.52938614  1
  O  O238  1  0.09815369  0.93513784  0.02765359  1
  O  O239  1  0.08979072  0.92468185  0.51622660  1
  O  O240  1  0.43743992  0.26153080  0.02559546  1
  O  O241  1  0.42115558  0.26500958  0.53503124  1
  O  O242  1  0.42695549  0.58647851  0.01593108  1
  O  O243  1  0.42691658  0.59532800  0.52562541  1
  O  O244  1  0.43307571  0.94601229  0.02248935  1
  O  O245  1  0.42408453  0.92557051  0.52257174  1
  O  O246  1  0.75766980  0.25003818  0.02256519  1
  O  O247  1  0.75290523  0.25666269  0.52418033  1
  O  O248  1  0.77042719  0.59565218  0.01783244  1
  O  O249  1  0.76175050  0.58434587  0.51891223  1
  O  O250  1  0.77197180  0.92769041  0.02459701  1
  O  O251  1  0.75263070  0.93089709  0.51823876  1
  O  O252  1  0.24075949  0.06819793  0.25987760  1
  O  O253  1  0.24238636  0.07619679  0.76545587  1
  O  O254  1  0.25029611  0.40929705  0.26830465  1
  O  O255  1  0.25156468  0.40616282  0.77135251  1
  O  O256  1  0.24862815  0.73199979  0.26310418  1
  O  O257  1  0.23059152  0.74039945  0.78197787  1
  O  O258  1  0.56999069  0.07261273  0.26027532  1
  O  O259  1  0.56706692  0.07821086  0.78004712  1
  O  O260  1  0.56497655  0.40319771  0.25809412  1
  O  O261  1  0.56166524  0.39430662  0.77073679  1
  O  O262  1  0.57537447  0.74806117  0.27259058  1
  O  O263  1  0.55843081  0.73057491  0.77422501  1
  O  O264  1  0.88895820  0.06032657  0.26550606  1
  O  O265  1  0.90767672  0.08085584  0.77642833  1
  O  O266  1  0.90896583  0.41480978  0.26891729  1
  O  O267  1  0.91033713  0.40417151  0.76305675  1
  O  O268  1  0.89051856  0.73595646  0.27463459  1
  O  O269  1  0.90873631  0.73607987  0.77815454  1
  O  O270  1  0.26892099  0.24142933  0.26017361  1
  O  O271  1  0.26898545  0.24559358  0.76454989  1
  O  O272  1  0.27432932  0.56778669  0.27188720  1
  O  O273  1  0.26225922  0.57323001  0.77553226  1
  O  O274  1  0.26482513  0.91409764  0.26343727  1
  O  O275  1  0.25622107  0.89825923  0.77913094  1
  O  O276  1  0.59497973  0.24582811  0.25569479  1
  O  O277  1  0.59554308  0.23525113  0.77716742  1
  O  O278  1  0.58770335  0.56961831  0.26274563  1
  O  O279  1  0.58153610  0.56625091  0.77616673  1
  O  O280  1  0.59509456  0.90032570  0.27736101  1
  O  O281  1  0.58747840  0.91837371  0.76743249  1
  O  O282  1  0.92938649  0.23666971  0.25766890  1
  O  O283  1  0.92919474  0.23559307  0.77207468  1
  O  O284  1  0.92183877  0.56714599  0.27851687  1
  O  O285  1  0.92324344  0.58199947  0.77195365  1
  O  O286  1  0.92089402  0.89828292  0.26798809  1
  O  O287  1  0.93142520  0.90631829  0.77316608  1
  O  O288  1  0.26726160  0.23892944  0.48816587  1
  O  O289  1  0.26149122  0.23659576  0.98992749  1
  O  O290  1  0.27079612  0.56343190  0.47740177  1
  O  O291  1  0.26214301  0.57234170  0.96894780  1
  O  O292  1  0.26616863  0.91013064  0.49337500  1
  O  O293  1  0.27387465  0.91035424  0.97533827  1
  O  O294  1  0.59457799  0.24421401  0.49303119  1
  O  O295  1  0.59477543  0.23148348  0.97582793  1
  O  O296  1  0.59249903  0.57163929  0.48110114  1
  O  O297  1  0.58494477  0.56823565  0.97604940  1
  O  O298  1  0.60134208  0.90314755  0.47854864  1
  O  O299  1  0.58872845  0.91066355  0.97297431  1
  O  O300  1  0.91754709  0.23940820  0.49050454  1
  O  O301  1  0.92865215  0.23094185  0.97600990  1
  O  O302  1  0.92711377  0.56364550  0.47652936  1
  O  O303  1  0.92244741  0.57447585  0.97782727  1
  O  O304  1  0.91528541  0.91399389  0.47503326  1
  O  O305  1  0.93325109  0.89292072  0.98160887  1
  O  O306  1  0.24207080  0.07408280  0.48269268  1
  O  O307  1  0.23875909  0.06948552  0.98522204  1
  O  O308  1  0.24533390  0.41055887  0.47498573  1
  O  O309  1  0.25071774  0.41427802  0.97525468  1
  O  O310  1  0.24819418  0.73719026  0.49395722  1
  O  O311  1  0.23463095  0.73674512  0.96553830  1
  O  O312  1  0.57877334  0.07315391  0.49120269  1
  O  O313  1  0.56459723  0.07431349  0.97413578  1
  O  O314  1  0.57490872  0.40221658  0.49220257  1
  O  O315  1  0.56150377  0.39864772  0.98135301  1
  O  O316  1  0.56878090  0.74544932  0.47817824  1
  O  O317  1  0.56682108  0.73409594  0.97191593  1
  O  O318  1  0.89489994  0.07588021  0.48484835  1
  O  O319  1  0.90444125  0.07919587  0.97888556  1
  O  O320  1  0.91201583  0.41515640  0.47904248  1
  O  O321  1  0.90860109  0.41308269  0.98625067  1
  O  O322  1  0.89545604  0.72906217  0.47731980  1
  O  O323  1  0.89934174  0.73733508  0.97365152  1
  O  O324  1  0.10080226  0.26145112  0.21956015  1
  O  O325  1  0.09692997  0.26665025  0.72840218  1
  O  O326  1  0.09324052  0.59223732  0.23029425  1
  O  O327  1  0.08836136  0.59031788  0.74033229  1
  O  O328  1  0.09246136  0.93117288  0.21777919  1
  O  O329  1  0.09117607  0.92729459  0.73160537  1
  O  O330  1  0.42576519  0.26450022  0.21742608  1
  O  O331  1  0.43426270  0.26653890  0.72279140  1
  O  O332  1  0.42742401  0.58684680  0.22704963  1
  O  O333  1  0.43234616  0.58744966  0.72113685  1
  O  O334  1  0.43288865  0.93682510  0.23185882  1
  O  O335  1  0.41491120  0.92022370  0.72239544  1
  O  O336  1  0.75075666  0.25961639  0.23027068  1
  O  O337  1  0.75301129  0.25771935  0.72389961  1
  O  O338  1  0.76985368  0.59490289  0.23416883  1
  O  O339  1  0.74761821  0.57970735  0.71976119  1
  O  O340  1  0.76932192  0.93032019  0.22250457  1
  O  O341  1  0.74722429  0.93068509  0.73657077  1
  O  O342  1  0.07027541  0.09812416  0.21531852  1
  O  O343  1  0.06866617  0.09451309  0.74508375  1
  O  O344  1  0.08724610  0.41978983  0.22293876  1
  O  O345  1  0.07275074  0.42399731  0.72348478  1
  O  O346  1  0.06362253  0.76758997  0.22557528  1
  O  O347  1  0.06885876  0.76036280  0.73561628  1
  O  O348  1  0.40093229  0.09426994  0.22039484  1
  O  O349  1  0.40624267  0.10687582  0.72822652  1
  O  O350  1  0.40326964  0.42811569  0.22126316  1
  O  O351  1  0.40604239  0.42708256  0.71744812  1
  O  O352  1  0.40941043  0.75748063  0.23688811  1
  O  O353  1  0.40149248  0.76032595  0.70757910  1
  O  O354  1  0.73632649  0.09740301  0.21452401  1
  O  O355  1  0.72747651  0.10510801  0.73183195  1
  O  O356  1  0.73957687  0.42545011  0.23481293  1
  O  O357  1  0.72888009  0.42216069  0.72285714  1
  O  O358  1  0.74414473  0.76410963  0.22932139  1
  O  O359  1  0.72898946  0.76565498  0.72319920  1
