# generated using pymatgen
data_BaLaInIrO6
_symmetry_space_group_name_H-M   'P 1'
_cell_length_a   17.50551519
_cell_length_b   17.53889130
_cell_length_c   16.48221912
_cell_angle_alpha   90.02529399
_cell_angle_beta   89.97281774
_cell_angle_gamma   89.99802027
_symmetry_Int_Tables_number   1
_chemical_formula_structural   BaLaInIrO6
_chemical_formula_sum   'Ba36 La36 In36 Ir36 O216'
_cell_volume   5060.49063053
_cell_formula_units_Z   36
loop_
 _symmetry_equiv_pos_site_id
 _symmetry_equiv_pos_as_xyz
  1  'x, y, z'
loop_
 _atom_site_type_symbol
 _atom_site_label
 _atom_site_symmetry_multiplicity
 _atom_site_fract_x
 _atom_site_fract_y
 _atom_site_fract_z
 _atom_site_occupancy
  Ba  Ba0  1  0.16926226  0.99257447  0.37542402  1
  Ba  Ba1  1  0.83120901  0.00922939  0.12511409  1
  Ba  Ba2  1  0.33661532  0.83695446  0.12081433  1
  Ba  Ba3  1  0.16845282  0.32353589  0.37593974  1
  Ba  Ba4  1  0.17032952  0.65963615  0.87492747  1
  Ba  Ba5  1  0.67032945  0.84154850  0.12518744  1
  Ba  Ba6  1  0.16259559  0.67521884  0.13156146  1
  Ba  Ba7  1  0.83711996  0.32339446  0.87125338  1
  Ba  Ba8  1  0.16931127  0.33120104  0.87150614  1
  Ba  Ba9  1  0.16696751  0.67438439  0.62910874  1
  Ba  Ba10  1  0.33592026  0.15899675  0.87052107  1
  Ba  Ba11  1  0.50057588  0.99395936  0.37532086  1
  Ba  Ba12  1  0.33322472  0.49124316  0.37525413  1
  Ba  Ba13  1  0.33348506  0.50932181  0.62799656  1
  Ba  Ba14  1  0.83455412  0.34370381  0.62196255  1
  Ba  Ba15  1  0.33599468  0.84231889  0.63094934  1
  Ba  Ba16  1  0.83296707  0.32086538  0.37603388  1
  Ba  Ba17  1  0.66439724  0.49488849  0.36962965  1
  Ba  Ba18  1  0.00072220  0.15834420  0.37804360  1
  Ba  Ba19  1  0.33227891  0.50423303  0.12767041  1
  Ba  Ba20  1  0.83328207  0.99101318  0.87359610  1
  Ba  Ba21  1  0.50367367  0.32729753  0.37140892  1
  Ba  Ba22  1  0.82737564  0.65682244  0.37217555  1
  Ba  Ba23  1  0.33396593  0.17155459  0.12364592  1
  Ba  Ba24  1  0.66775777  0.84385436  0.62873335  1
  Ba  Ba25  1  0.49715376  0.67392730  0.12760211  1
  Ba  Ba26  1  0.82812350  0.67572993  0.12630671  1
  Ba  Ba27  1  1.00088747  0.84053666  0.12485227  1
  Ba  Ba28  1  0.49907106  0.65809899  0.87432288  1
  Ba  Ba29  1  1.00078005  0.50584629  0.62183417  1
  Ba  Ba30  1  0.33541144  0.18027602  0.62582914  1
  Ba  Ba31  1  0.66374538  0.82522067  0.37418405  1
  Ba  Ba32  1  0.66778258  0.51064173  0.12632676  1
  Ba  Ba33  1  0.50043389  0.00619819  0.12711462  1
  Ba  Ba34  1  0.50010875  0.31950374  0.87174687  1
  Ba  Ba35  1  1.00559463  0.84092052  0.62584645  1
  La  La36  1  0.82944520  0.67540816  0.62066111  1
  La  La37  1  0.49677895  0.34471947  0.12212584  1
  La  La38  1  0.48927822  0.68091746  0.62308124  1
  La  La39  1  0.66332145  0.15356132  0.87542337  1
  La  La40  1  -0.00966299  0.48114236  0.37495720  1
  La  La41  1  0.16141313  0.35002883  0.62041450  1
  La  La42  1  0.49502412  0.01744872  0.62524146  1
  La  La43  1  0.16625576  0.65270676  0.38285627  1
  La  La44  1  0.49600123  0.34917224  0.62531252  1
  La  La45  1  0.16159203  0.01300529  0.12250331  1
  La  La46  1  0.82965555  0.34927426  0.12671881  1
  La  La47  1  0.00227100  0.81495771  0.87403385  1
  La  La48  1  1.00326032  0.51337096  0.12758322  1
  La  La49  1  0.50096889  0.65633738  0.36696905  1
  La  La50  1  0.33301223  0.81991878  0.37481047  1
  La  La51  1  0.66483546  0.15452286  0.37524191  1
  La  La52  1  0.65932353  0.48298951  0.87724488  1
  La  La53  1  0.66590993  0.81898792  0.88072743  1
  La  La54  1  0.32695514  0.14998903  0.37470415  1
  La  La55  1  0.17443202  0.98593118  0.87156044  1
  La  La56  1  0.32907580  0.48965371  0.87734537  1
  La  La57  1  0.15999220  0.35032841  0.12934280  1
  La  La58  1  0.33207370  0.81646447  0.87696391  1
  La  La59  1  0.66882155  0.51328364  0.62189380  1
  La  La60  1  0.66613082  0.17794373  0.62194394  1
  La  La61  1  0.50424897  0.99101145  0.87793429  1
  La  La62  1  0.00385799  0.50127041  0.85857700  1
  La  La63  1  0.83651626  0.65652815  0.87511171  1
  La  La64  1  0.83876937  0.98854149  0.37404891  1
  La  La65  1  1.00336143  0.18053830  0.12567953  1
  La  La66  1  1.00547716  0.18250381  0.62398083  1
  La  La67  1  0.16816340  0.01231576  0.62629250  1
  La  La68  1  -0.00656240  0.14648831  0.87267367  1
  La  La69  1  0.82892223  0.02129265  0.62471908  1
  La  La70  1  0.67171134  0.18009423  0.12575162  1
  La  La71  1  -0.00615542  0.81831319  0.37376766  1
  In  In72  1  0.50018189  0.83502750  -0.00097692  1
  In  In73  1  0.83398658  0.83531681  -0.00409105  1
  In  In74  1  0.49913993  0.49790783  0.24669548  1
  In  In75  1  0.00056602  -0.00015169  0.50367527  1
  In  In76  1  0.16675290  0.16709725  0.24851544  1
  In  In77  1  0.66635630  -0.00041211  0.50157273  1
  In  In78  1  0.83454888  0.83505846  0.50260869  1
  In  In79  1  0.33374663  0.32882583  0.25043629  1
  In  In80  1  0.49858219  0.17029164  0.49604391  1
  In  In81  1  0.33318612  0.66257496  0.00100113  1
  In  In82  1  0.16683456  0.83603537  0.00148396  1
  In  In83  1  0.16589381  0.17039579  -0.00313216  1
  In  In84  1  0.50074115  0.16611897  0.00248775  1
  In  In85  1  0.50316732  0.83794021  0.75004898  1
  In  In86  1  0.66551685  0.32947153  0.74958276  1
  In  In87  1  0.16466473  0.49989114  0.00118186  1
  In  In88  1  0.83275331  0.49739036  -0.00355969  1
  In  In89  1  0.16702622  0.83506543  0.49909457  1
  In  In90  1  0.50133337  0.50140136  0.50284358  1
  In  In91  1  0.66642883  0.66381273  -0.00281358  1
  In  In92  1  0.00144646  0.00056422  0.24952024  1
  In  In93  1  -0.00050410  0.66415022  -0.00047134  1
  In  In94  1  0.33256568  0.66678759  0.49964429  1
  In  In95  1  -0.00182794  0.33475877  0.00049529  1
  In  In96  1  0.16878529  0.16738090  0.50298257  1
  In  In97  1  0.83470737  0.16705549  -0.00026142  1
  In  In98  1  0.83350844  0.83424422  0.25044391  1
  In  In99  1  0.66050101  0.66953144  0.50287495  1
  In  In100  1  0.16703049  0.16858138  0.75206726  1
  In  In101  1  0.66611852  0.33386118  0.49883265  1
  In  In102  1  0.00158534  0.33285695  0.75194765  1
  In  In103  1  0.82698843  0.50030744  0.74754007  1
  In  In104  1  -0.00119402  0.66788801  0.74533179  1
  In  In105  1  0.33201407  -0.00600684  0.24667739  1
  In  In106  1  0.32855354  0.66602217  0.25227175  1
  In  In107  1  0.83448783  0.83686733  0.74907643  1
  Ir  Ir108  1  0.83365993  0.16332613  0.74699854  1
  Ir  Ir109  1  0.66811084  0.00662964  0.24812842  1
  Ir  Ir110  1  0.66367477  0.66761868  0.25070480  1
  Ir  Ir111  1  0.00114233  0.00022573  0.75060598  1
  Ir  Ir112  1  0.49659444  0.83445579  0.49905125  1
  Ir  Ir113  1  0.00098753  0.66244636  0.25595217  1
  Ir  Ir114  1  0.83525365  0.50261583  0.49860432  1
  Ir  Ir115  1  0.66690204  0.00400642  -0.00148332  1
  Ir  Ir116  1  0.16380641  0.83207341  0.25390110  1
  Ir  Ir117  1  0.83517674  0.49840815  0.25338606  1
  Ir  Ir118  1  0.33310717  0.33392301  -0.00103307  1
  Ir  Ir119  1  0.66596867  0.33078985  0.00280637  1
  Ir  Ir120  1  -0.00586338  0.33180291  0.25030039  1
  Ir  Ir121  1  0.66451038  0.66549018  0.74849668  1
  Ir  Ir122  1  0.16972509  0.83903532  0.75091259  1
  Ir  Ir123  1  0.33713182  0.33742655  0.74899357  1
  Ir  Ir124  1  0.66611363  0.00444834  0.75113627  1
  Ir  Ir125  1  0.50098432  0.83647816  0.25293262  1
  Ir  Ir126  1  0.83277606  0.16719984  0.50197248  1
  Ir  Ir127  1  0.50454379  0.16735094  0.24902107  1
  Ir  Ir128  1  0.83195709  0.16769027  0.25187727  1
  Ir  Ir129  1  0.33697101  0.00029202  0.75035044  1
  Ir  Ir130  1  -0.00015366  0.66257976  0.49596324  1
  Ir  Ir131  1  0.50268609  0.16225828  0.75025633  1
  Ir  Ir132  1  0.15796796  0.49780035  0.25605007  1
  Ir  Ir133  1  0.16228013  0.49792841  0.49850125  1
  Ir  Ir134  1  0.33274048  0.33531220  0.50412113  1
  Ir  Ir135  1  0.50165149  0.50067622  0.75380589  1
  Ir  Ir136  1  0.00427208  0.00112400  -0.00414870  1
  Ir  Ir137  1  0.33715868  -0.00269320  0.50340525  1
  Ir  Ir138  1  0.33298360  -0.00011084  -0.00734562  1
  Ir  Ir139  1  0.49907634  0.49268572  -0.00512032  1
  Ir  Ir140  1  0.17075692  0.50043970  0.74684590  1
  Ir  Ir141  1  0.33541772  0.66603561  0.74979208  1
  Ir  Ir142  1  -0.00116702  0.33300879  0.49870026  1
  Ir  Ir143  1  0.66905300  0.32993029  0.24600102  1
  O  O144  1  0.30148158  0.32927185  0.11870854  1
  O  O145  1  0.30252643  0.33496748  0.62693202  1
  O  O146  1  0.31392721  0.66773050  0.12756485  1
  O  O147  1  0.31949661  0.67186202  0.62921214  1
  O  O148  1  0.30028956  0.99403870  0.11277869  1
  O  O149  1  0.30584525  0.99545097  0.62800591  1
  O  O150  1  0.63578028  0.31824168  0.12366872  1
  O  O151  1  0.63117107  0.31313555  0.62666585  1
  O  O152  1  0.65052603  0.67109826  0.12963612  1
  O  O153  1  0.62529583  0.66043707  0.63365626  1
  O  O154  1  0.64675535  0.99960785  0.12229703  1
  O  O155  1  0.63385143  1.00243556  0.63352063  1
  O  O156  1  0.96401342  0.31908534  0.13312429  1
  O  O157  1  0.98213142  0.32749240  0.61971211  1
  O  O158  1  0.97763599  0.65404929  0.13442243  1
  O  O159  1  0.96861253  0.66201878  0.61679539  1
  O  O160  1  0.98249220  0.99426352  0.11514554  1
  O  O161  1  0.96386615  0.99315592  0.63385940  1
  O  O162  1  0.18647633  0.14971298  0.12111179  1
  O  O163  1  0.18880736  0.15039827  0.62820578  1
  O  O164  1  0.18205923  0.49304685  0.13642519  1
  O  O165  1  0.18855864  0.48996769  0.62200017  1
  O  O166  1  0.18571085  0.82997561  0.13397493  1
  O  O167  1  0.18722208  0.83067521  0.63117658  1
  O  O168  1  0.53615327  0.16279154  0.12951010  1
  O  O169  1  0.52831486  0.15709277  0.62946325  1
  O  O170  1  0.51897090  0.48463382  0.11539882  1
  O  O171  1  0.53108895  0.49257619  0.63617397  1
  O  O172  1  0.51854567  0.83301171  0.13171061  1
  O  O173  1  0.51689661  0.82006110  0.62101299  1
  O  O174  1  0.86350097  0.16527844  0.13158388  1
  O  O175  1  0.86743057  0.15896894  0.62402406  1
  O  O176  1  0.86401973  0.49477881  0.13332122  1
  O  O177  1  0.85221774  0.50797638  0.61657226  1
  O  O178  1  0.84783793  0.83549933  0.12400881  1
  O  O179  1  0.85633235  0.81319985  0.62686557  1
  O  O180  1  0.15374227  0.16300649  0.37701223  1
  O  O181  1  0.12913569  0.17533991  0.87376325  1
  O  O182  1  0.12781407  0.50568826  0.37826831  1
  O  O183  1  0.14189135  0.49890595  0.86822620  1
  O  O184  1  0.13067132  0.83967004  0.37099739  1
  O  O185  1  0.13890953  0.84974607  0.86901770  1
  O  O186  1  0.46614338  0.17255431  0.36808131  1
  O  O187  1  0.48561249  0.16247578  0.87095494  1
  O  O188  1  0.48909155  0.51297732  0.37524242  1
  O  O189  1  0.46733752  0.50001171  0.87318770  1
  O  O190  1  0.46992125  0.84004327  0.37701258  1
  O  O191  1  0.46822968  0.85290463  0.87163897  1
  O  O192  1  0.80009678  0.16799152  0.37841415  1
  O  O193  1  0.80172338  0.16659045  0.86837331  1
  O  O194  1  0.81306675  0.49757172  0.37786312  1
  O  O195  1  0.79310974  0.50728694  0.87184209  1
  O  O196  1  0.81300405  0.84932396  0.37642191  1
  O  O197  1  0.79822739  0.84121590  0.86973034  1
  O  O198  1  0.01863600  0.00775969  0.37649100  1
  O  O199  1  0.03621548  0.01262535  0.87293576  1
  O  O200  1  0.01964837  0.34137397  0.37386963  1
  O  O201  1  0.01908390  0.36157742  0.87639067  1
  O  O202  1  0.03200606  0.67175419  0.37602463  1
  O  O203  1  0.02237372  0.66758910  0.87119408  1
  O  O204  1  0.35155490  0.00983946  0.38206029  1
  O  O205  1  0.36845178  0.00483420  0.87101746  1
  O  O206  1  0.35252452  0.33776114  0.38409048  1
  O  O207  1  0.35737562  0.35095433  0.87423351  1
  O  O208  1  0.36420496  0.67580129  0.37547961  1
  O  O209  1  0.34896386  0.66653509  0.86849931  1
  O  O210  1  0.69752033  0.01437523  0.36956712  1
  O  O211  1  0.68838583  0.01932493  0.87552309  1
  O  O212  1  0.68500458  0.33758880  0.36650910  1
  O  O213  1  0.68727304  0.33975869  0.88064414  1
  O  O214  1  0.67154417  0.66224120  0.37167329  1
  O  O215  1  0.69987634  0.67000128  0.86392338  1
  O  O216  1  0.06285634  0.09760449  0.02009406  1
  O  O217  1  0.06864541  0.09730952  0.53278155  1
  O  O218  1  0.07285207  0.42558441  0.03869417  1
  O  O219  1  0.07306003  0.42204074  0.51875402  1
  O  O220  1  0.06818737  0.76686078  0.00401646  1
  O  O221  1  0.07025900  0.75248637  0.51187535  1
  O  O222  1  0.40377667  0.08917983  0.01348866  1
  O  O223  1  0.40774004  0.08831496  0.52047187  1
  O  O224  1  0.40666452  0.42169595  0.01987060  1
  O  O225  1  0.40228092  0.42468691  0.52208611  1
  O  O226  1  0.40869023  0.75758034  0.00115589  1
  O  O227  1  0.40413420  0.77009686  0.51155570  1
  O  O228  1  0.73096209  0.10115313  0.01905173  1
  O  O229  1  0.73965279  0.10242673  0.52711184  1
  O  O230  1  0.73233478  0.42091625  0.02112195  1
  O  O231  1  0.73985735  0.43510786  0.52206910  1
  O  O232  1  0.73536543  0.76455174  0.00215277  1
  O  O233  1  0.74154587  0.75494415  0.51959288  1
  O  O234  1  0.09367932  0.26409180  0.03672516  1
  O  O235  1  0.09192799  0.26452427  0.52371195  1
  O  O236  1  0.08998409  0.58934887  0.02594273  1
  O  O237  1  0.09578510  0.59420670  0.51499893  1
  O  O238  1  0.10545541  0.94398335  0.01257142  1
  O  O239  1  0.10441444  0.93488974  0.52800663  1
  O  O240  1  0.42872908  0.26589048  0.02045300  1
  O  O241  1  0.42938957  0.27115492  0.52587528  1
  O  O242  1  0.43139360  0.58214574  0.01309680  1
  O  O243  1  0.43295236  0.60098210  0.52191402  1
  O  O244  1  0.42365022  0.93308685  0.01247593  1
  O  O245  1  0.43491044  0.93341196  0.52572529  1
  O  O246  1  0.75931601  0.26455728  0.02983894  1
  O  O247  1  0.76160943  0.25611064  0.52191413  1
  O  O248  1  0.76342389  0.59414864  0.01267827  1
  O  O249  1  0.76692336  0.59489910  0.52037651  1
  O  O250  1  0.75623933  0.93564915  0.01078570  1
  O  O251  1  0.76763790  0.93866156  0.52576067  1
  O  O252  1  0.24576783  0.07256627  0.26380164  1
  O  O253  1  0.23985267  0.06479235  0.77123133  1
  O  O254  1  0.23220636  0.40978281  0.26452284  1
  O  O255  1  0.25354122  0.41820460  0.77414114  1
  O  O256  1  0.23023068  0.73973243  0.28396780  1
  O  O257  1  0.24695178  0.74829189  0.77593430  1
  O  O258  1  0.57971423  0.08062153  0.27554999  1
  O  O259  1  0.56820491  0.06723773  0.77617428  1
  O  O260  1  0.58024174  0.40241411  0.25435231  1
  O  O261  1  0.57208201  0.41182991  0.77373527  1
  O  O262  1  0.56804882  0.73755492  0.27363063  1
  O  O263  1  0.58483916  0.74616699  0.77667805  1
  O  O264  1  0.89398983  0.07302025  0.27474687  1
  O  O265  1  0.90869453  0.07166275  0.77124349  1
  O  O266  1  0.90472859  0.40625719  0.27360422  1
  O  O267  1  0.91379182  0.41573416  0.76202643  1
  O  O268  1  0.91667240  0.73889771  0.27462056  1
  O  O269  1  0.90695193  0.74267658  0.78167899  1
  O  O270  1  0.26902827  0.23262204  0.27400433  1
  O  O271  1  0.26319939  0.25032773  0.76676908  1
  O  O272  1  0.24103814  0.57554971  0.28126238  1
  O  O273  1  0.26311129  0.57260166  0.77157274  1
  O  O274  1  0.26039765  0.89343522  0.27549033  1
  O  O275  1  0.26732041  0.90775385  0.77895327  1
  O  O276  1  0.60308374  0.23359687  0.27051679  1
  O  O277  1  0.59919988  0.22532485  0.77139949  1
  O  O278  1  0.58725430  0.58343833  0.25816680  1
  O  O279  1  0.59699957  0.56848014  0.77777614  1
  O  O280  1  0.59673890  0.91182797  0.26746598  1
  O  O281  1  0.60214098  0.91145579  0.78026689  1
  O  O282  1  0.92759652  0.23445959  0.27009121  1
  O  O283  1  0.93082100  0.22839240  0.76945328  1
  O  O284  1  0.93286822  0.56565853  0.27711442  1
  O  O285  1  0.91626613  0.57980150  0.77596048  1
  O  O286  1  0.93046142  0.90584144  0.27545541  1
  O  O287  1  0.94198518  0.90496527  0.77650460  1
  O  O288  1  0.27119400  0.23848460  0.48192918  1
  O  O289  1  0.26524873  0.24511518  0.97788358  1
  O  O290  1  0.25006694  0.57305015  0.47954993  1
  O  O291  1  0.26387205  0.56559928  0.97831219  1
  O  O292  1  0.27413655  0.90281805  0.47923550  1
  O  O293  1  0.26624325  0.90927383  0.96513297  1
  O  O294  1  0.60238858  0.23089918  0.47601207  1
  O  O295  1  0.60503370  0.23359148  0.98136404  1
  O  O296  1  0.60502907  0.56460159  0.49958256  1
  O  O297  1  0.59246224  0.56078096  0.97387021  1
  O  O298  1  0.58942115  0.90137526  0.48881624  1
  O  O299  1  0.59798467  0.91186496  0.97175054  1
  O  O300  1  0.92975661  0.23662394  0.48894754  1
  O  O301  1  0.93534632  0.22962625  0.97268746  1
  O  O302  1  0.93295688  0.56750104  0.47264408  1
  O  O303  1  0.93441170  0.56020305  0.96839990  1
  O  O304  1  0.93517412  0.90033053  0.47620801  1
  O  O305  1  0.94328791  0.90416229  0.97060956  1
  O  O306  1  0.24800034  0.06804542  0.48929358  1
  O  O307  1  0.23845584  0.06610839  0.97169106  1
  O  O308  1  0.23220260  0.39998867  0.49034639  1
  O  O309  1  0.24375851  0.40568525  0.98523684  1
  O  O310  1  0.23833599  0.74036159  0.47053127  1
  O  O311  1  0.24681384  0.74937300  0.97763374  1
  O  O312  1  0.57747522  0.07683926  0.48245328  1
  O  O313  1  0.57403059  0.06966873  0.97679361  1
  O  O314  1  0.56523074  0.39887486  0.49808364  1
  O  O315  1  0.57191625  0.40018251  0.97923820  1
  O  O316  1  0.55468230  0.73459155  0.47952922  1
  O  O317  1  0.57914642  0.74550722  0.97404984  1
  O  O318  1  0.89231472  0.06900787  0.48406767  1
  O  O319  1  0.91168768  0.06865134  0.97890770  1
  O  O320  1  0.90907848  0.40967580  0.47705593  1
  O  O321  1  0.89181432  0.39310344  1.00029923  1
  O  O322  1  0.91297317  0.73368471  0.47611701  1
  O  O323  1  0.90212054  0.73432577  0.97201305  1
  O  O324  1  0.08980540  0.26680304  0.22450637  1
  O  O325  1  0.09421328  0.26128727  0.71650719  1
  O  O326  1  0.08460283  0.58463194  0.23216813  1
  O  O327  1  0.08977480  0.58149287  0.73366945  1
  O  O328  1  0.10475928  0.92979281  0.22619004  1
  O  O329  1  0.10304183  0.93826637  0.72966359  1
  O  O330  1  0.44015753  0.25842569  0.22150841  1
  O  O331  1  0.43403871  0.26229174  0.72508294  1
  O  O332  1  0.42136710  0.58974625  0.24001544  1
  O  O333  1  0.43075785  0.59621484  0.72550234  1
  O  O334  1  0.42942371  0.92445222  0.23662904  1
  O  O335  1  0.43410488  0.93938042  0.72596293  1
  O  O336  1  0.76272811  0.26030323  0.22215794  1
  O  O337  1  0.76170987  0.25061781  0.72478903  1
  O  O338  1  0.75874033  0.59018227  0.23441983  1
  O  O339  1  0.74969703  0.59483674  0.71212801  1
  O  O340  1  0.75742013  0.93666275  0.23973730  1
  O  O341  1  0.76206905  0.94076498  0.72356467  1
  O  O342  1  0.06753529  0.09803769  0.22026590  1
  O  O343  1  0.06330904  0.09388752  0.72561369  1
  O  O344  1  0.06332115  0.42652590  0.22616526  1
  O  O345  1  0.08857171  0.42245108  0.72694979  1
  O  O346  1  0.06843876  0.76066690  0.23798397  1
  O  O347  1  0.07931308  0.76547749  0.73996689  1
  O  O348  1  0.41504191  0.09619988  0.23567019  1
  O  O349  1  0.40951703  0.09119546  0.72388603  1
  O  O350  1  0.41323094  0.41443685  0.22930755  1
  O  O351  1  0.41552414  0.42390768  0.72479131  1
  O  O352  1  0.41037343  0.76750447  0.24443252  1
  O  O353  1  0.41169595  0.75315007  0.73844821  1
  O  O354  1  0.73335407  0.10475303  0.22821886  1
  O  O355  1  0.73494478  0.09831560  0.72087173  1
  O  O356  1  0.74540446  0.42024782  0.22186106  1
  O  O357  1  0.73129823  0.42788541  0.72344349  1
  O  O358  1  0.74034612  0.75242330  0.24388375  1
  O  O359  1  0.73972566  0.74837925  0.72462158  1
