# generated using pymatgen
data_BaLaInIrO6
_symmetry_space_group_name_H-M   'P 1'
_cell_length_a   17.52521090
_cell_length_b   17.55668360
_cell_length_c   16.49013830
_cell_angle_alpha   89.99765236
_cell_angle_beta   89.99136245
_cell_angle_gamma   89.92653975
_symmetry_Int_Tables_number   1
_chemical_formula_structural   BaLaInIrO6
_chemical_formula_sum   'Ba36 La36 In36 Ir36 O216'
_cell_volume   5073.75709227
_cell_formula_units_Z   36
loop_
 _symmetry_equiv_pos_site_id
 _symmetry_equiv_pos_as_xyz
  1  'x, y, z'
loop_
 _atom_site_type_symbol
 _atom_site_label
 _atom_site_symmetry_multiplicity
 _atom_site_fract_x
 _atom_site_fract_y
 _atom_site_fract_z
 _atom_site_occupancy
  Ba  Ba0  1  0.66704132  0.50613843  0.12481949  1
  Ba  Ba1  1  0.33807885  0.84484683  0.12400314  1
  Ba  Ba2  1  0.66590519  0.49221621  0.87239909  1
  Ba  Ba3  1  0.33319475  0.50616639  0.62498633  1
  Ba  Ba4  1  0.17334331  0.98107300  0.37033440  1
  Ba  Ba5  1  -0.00190576  0.49291616  0.87211391  1
  Ba  Ba6  1  1.00033214  0.51036073  0.62622329  1
  Ba  Ba7  1  0.67131010  0.82849018  0.87541825  1
  Ba  Ba8  1  0.49859884  0.34103400  0.62327568  1
  Ba  Ba9  1  0.66357946  0.84083934  0.12367447  1
  Ba  Ba10  1  -0.00257089  0.16096193  0.87397881  1
  Ba  Ba11  1  0.99971002  0.50863818  0.12680429  1
  Ba  Ba12  1  0.00605309  0.82905991  0.37468106  1
  Ba  Ba13  1  0.32902239  0.16275303  0.87345156  1
  Ba  Ba14  1  0.83356855  0.32390392  0.87520996  1
  Ba  Ba15  1  0.50307299  0.31377375  0.37906157  1
  Ba  Ba16  1  0.66514052  0.16269993  0.87683121  1
  Ba  Ba17  1  0.83235463  0.33716425  0.12308539  1
  Ba  Ba18  1  0.66548118  0.17616518  0.62292272  1
  Ba  Ba19  1  0.16881616  0.65835149  0.87642288  1
  Ba  Ba20  1  0.33362892  0.18422893  0.12916796  1
  Ba  Ba21  1  0.50307322  0.32644372  0.87434150  1
  Ba  Ba22  1  0.82900412  0.99837511  0.87496404  1
  Ba  Ba23  1  0.00210281  0.15814548  0.37110462  1
  Ba  Ba24  1  0.33593525  0.84293392  0.62150868  1
  Ba  Ba25  1  0.16734688  0.00570598  0.61915390  1
  Ba  Ba26  1  0.66466435  0.17499828  0.12861990  1
  Ba  Ba27  1  0.16340153  0.34139300  0.12817165  1
  Ba  Ba28  1  0.83436895  0.00670001  0.12725969  1
  Ba  Ba29  1  0.32836529  0.48763461  0.87385810  1
  Ba  Ba30  1  0.49462574  0.01020965  0.62301828  1
  Ba  Ba31  1  0.16743822  0.32852160  0.87888984  1
  Ba  Ba32  1  0.83450089  0.00708805  0.62432492  1
  Ba  Ba33  1  0.16424443  0.68401574  0.62837634  1
  Ba  Ba34  1  0.83204642  0.67389529  0.62750761  1
  Ba  Ba35  1  0.66910574  0.84389439  0.62365583  1
  La  La36  1  0.16290782  0.01453045  0.12397361  1
  La  La37  1  0.82987719  0.32129246  0.37355987  1
  La  La38  1  0.82714267  0.34339219  0.62439944  1
  La  La39  1  0.66931034  0.50759271  0.62660557  1
  La  La40  1  1.00478771  0.18213493  0.11693349  1
  La  La41  1  1.00660781  0.84925896  0.12533328  1
  La  La42  1  0.17607878  0.31890410  0.37685263  1
  La  La43  1  -0.00613099  0.82132447  0.87305661  1
  La  La44  1  0.50412667  0.65523420  0.87464192  1
  La  La45  1  0.34221503  0.18260799  0.62037032  1
  La  La46  1  0.16912074  0.65663161  0.38174396  1
  La  La47  1  0.32470155  0.81271820  0.37413267  1
  La  La48  1  0.50607165  0.64899852  0.37120887  1
  La  La49  1  0.65933237  0.47992543  0.37566240  1
  La  La50  1  0.33524416  0.50688291  0.12199610  1
  La  La51  1  0.16509794  0.68517233  0.12836749  1
  La  La52  1  0.49490902  0.34713274  0.12579574  1
  La  La53  1  0.83579486  0.98430296  0.37569522  1
  La  La54  1  0.33314455  0.48235177  0.37818807  1
  La  La55  1  0.32910952  0.81963175  0.87097627  1
  La  La56  1  0.66356925  0.15004261  0.37388951  1
  La  La57  1  0.83086667  0.67708282  0.12214788  1
  La  La58  1  0.32738688  0.14872491  0.37513075  1
  La  La59  1  0.00095600  0.48549125  0.37641983  1
  La  La60  1  0.49134356  0.02033741  0.12425039  1
  La  La61  1  1.00585983  0.84152483  0.62190564  1
  La  La62  1  0.17122735  0.33754992  0.63755959  1
  La  La63  1  0.83733530  0.65467542  0.37208887  1
  La  La64  1  0.66687734  0.81711460  0.37068116  1
  La  La65  1  0.49621412  0.67724709  0.12475434  1
  La  La66  1  0.17219548  0.98464646  0.87556750  1
  La  La67  1  0.49963908  0.98659918  0.37273212  1
  La  La68  1  0.49275027  0.67693909  0.62827495  1
  La  La69  1  0.83876430  0.65611075  0.87793028  1
  La  La70  1  0.50721356  0.98987253  0.87404290  1
  La  La71  1  1.00003078  0.18547148  0.62294073  1
  In  In72  1  0.83450728  0.83481471  0.74790533  1
  In  In73  1  -0.00110703  0.33650574  -0.00232143  1
  In  In74  1  0.49683773  0.83080844  0.25179878  1
  In  In75  1  0.82931361  0.50002724  0.25142673  1
  In  In76  1  0.16745261  0.50268733  0.00454744  1
  In  In77  1  -0.00146713  0.33344889  0.25525811  1
  In  In78  1  0.16751493  0.16692399  0.50428094  1
  In  In79  1  0.49782887  0.83478526  0.00009109  1
  In  In80  1  0.50059568  0.83126234  0.49405890  1
  In  In81  1  0.49918029  0.83444650  0.75081585  1
  In  In82  1  0.16805171  0.50293537  0.25240259  1
  In  In83  1  0.16783518  0.16456170  0.25093956  1
  In  In84  1  0.49773497  0.16690392  0.75046887  1
  In  In85  1  0.49901825  0.49932265  0.74780607  1
  In  In86  1  0.00175420  0.66977490  0.00553321  1
  In  In87  1  0.66464903  0.66393815  0.49801175  1
  In  In88  1  0.33311881  0.00263936  0.75083948  1
  In  In89  1  0.83545059  0.83500089  0.00148657  1
  In  In90  1  0.16472141  0.16207801  0.74965246  1
  In  In91  1  0.16594679  0.50171452  0.74892484  1
  In  In92  1  0.00030967  0.66917074  0.49680419  1
  In  In93  1  0.83189716  0.16604531  0.49864162  1
  In  In94  1  0.49951536  0.50122966  0.00172809  1
  In  In95  1  -0.00046522  0.00185938  0.49819500  1
  In  In96  1  0.83573134  0.82980260  0.24940652  1
  In  In97  1  0.00419624  -0.00033061  -0.00513684  1
  In  In98  1  0.66423930  -0.00329012  0.24869941  1
  In  In99  1  0.66446620  0.33239104  0.00160743  1
  In  In100  1  0.83075474  0.49898605  0.49736608  1
  In  In101  1  0.66459408  0.66697373  0.75116298  1
  In  In102  1  0.16660204  0.49968407  0.50031350  1
  In  In103  1  -0.00029950  0.67034334  0.74948587  1
  In  In104  1  0.83261108  0.16428603  0.25283104  1
  In  In105  1  0.33277264  0.66598202  0.00174079  1
  In  In106  1  0.83402391  0.16426036  0.00185837  1
  In  In107  1  0.66639989  0.00284362  0.74700495  1
  Ir  Ir108  1  0.33620115  0.00027324  0.49305130  1
  Ir  Ir109  1  -0.00502074  0.33290771  0.74278335  1
  Ir  Ir110  1  0.00262265  -0.00298708  0.24950900  1
  Ir  Ir111  1  0.33521191  -0.00039318  0.24735163  1
  Ir  Ir112  1  0.83826280  0.16671568  0.74551777  1
  Ir  Ir113  1  0.83074470  0.83345890  0.49592187  1
  Ir  Ir114  1  0.17145131  0.83025067  0.24906955  1
  Ir  Ir115  1  0.66800340  0.66557706  0.00266080  1
  Ir  Ir116  1  0.33650849  0.33224114  0.49557464  1
  Ir  Ir117  1  0.33494706  0.66093008  0.25596391  1
  Ir  Ir118  1  0.33361022  0.33098199  0.00489889  1
  Ir  Ir119  1  0.17227843  0.83336085  0.49918976  1
  Ir  Ir120  1  0.16983256  0.16472781  0.00121415  1
  Ir  Ir121  1  0.33218363  0.33189202  0.75030712  1
  Ir  Ir122  1  0.66550824  0.33356805  0.50055969  1
  Ir  Ir123  1  0.66723432  -0.00110720  0.49378680  1
  Ir  Ir124  1  0.83206358  0.49587614  0.74885545  1
  Ir  Ir125  1  0.00264573  0.66924694  0.25186584  1
  Ir  Ir126  1  0.33953116  0.66298509  0.49846961  1
  Ir  Ir127  1  0.49562895  0.16605559  0.25244041  1
  Ir  Ir128  1  0.49452757  0.16583012  0.00421174  1
  Ir  Ir129  1  0.65968834  0.00137931  0.00223811  1
  Ir  Ir130  1  0.66779254  0.66346549  0.24808465  1
  Ir  Ir131  1  0.33417429  0.00276840  0.00200260  1
  Ir  Ir132  1  0.66963383  0.33189215  0.74520779  1
  Ir  Ir133  1  0.33321237  0.66987062  0.74535689  1
  Ir  Ir134  1  0.65911537  0.33262648  0.25540905  1
  Ir  Ir135  1  0.49849085  0.50022847  0.25435630  1
  Ir  Ir136  1  0.83148043  0.50254330  -0.00063117  1
  Ir  Ir137  1  0.50030915  0.49905819  0.49607221  1
  Ir  Ir138  1  0.00494382  0.00020033  0.74765786  1
  Ir  Ir139  1  0.33742073  0.33565391  0.25384298  1
  Ir  Ir140  1  0.00032292  0.33557923  0.50029074  1
  Ir  Ir141  1  0.17095164  0.83882729  0.00180553  1
  Ir  Ir142  1  0.49828907  0.16304513  0.49300348  1
  Ir  Ir143  1  0.16560493  0.83965931  0.75393737  1
  O  O144  1  0.31390910  0.34068610  0.13060720  1
  O  O145  1  0.30716395  0.32396393  0.62123153  1
  O  O146  1  0.30124414  0.65106090  0.13835325  1
  O  O147  1  0.31139667  0.66311229  0.62018031  1
  O  O148  1  0.30022057  0.99717969  0.12508502  1
  O  O149  1  0.31670485  0.99841640  0.61247148  1
  O  O150  1  0.63074901  0.33215237  0.13646257  1
  O  O151  1  0.64716980  0.33674026  0.62234078  1
  O  O152  1  0.63256419  0.66217957  0.12638937  1
  O  O153  1  0.62790169  0.65562430  0.62197264  1
  O  O154  1  0.62866833  0.99765239  0.12239440  1
  O  O155  1  0.64463850  0.99872611  0.61269863  1
  O  O156  1  0.98361999  0.32125802  0.12791361  1
  O  O157  1  0.96445528  0.33072926  0.62068528  1
  O  O158  1  0.96879986  0.66647509  0.13516462  1
  O  O159  1  0.98223859  0.68247566  0.62214496  1
  O  O160  1  0.98767409  0.98776441  0.12959434  1
  O  O161  1  0.98598864  0.98046363  0.62747246  1
  O  O162  1  0.18733960  0.15523243  0.12186295  1
  O  O163  1  0.20391322  0.16814790  0.62509105  1
  O  O164  1  0.20197873  0.49556305  0.13165499  1
  O  O165  1  0.18334171  0.47603004  0.62296181  1
  O  O166  1  0.19388648  0.82470273  0.12640960  1
  O  O167  1  0.18817668  0.84329791  0.62553310  1
  O  O168  1  0.51707814  0.15799923  0.12929315  1
  O  O169  1  0.51409793  0.16557974  0.61319931  1
  O  O170  1  0.51678966  0.48773255  0.13512033  1
  O  O171  1  0.53027214  0.49993319  0.61581427  1
  O  O172  1  0.51548169  0.81656904  0.12714972  1
  O  O173  1  0.51901155  0.81584909  0.61993184  1
  O  O174  1  0.86755274  0.16418651  0.13048528  1
  O  O175  1  0.86328159  0.16531850  0.62410650  1
  O  O176  1  0.84884456  0.49615109  0.12138961  1
  O  O177  1  0.85139488  0.48301326  0.62724940  1
  O  O178  1  0.86837607  0.81959697  0.12593762  1
  O  O179  1  0.86557916  0.83015549  0.61558212  1
  O  O180  1  0.15431597  0.17887640  0.37859020  1
  O  O181  1  0.15054848  0.17031814  0.88099623  1
  O  O182  1  0.13733252  0.51699476  0.37587999  1
  O  O183  1  0.15294276  0.49933916  0.87536147  1
  O  O184  1  0.15595031  0.82060251  0.37414757  1
  O  O185  1  0.13558356  0.84399762  0.87884145  1
  O  O186  1  0.46499787  0.16190791  0.37235628  1
  O  O187  1  0.47861666  0.16816399  0.88443686  1
  O  O188  1  0.46757444  0.51112174  0.37522106  1
  O  O189  1  0.47691982  0.51532159  0.87612712  1
  O  O190  1  0.45864677  0.84371222  0.37222042  1
  O  O191  1  0.46218962  0.84843426  0.87829310  1
  O  O192  1  0.79704691  0.18367761  0.37775539  1
  O  O193  1  0.82112243  0.16732780  0.86625308  1
  O  O194  1  0.79307922  0.51786933  0.37462077  1
  O  O195  1  0.81269594  0.51603755  0.87423780  1
  O  O196  1  0.80214536  0.84178433  0.37624963  1
  O  O197  1  0.82258787  0.84395239  0.87695274  1
  O  O198  1  0.02420247  -0.00162110  0.36827993  1
  O  O199  1  0.03473689  0.00795409  0.86719234  1
  O  O200  1  0.03748710  0.33828688  0.38392139  1
  O  O201  1  0.01512406  0.33081904  0.86316042  1
  O  O202  1  0.03501313  0.67556317  0.36847851  1
  O  O203  1  0.02167663  0.68214767  0.87809208  1
  O  O204  1  0.36519680  0.00975260  0.36950254  1
  O  O205  1  0.36706675  0.00762122  0.88522332  1
  O  O206  1  0.36109912  0.34528732  0.37437666  1
  O  O207  1  0.35446055  0.32949511  0.87640122  1
  O  O208  1  0.36999080  0.67361133  0.37687513  1
  O  O209  1  0.36187975  0.67585922  0.86700897  1
  O  O210  1  0.69700967  0.00850722  0.37699399  1
  O  O211  1  0.67686993  0.00648915  0.88333705  1
  O  O212  1  0.69157247  0.33916698  0.37895050  1
  O  O213  1  0.68173431  0.33092118  0.86564824  1
  O  O214  1  0.70041694  0.67241378  0.36692449  1
  O  O215  1  0.70100704  0.66681506  0.88427630  1
  O  O216  1  0.07889729  0.09615658  0.02552162  1
  O  O217  1  0.06571442  0.10198449  0.52457048  1
  O  O218  1  0.07507549  0.42613874  0.01595829  1
  O  O219  1  0.05973961  0.43198011  0.50766213  1
  O  O220  1  0.07690165  0.77279395  0.02900593  1
  O  O221  1  0.07684240  0.77041543  0.51808489  1
  O  O222  1  0.40265043  0.09371349  0.02880432  1
  O  O223  1  0.39644443  0.10188713  0.51028761  1
  O  O224  1  0.40301470  0.42187525  0.02712666  1
  O  O225  1  0.40466019  0.42924641  0.51349926  1
  O  O226  1  0.41004701  0.75341054  0.01775632  1
  O  O227  1  0.40826198  0.75099165  0.51598309  1
  O  O228  1  0.73386826  0.08656879  0.01961704  1
  O  O229  1  0.73103879  0.09319758  0.51002341  1
  O  O230  1  0.74379157  0.42998357  0.01035483  1
  O  O231  1  0.72753364  0.42937719  0.51874809  1
  O  O232  1  0.74084486  0.75053756  0.02641434  1
  O  O233  1  0.73930267  0.76529830  0.50802860  1
  O  O234  1  0.09624477  0.25058542  0.02040211  1
  O  O235  1  0.09693276  0.27363868  0.52933838  1
  O  O236  1  0.10017904  0.60492555  0.03168311  1
  O  O237  1  0.10182030  0.60267172  0.51130499  1
  O  O238  1  0.10943612  0.93441799  0.02215471  1
  O  O239  1  0.09513358  0.92013610  0.51014481  1
  O  O240  1  0.43200887  0.26448417  0.02655336  1
  O  O241  1  0.42499430  0.25536228  0.51995333  1
  O  O242  1  0.42811271  0.59297077  0.03722158  1
  O  O243  1  0.43801220  0.59853020  0.51897009  1
  O  O244  1  0.42730869  0.93920628  0.02724826  1
  O  O245  1  0.43005034  0.93518358  0.50523969  1
  O  O246  1  0.75345032  0.25491227  0.01434590  1
  O  O247  1  0.76434881  0.27338217  0.51873223  1
  O  O248  1  0.76443473  0.59895407  0.02514069  1
  O  O249  1  0.75104990  0.58609148  0.52988024  1
  O  O250  1  0.74976036  0.92874608  0.01850787  1
  O  O251  1  0.76274707  0.93205397  0.51117165  1
  O  O252  1  0.24550390  0.07073088  0.26794098  1
  O  O253  1  0.23111396  0.06365681  0.77466243  1
  O  O254  1  0.24293322  0.40134193  0.28287001  1
  O  O255  1  0.24346201  0.40324090  0.75916996  1
  O  O256  1  0.23903388  0.73028089  0.27655555  1
  O  O257  1  0.24091691  0.74623800  0.77317545  1
  O  O258  1  0.56064113  0.07064448  0.27358647  1
  O  O259  1  0.56791272  0.07221327  0.76987613  1
  O  O260  1  0.56660348  0.40672318  0.27738101  1
  O  O261  1  0.58354837  0.40723447  0.75872179  1
  O  O262  1  0.57445387  0.73010045  0.27346456  1
  O  O263  1  0.56387307  0.73467776  0.77932579  1
  O  O264  1  0.90773208  0.06168196  0.27596611  1
  O  O265  1  0.90835317  0.06858108  0.76224441  1
  O  O266  1  0.90390765  0.41140089  0.28808398  1
  O  O267  1  0.90556323  0.40609030  0.76584464  1
  O  O268  1  0.90467632  0.72953811  0.27573530  1
  O  O269  1  0.90516982  0.74031690  0.78108829  1
  O  O270  1  0.26932232  0.24233923  0.27737121  1
  O  O271  1  0.25485124  0.24836590  0.75822948  1
  O  O272  1  0.26884605  0.57259054  0.28781031  1
  O  O273  1  0.26251864  0.58271354  0.76020036  1
  O  O274  1  0.27167325  0.89747806  0.27129816  1
  O  O275  1  0.25935352  0.90340844  0.78293256  1
  O  O276  1  0.59420346  0.23009827  0.27580397  1
  O  O277  1  0.59367603  0.24587209  0.75852186  1
  O  O278  1  0.59609800  0.56838909  0.27881622  1
  O  O279  1  0.58627450  0.57815762  0.77209692  1
  O  O280  1  0.59267644  0.90175433  0.28294534  1
  O  O281  1  0.58852420  0.91217274  0.77103295  1
  O  O282  1  0.91424319  0.24932914  0.28392562  1
  O  O283  1  0.93100145  0.23598545  0.75359396  1
  O  O284  1  0.93574422  0.57619141  0.28022302  1
  O  O285  1  0.91333228  0.57619642  0.76484358  1
  O  O286  1  0.93144444  0.90748613  0.26533493  1
  O  O287  1  0.94625464  0.90243899  0.76625195  1
  O  O288  1  0.26905810  0.24124932  0.47266678  1
  O  O289  1  0.26166084  0.23786145  0.98718867  1
  O  O290  1  0.27115208  0.57175680  0.47421265  1
  O  O291  1  0.26844047  0.56888326  0.99126699  1
  O  O292  1  0.27271618  0.90004848  0.47328892  1
  O  O293  1  0.26763962  0.90742514  0.97100720  1
  O  O294  1  0.60000185  0.22960762  0.47654452  1
  O  O295  1  0.58303738  0.23482355  0.99054309  1
  O  O296  1  0.58952202  0.56722882  0.46492783  1
  O  O297  1  0.59380217  0.58166585  0.98258623  1
  O  O298  1  0.60019292  0.90558745  0.46647080  1
  O  O299  1  0.58822688  0.91410245  0.97889200  1
  O  O300  1  0.93491226  0.24243595  0.48615605  1
  O  O301  1  0.93018562  0.23910624  0.99226215  1
  O  O302  1  0.92622119  0.57238547  0.46917693  1
  O  O303  1  0.91887869  0.57473419  0.98490731  1
  O  O304  1  0.91825388  0.90557509  0.47799217  1
  O  O305  1  0.94725495  0.89304018  0.98918065  1
  O  O306  1  0.24682146  0.07087595  0.47408788  1
  O  O307  1  0.23549140  0.06509139  0.98060291  1
  O  O308  1  0.24276219  0.40117773  0.47111983  1
  O  O309  1  0.24731420  0.40126208  0.99102446  1
  O  O310  1  0.24506066  0.73456990  0.47492841  1
  O  O311  1  0.24047936  0.74820055  0.98264984  1
  O  O312  1  0.57036494  0.06811298  0.46468641  1
  O  O313  1  0.55825763  0.06658247  0.98507057  1
  O  O314  1  0.57164070  0.40730620  0.47528897  1
  O  O315  1  0.57055344  0.40544614  0.99433017  1
  O  O316  1  0.57567616  0.73907660  0.45676610  1
  O  O317  1  0.57447402  0.73260002  0.97852065  1
  O  O318  1  0.89917070  0.06773971  0.47129831  1
  O  O319  1  0.90942286  0.07004968  0.98688966  1
  O  O320  1  0.90276680  0.39824373  0.47250059  1
  O  O321  1  0.90163354  0.41440752  0.98227630  1
  O  O322  1  0.89530523  0.73955934  0.47081614  1
  O  O323  1  0.90087598  0.73237901  0.97998549  1
  O  O324  1  0.08872094  0.25193730  0.23581740  1
  O  O325  1  0.08454781  0.25951403  0.71770703  1
  O  O326  1  0.10125425  0.61103575  0.22917062  1
  O  O327  1  0.08897241  0.59248003  0.73337939  1
  O  O328  1  0.10175801  0.92604664  0.22184404  1
  O  O329  1  0.10382718  0.93850733  0.73975563  1
  O  O330  1  0.43465872  0.26814945  0.22919738  1
  O  O331  1  0.41836386  0.25929986  0.73173240  1
  O  O332  1  0.43393307  0.59770254  0.23029079  1
  O  O333  1  0.42520291  0.60110995  0.72555047  1
  O  O334  1  0.43146653  0.93768684  0.22745878  1
  O  O335  1  0.42284444  0.92747599  0.73361444  1
  O  O336  1  0.74989651  0.26760114  0.23819351  1
  O  O337  1  0.77047356  0.26273504  0.72425999  1
  O  O338  1  0.76416381  0.60241209  0.22464361  1
  O  O339  1  0.75202980  0.57579501  0.72718103  1
  O  O340  1  0.75923233  0.92228302  0.23632156  1
  O  O341  1  0.75967275  0.92810355  0.73349018  1
  O  O342  1  0.07163600  0.08716876  0.22420229  1
  O  O343  1  0.06216977  0.09729127  0.72016118  1
  O  O344  1  0.06853343  0.43353678  0.24639602  1
  O  O345  1  0.07125627  0.41508583  0.72727908  1
  O  O346  1  0.07152946  0.76508682  0.22209626  1
  O  O347  1  0.06882339  0.77887051  0.73311535  1
  O  O348  1  0.40113004  0.09585786  0.23039176  1
  O  O349  1  0.39647059  0.10341990  0.72366805  1
  O  O350  1  0.40005587  0.43600630  0.23242337  1
  O  O351  1  0.40689461  0.41951040  0.73519497  1
  O  O352  1  0.40336094  0.74899890  0.23144915  1
  O  O353  1  0.40301721  0.75676934  0.73135785  1
  O  O354  1  0.73380825  0.09538024  0.24311427  1
  O  O355  1  0.74709161  0.09945149  0.73416573  1
  O  O356  1  0.72670529  0.42581141  0.24521622  1
  O  O357  1  0.74281509  0.42074092  0.72006137  1
  O  O358  1  0.73711899  0.75273592  0.22803775  1
  O  O359  1  0.74154720  0.75529205  0.73155868  1
