# generated using pymatgen
data_BaLaInIrO6
_symmetry_space_group_name_H-M   'P 1'
_cell_length_a   17.53594074
_cell_length_b   17.56915779
_cell_length_c   16.49367123
_cell_angle_alpha   89.95327631
_cell_angle_beta   90.02771758
_cell_angle_gamma   90.05306155
_symmetry_Int_Tables_number   1
_chemical_formula_structural   BaLaInIrO6
_chemical_formula_sum   'Ba36 La36 In36 Ir36 O216'
_cell_volume   5081.55890754
_cell_formula_units_Z   36
loop_
 _symmetry_equiv_pos_site_id
 _symmetry_equiv_pos_as_xyz
  1  'x, y, z'
loop_
 _atom_site_type_symbol
 _atom_site_label
 _atom_site_symmetry_multiplicity
 _atom_site_fract_x
 _atom_site_fract_y
 _atom_site_fract_z
 _atom_site_occupancy
  Ba  Ba0  1  0.16782289  0.99343319  0.87333494  1
  Ba  Ba1  1  0.83106374  0.32174725  0.87310309  1
  Ba  Ba2  1  0.49493462  0.67275234  0.12631802  1
  Ba  Ba3  1  0.16885473  0.98491340  0.37766656  1
  Ba  Ba4  1  0.49574552  0.32733521  0.37553478  1
  Ba  Ba5  1  1.00179690  0.51010120  0.62804386  1
  Ba  Ba6  1  0.16372939  0.34070941  0.12481001  1
  Ba  Ba7  1  1.00558548  0.17471476  0.62822923  1
  Ba  Ba8  1  0.16299978  0.34265471  0.62439523  1
  Ba  Ba9  1  0.32957374  0.17875825  0.12443135  1
  Ba  Ba10  1  0.83510249  0.33694938  0.62606391  1
  Ba  Ba11  1  0.66489134  0.48458404  0.87449596  1
  Ba  Ba12  1  0.50308890  0.99533554  0.87537594  1
  Ba  Ba13  1  0.66535322  0.16114829  0.37718880  1
  Ba  Ba14  1  0.33025637  0.48850871  0.37821488  1
  Ba  Ba15  1  0.66492972  0.17129884  0.62405908  1
  Ba  Ba16  1  0.49871987  0.32256308  0.87242804  1
  Ba  Ba17  1  0.49999327  0.65806146  0.37603316  1
  Ba  Ba18  1  0.67151860  0.50503757  0.62779989  1
  Ba  Ba19  1  0.33559001  0.84551985  0.12609917  1
  Ba  Ba20  1  0.33232869  0.48985448  0.87580300  1
  Ba  Ba21  1  0.66425774  0.16045576  0.87058046  1
  Ba  Ba22  1  0.50046102  0.99549350  0.37318372  1
  Ba  Ba23  1  1.00274352  0.17283729  0.12709409  1
  Ba  Ba24  1  0.49576590  0.33771409  0.12243166  1
  Ba  Ba25  1  0.00514314  0.82525026  0.37438242  1
  Ba  Ba26  1  0.65999732  0.48923489  0.37545870  1
  Ba  Ba27  1  0.33382321  0.50662728  0.62817216  1
  Ba  Ba28  1  0.16649943  0.01171426  0.62141929  1
  Ba  Ba29  1  0.66740302  0.83940291  0.62047700  1
  Ba  Ba30  1  0.83763799  0.65833232  0.37715919  1
  Ba  Ba31  1  1.00480624  0.84812832  0.12660085  1
  Ba  Ba32  1  0.33199171  0.15788710  0.87753059  1
  Ba  Ba33  1  0.50124923  0.67355035  0.62703415  1
  Ba  Ba34  1  0.83268936  0.99924978  0.86996851  1
  Ba  Ba35  1  0.16838508  0.68332779  0.12151599  1
  La  La36  1  0.16727089  0.65365164  0.87412862  1
  La  La37  1  0.34261996  0.50328261  0.12558035  1
  La  La38  1  0.32831953  0.15186625  0.37246412  1
  La  La39  1  -0.00263937  0.48686715  0.37492894  1
  La  La40  1  0.66452524  0.81868547  0.37424381  1
  La  La41  1  0.83214609  0.01910347  0.12321528  1
  La  La42  1  0.66462578  0.51713582  0.12294453  1
  La  La43  1  0.49516011  0.34589140  0.62384009  1
  La  La44  1  -0.00100614  0.15082003  0.37811705  1
  La  La45  1  -0.00201417  0.82111772  0.87571214  1
  La  La46  1  0.83944761  0.65218626  0.87100690  1
  La  La47  1  0.82667915  0.68714059  0.12637270  1
  La  La48  1  0.65987562  0.81721710  0.87569959  1
  La  La49  1  1.00445641  0.84639329  0.62015096  1
  La  La50  1  0.32620363  0.81866723  0.37221378  1
  La  La51  1  0.49432451  0.01913225  0.12436997  1
  La  La52  1  0.49738104  0.01442784  0.62611924  1
  La  La53  1  -0.00394317  0.48377543  0.87932997  1
  La  La54  1  0.50234991  0.64597970  0.87642267  1
  La  La55  1  0.16452781  0.00833590  0.12595837  1
  La  La56  1  0.83038254  0.32392001  0.37771296  1
  La  La57  1  0.32929384  0.82365070  0.87882520  1
  La  La58  1  0.17401990  0.31448437  0.87845518  1
  La  La59  1  0.34079748  0.84773694  0.62139785  1
  La  La60  1  0.17331465  0.65776264  0.37747990  1
  La  La61  1  1.00480108  0.51638338  0.12484158  1
  La  La62  1  0.66655370  0.84925425  0.12815334  1
  La  La63  1  0.33747216  0.18138362  0.62452487  1
  La  La64  1  0.17415772  0.31263262  0.37692701  1
  La  La65  1  0.83193655  0.01620020  0.62367673  1
  La  La66  1  0.84035566  0.98603552  0.37508024  1
  La  La67  1  0.66203881  0.17599635  0.12022433  1
  La  La68  1  0.82752471  0.34580496  0.12473664  1
  La  La69  1  0.82770022  0.68272405  0.62566663  1
  La  La70  1  0.00125747  0.15580906  0.87572029  1
  La  La71  1  0.16584926  0.68362520  0.62694027  1
  In  In72  1  0.83377604  0.16701199  0.49927242  1
  In  In73  1  0.49685106  0.16724859  0.49887231  1
  In  In74  1  0.83146544  0.83932962  -0.00226787  1
  In  In75  1  -0.00223790  0.33064654  0.00205935  1
  In  In76  1  0.83374178  0.83760604  0.75107046  1
  In  In77  1  0.00487979  0.33129740  0.49732792  1
  In  In78  1  0.49965345  0.83560599  0.25138870  1
  In  In79  1  0.33323312  0.66606308  0.50487410  1
  In  In80  1  -0.00168716  0.67007693  -0.00041341  1
  In  In81  1  0.00312465  -0.00301671  0.74987060  1
  In  In82  1  0.50145228  0.49450900  0.25074305  1
  In  In83  1  0.33258872  -0.00139080  0.75215328  1
  In  In84  1  0.49882883  0.83767629  0.49831543  1
  In  In85  1  0.33221200  0.66389763  0.24916324  1
  In  In86  1  0.66508065  0.32985767  0.74752079  1
  In  In87  1  0.66744676  0.00214419  0.25145061  1
  In  In88  1  0.83697139  0.49864358  0.74935340  1
  In  In89  1  0.83390153  0.49963171  0.25006525  1
  In  In90  1  0.50000844  0.83352637  -0.00099659  1
  In  In91  1  0.33322662  0.66649891  -0.00282621  1
  In  In92  1  0.66735930  -0.00360829  0.74672652  1
  In  In93  1  -0.00083306  0.33102973  0.25144082  1
  In  In94  1  0.16553153  0.50008498  0.24826443  1
  In  In95  1  0.66625417  -0.00072001  -0.00012608  1
  In  In96  1  0.66787137  0.66480345  0.50117358  1
  In  In97  1  0.83387703  0.50057494  0.00091434  1
  In  In98  1  0.83338034  0.16921534  0.24950807  1
  In  In99  1  0.33242794  0.66892294  0.75100210  1
  In  In100  1  0.66834837  0.66701600  0.24932472  1
  In  In101  1  0.00177823  0.66797652  0.25044700  1
  In  In102  1  0.49740043  0.17026531  0.25119159  1
  In  In103  1  0.16749285  0.50021486  0.00224315  1
  In  In104  1  0.83550797  0.49947984  0.49874170  1
  In  In105  1  0.00370795  0.66655222  0.50145220  1
  In  In106  1  0.32906655  0.33537921  0.75016488  1
  In  In107  1  0.66815844  0.66709696  0.75195488  1
  Ir  Ir108  1  0.50429755  0.49538525  -0.00208940  1
  Ir  Ir109  1  0.16579685  0.83141046  0.75051278  1
  Ir  Ir110  1  0.33215237  0.00042903  0.50042922  1
  Ir  Ir111  1  -0.00070485  -0.00075161  0.25056996  1
  Ir  Ir112  1  0.32921743  0.33105688  0.49823393  1
  Ir  Ir113  1  0.16845571  0.83860160  0.24999079  1
  Ir  Ir114  1  0.33199551  0.00160028  0.00386138  1
  Ir  Ir115  1  0.83469690  0.16604556  -0.00076412  1
  Ir  Ir116  1  0.49652036  0.16486987  0.74708559  1
  Ir  Ir117  1  0.00006487  -0.00211724  0.49686552  1
  Ir  Ir118  1  0.00021418  0.00306793  0.00146825  1
  Ir  Ir119  1  0.66234905  0.33330853  0.49862149  1
  Ir  Ir120  1  0.49664622  0.83497409  0.75173117  1
  Ir  Ir121  1  0.49827111  0.49530599  0.50389457  1
  Ir  Ir122  1  0.16562591  0.16065301  0.25171348  1
  Ir  Ir123  1  0.83837965  0.83815888  0.49839738  1
  Ir  Ir124  1  0.17019663  0.83366291  0.50365193  1
  Ir  Ir125  1  0.00790638  0.33232251  0.75474634  1
  Ir  Ir126  1  0.33124240  0.33133123  0.00090424  1
  Ir  Ir127  1  0.66522904  0.33040252  0.00441037  1
  Ir  Ir128  1  0.66815195  0.33342910  0.24536075  1
  Ir  Ir129  1  0.83504797  0.83924639  0.24857868  1
  Ir  Ir130  1  0.83853668  0.16685990  0.75175741  1
  Ir  Ir131  1  0.16085779  0.50210571  0.75072229  1
  Ir  Ir132  1  0.50019494  0.49840987  0.75027471  1
  Ir  Ir133  1  0.16544466  0.16299638  0.00121872  1
  Ir  Ir134  1  0.16391729  0.84164507  -0.00446386  1
  Ir  Ir135  1  0.49788223  0.16680375  -0.00155115  1
  Ir  Ir136  1  0.33128796  0.00180158  0.24900822  1
  Ir  Ir137  1  0.00333704  0.66953297  0.75048098  1
  Ir  Ir138  1  0.66698209  0.66693342  0.00039302  1
  Ir  Ir139  1  0.16753657  0.16693770  0.74954838  1
  Ir  Ir140  1  0.67124685  -0.00151297  0.49915301  1
  Ir  Ir141  1  0.16971210  0.16221704  0.49906077  1
  Ir  Ir142  1  0.16407824  0.50263417  0.50330397  1
  Ir  Ir143  1  0.32687475  0.32992159  0.25171122  1
  O  O144  1  0.31145512  0.34005313  0.12647494  1
  O  O145  1  0.31164664  0.32571086  0.61952971  1
  O  O146  1  0.31635378  0.64400521  0.12099131  1
  O  O147  1  0.30134045  0.66504828  0.62900116  1
  O  O148  1  0.30112746  0.99936499  0.12778941  1
  O  O149  1  0.31307597  0.98574950  0.62094006  1
  O  O150  1  0.64743029  0.31385053  0.12557884  1
  O  O151  1  0.63441230  0.32918096  0.61831787  1
  O  O152  1  0.64286912  0.66017779  0.11729704  1
  O  O153  1  0.64947000  0.67040029  0.62675247  1
  O  O154  1  0.63014123  0.98495802  0.12444267  1
  O  O155  1  0.63560207  0.99384287  0.61811062  1
  O  O156  1  0.96328459  0.32231607  0.12569838  1
  O  O157  1  0.98806062  0.32992271  0.63266272  1
  O  O158  1  0.96081227  0.66089293  0.12420425  1
  O  O159  1  0.96831056  0.66691857  0.63271093  1
  O  O160  1  0.97029753  0.99981466  0.12664609  1
  O  O161  1  0.97122059  0.98843213  0.61877206  1
  O  O162  1  0.18468235  0.14654437  0.12667064  1
  O  O163  1  0.20071042  0.16521228  0.62348222  1
  O  O164  1  0.21019396  0.49320368  0.12476907  1
  O  O165  1  0.18734084  0.49511970  0.62798324  1
  O  O166  1  0.18658174  0.84968628  0.12345946  1
  O  O167  1  0.20185777  0.82443860  0.62754928  1
  O  O168  1  0.51990796  0.16375207  0.11963473  1
  O  O169  1  0.51183706  0.15770024  0.62707604  1
  O  O170  1  0.52699945  0.49343814  0.11726014  1
  O  O171  1  0.51933716  0.48495928  0.62705302  1
  O  O172  1  0.53215266  0.83064664  0.12430458  1
  O  O173  1  0.51667651  0.83349964  0.63295662  1
  O  O174  1  0.85409695  0.16639811  0.11844267  1
  O  O175  1  0.85601222  0.16389114  0.62916956  1
  O  O176  1  0.86858616  0.48240309  0.12437756  1
  O  O177  1  0.85472834  0.48911693  0.62483704  1
  O  O178  1  0.85623271  0.82506663  0.12866400  1
  O  O179  1  0.86769743  0.82689515  0.61838579  1
  O  O180  1  0.13777083  0.16915670  0.37548636  1
  O  O181  1  0.13872959  0.17473013  0.87458320  1
  O  O182  1  0.13356062  0.51637366  0.38457012  1
  O  O183  1  0.13100592  0.51237968  0.86874607  1
  O  O184  1  0.15163418  0.82932756  0.37709144  1
  O  O185  1  0.13214498  0.84111736  0.87168257  1
  O  O186  1  0.46588735  0.16659325  0.37603753  1
  O  O187  1  0.48039363  0.16409375  0.87135803  1
  O  O188  1  0.48449175  0.49444527  0.38319269  1
  O  O189  1  0.48156897  0.50610186  0.87309138  1
  O  O190  1  0.45968614  0.84535144  0.37579803  1
  O  O191  1  0.46594771  0.84270440  0.86893092  1
  O  O192  1  0.81102885  0.17749513  0.37471629  1
  O  O193  1  0.81537389  0.16050513  0.87680106  1
  O  O194  1  0.80590916  0.50351705  0.37435398  1
  O  O195  1  0.81170747  0.51542850  0.87484083  1
  O  O196  1  0.80410676  0.84936792  0.37378281  1
  O  O197  1  0.79367996  0.84695748  0.87551892  1
  O  O198  1  0.02334520  0.01060073  0.37311919  1
  O  O199  1  0.01724069  0.01552107  0.88042248  1
  O  O200  1  0.04309279  0.34817200  0.37372159  1
  O  O201  1  0.03746573  0.33842865  0.87371112  1
  O  O202  1  0.03826196  0.67387958  0.37617784  1
  O  O203  1  0.03449241  0.68308392  0.86777720  1
  O  O204  1  0.35271513  0.01532477  0.37450743  1
  O  O205  1  0.35142052  0.00017979  0.88291105  1
  O  O206  1  0.34605712  0.32214642  0.37479970  1
  O  O207  1  0.34597031  0.32802933  0.87974626  1
  O  O208  1  0.34675461  0.68076217  0.37921888  1
  O  O209  1  0.36667459  0.68164145  0.87205259  1
  O  O210  1  0.70427094  0.00789385  0.38012971  1
  O  O211  1  0.68007335  0.00693456  0.87317953  1
  O  O212  1  0.69387238  0.33650785  0.37079015  1
  O  O213  1  0.67708401  0.32776004  0.88340735  1
  O  O214  1  0.68941157  0.67528357  0.37582502  1
  O  O215  1  0.69981326  0.67563092  0.88203616  1
  O  O216  1  0.06845521  0.09669271  0.01360380  1
  O  O217  1  0.07153356  0.09209274  0.51487603  1
  O  O218  1  0.06615431  0.43326060  0.02268329  1
  O  O219  1  0.07529213  0.43424526  0.51590383  1
  O  O220  1  0.07076030  0.77433242  0.00761957  1
  O  O221  1  0.07852076  0.76461313  0.53356949  1
  O  O222  1  0.40475726  0.09415247  0.02429396  1
  O  O223  1  0.39570625  0.09517496  0.52509620  1
  O  O224  1  0.40335001  0.42881101  0.01961150  1
  O  O225  1  0.40609465  0.41922992  0.52434910  1
  O  O226  1  0.40249633  0.76463937  0.01143917  1
  O  O227  1  0.40056065  0.76702688  0.52502813  1
  O  O228  1  0.73997293  0.09996373  0.02675884  1
  O  O229  1  0.74504233  0.08373102  0.52631038  1
  O  O230  1  0.73220761  0.42373901  0.02773579  1
  O  O231  1  0.73397466  0.41878701  0.51373532  1
  O  O232  1  0.72941337  0.76207862  0.02663689  1
  O  O233  1  0.75390690  0.76571802  0.51493395  1
  O  O234  1  0.09884675  0.25587956  0.00991256  1
  O  O235  1  0.10264102  0.25340230  0.51026479  1
  O  O236  1  0.09042399  0.59505844  0.02055036  1
  O  O237  1  0.10747385  0.60066020  0.52896507  1
  O  O238  1  0.09846027  0.94083113  0.01974343  1
  O  O239  1  0.08970298  0.92092839  0.52297292  1
  O  O240  1  0.42534551  0.25756948  0.01169412  1
  O  O241  1  0.42090210  0.26222550  0.52784242  1
  O  O242  1  0.43331138  0.58517094  0.00751856  1
  O  O243  1  0.42731195  0.58434621  0.51760112  1
  O  O244  1  0.42770399  0.93914067  0.02383609  1
  O  O245  1  0.42743684  0.93785124  0.52586990  1
  O  O246  1  0.76549597  0.26357653  0.02375803  1
  O  O247  1  0.75274013  0.26270697  0.51114010  1
  O  O248  1  0.76139389  0.60119886  0.02784963  1
  O  O249  1  0.76957872  0.60113098  0.52837308  1
  O  O250  1  0.76408931  0.93267639  0.03788341  1
  O  O251  1  0.77187307  0.93467375  0.51968261  1
  O  O252  1  0.23833564  0.07137818  0.27159362  1
  O  O253  1  0.23934038  0.07868685  0.76253748  1
  O  O254  1  0.23378597  0.39538987  0.27625207  1
  O  O255  1  0.22803532  0.40817901  0.77416219  1
  O  O256  1  0.23618828  0.74725540  0.27035118  1
  O  O257  1  0.22966112  0.73981854  0.77929669  1
  O  O258  1  0.56976698  0.07460104  0.25633385  1
  O  O259  1  0.56649406  0.07224411  0.75212457  1
  O  O260  1  0.57465133  0.39635133  0.26026033  1
  O  O261  1  0.56972029  0.40870505  0.75903579  1
  O  O262  1  0.57908154  0.74448606  0.27488876  1
  O  O263  1  0.56196537  0.73983422  0.78092092  1
  O  O264  1  0.90448278  0.06506067  0.26980256  1
  O  O265  1  0.91393303  0.08131128  0.76140790  1
  O  O266  1  0.89648290  0.39459571  0.27896962  1
  O  O267  1  0.92253993  0.40580792  0.77737857  1
  O  O268  1  0.90087168  0.74674408  0.26538627  1
  O  O269  1  0.90974633  0.73435620  0.77732494  1
  O  O270  1  0.25839104  0.23147205  0.27690152  1
  O  O271  1  0.25469378  0.23999496  0.76614350  1
  O  O272  1  0.24820904  0.58159339  0.28335005  1
  O  O273  1  0.24837351  0.57408598  0.77161804  1
  O  O274  1  0.26650912  0.90522196  0.27304001  1
  O  O275  1  0.26266773  0.89528642  0.77174349  1
  O  O276  1  0.60267853  0.23897267  0.25845327  1
  O  O277  1  0.58408003  0.23759133  0.75930152  1
  O  O278  1  0.59869818  0.56662656  0.25087828  1
  O  O279  1  0.58668883  0.57508172  0.77094084  1
  O  O280  1  0.60643525  0.89961562  0.27549740  1
  O  O281  1  0.59531863  0.89395352  0.77258874  1
  O  O282  1  0.93611212  0.22945442  0.28115895  1
  O  O283  1  0.93828507  0.23786965  0.77722060  1
  O  O284  1  0.93645249  0.56492334  0.27458419  1
  O  O285  1  0.94140761  0.57654119  0.78067091  1
  O  O286  1  0.92569951  0.91117198  0.27559844  1
  O  O287  1  0.93710417  0.89828299  0.77264188  1
  O  O288  1  0.26437048  0.23141582  0.47543449  1
  O  O289  1  0.25585913  0.23861893  0.98087499  1
  O  O290  1  0.25306253  0.57132434  0.48467368  1
  O  O291  1  0.25108875  0.58251171  0.96547689  1
  O  O292  1  0.27014382  0.89867286  0.48042332  1
  O  O293  1  0.26486696  0.90551243  0.97811967  1
  O  O294  1  0.59005010  0.24534937  0.48305604  1
  O  O295  1  0.59795126  0.23068376  0.99149565  1
  O  O296  1  0.58590322  0.56821718  0.49149606  1
  O  O297  1  0.59918453  0.56786559  0.98126849  1
  O  O298  1  0.60487073  0.90899221  0.47188466  1
  O  O299  1  0.60381175  0.89305730  0.97680193  1
  O  O300  1  0.93448084  0.23366571  0.47569255  1
  O  O301  1  0.93037895  0.22785940  0.97236394  1
  O  O302  1  0.93966659  0.56742739  0.47500992  1
  O  O303  1  0.92954151  0.57395157  0.96809786  1
  O  O304  1  0.92708094  0.91016403  0.47453640  1
  O  O305  1  0.93808152  0.90844199  0.97691911  1
  O  O306  1  0.24233009  0.07381500  0.47758987  1
  O  O307  1  0.23416177  0.06770820  0.99064266  1
  O  O308  1  0.23086891  0.40143758  0.47549072  1
  O  O309  1  0.23781328  0.39745044  0.97675623  1
  O  O310  1  0.23197596  0.74001241  0.48309291  1
  O  O311  1  0.23210132  0.74956531  0.96978232  1
  O  O312  1  0.57879796  0.06957870  0.48827522  1
  O  O313  1  0.56616799  0.07591869  0.99501339  1
  O  O314  1  0.56503708  0.39992644  0.49125955  1
  O  O315  1  0.57190738  0.39901889  0.98452735  1
  O  O316  1  0.58025622  0.75047167  0.47840758  1
  O  O317  1  0.57313217  0.72928365  0.96832067  1
  O  O318  1  0.90916295  0.06765607  0.47384417  1
  O  O319  1  0.89889869  0.06695798  0.99094003  1
  O  O320  1  0.90751974  0.40005707  0.46929621  1
  O  O321  1  0.90760403  0.40609533  0.97274179  1
  O  O322  1  0.90888436  0.74804564  0.48420613  1
  O  O323  1  0.90169735  0.74216375  0.96802135  1
  O  O324  1  0.10064717  0.25247235  0.23815073  1
  O  O325  1  0.09918417  0.26006992  0.73830174  1
  O  O326  1  0.08975359  0.59164167  0.21431305  1
  O  O327  1  0.10050309  0.60537486  0.72770877  1
  O  O328  1  0.09861578  0.93439333  0.23065970  1
  O  O329  1  0.09616604  0.91867305  0.72347551  1
  O  O330  1  0.41732655  0.26141086  0.23474363  1
  O  O331  1  0.42422680  0.25549622  0.72493657  1
  O  O332  1  0.41927163  0.57886237  0.23296404  1
  O  O333  1  0.42849580  0.58864880  0.74063666  1
  O  O334  1  0.42658952  0.93968322  0.22427527  1
  O  O335  1  0.43444894  0.93134104  0.72492804  1
  O  O336  1  0.76714960  0.27405055  0.23203430  1
  O  O337  1  0.76024974  0.24896274  0.73856882  1
  O  O338  1  0.76611641  0.59937190  0.21570366  1
  O  O339  1  0.77499429  0.60494451  0.73469633  1
  O  O340  1  0.77228874  0.93331421  0.22612118  1
  O  O341  1  0.76918922  0.93562380  0.71521727  1
  O  O342  1  0.07418406  0.08706393  0.22962124  1
  O  O343  1  0.07972499  0.09274656  0.73883809  1
  O  O344  1  0.06418315  0.43333119  0.22264566  1
  O  O345  1  0.07136103  0.42974693  0.73720978  1
  O  O346  1  0.07951483  0.76793092  0.23255977  1
  O  O347  1  0.06916982  0.76548036  0.72112663  1
  O  O348  1  0.39993016  0.09170487  0.23118460  1
  O  O349  1  0.40479340  0.09558198  0.72380401  1
  O  O350  1  0.39607681  0.42175412  0.23367418  1
  O  O351  1  0.41353099  0.42130166  0.73294292  1
  O  O352  1  0.40457654  0.76006885  0.23661908  1
  O  O353  1  0.39787223  0.77565575  0.73049710  1
  O  O354  1  0.73915977  0.09698373  0.21541158  1
  O  O355  1  0.75289420  0.09177672  0.72988397  1
  O  O356  1  0.73040485  0.42797214  0.21575999  1
  O  O357  1  0.74550306  0.41723942  0.73989138  1
  O  O358  1  0.74174260  0.77238313  0.22566744  1
  O  O359  1  0.74445577  0.76105242  0.73144646  1
