# generated using pymatgen
data_BaLaInIrO6
_symmetry_space_group_name_H-M   'P 1'
_cell_length_a   17.51594527
_cell_length_b   17.53655517
_cell_length_c   16.47498079
_cell_angle_alpha   89.97904193
_cell_angle_beta   89.98634546
_cell_angle_gamma   90.02231686
_symmetry_Int_Tables_number   1
_chemical_formula_structural   BaLaInIrO6
_chemical_formula_sum   'Ba36 La36 In36 Ir36 O216'
_cell_volume   5060.60812062
_cell_formula_units_Z   36
loop_
 _symmetry_equiv_pos_site_id
 _symmetry_equiv_pos_as_xyz
  1  'x, y, z'
loop_
 _atom_site_type_symbol
 _atom_site_label
 _atom_site_symmetry_multiplicity
 _atom_site_fract_x
 _atom_site_fract_y
 _atom_site_fract_z
 _atom_site_occupancy
  Ba  Ba0  1  0.33756388  0.16341098  0.37426066  1
  Ba  Ba1  1  0.16615193  0.67245538  0.62590986  1
  Ba  Ba2  1  0.50438454  0.34216217  0.12684165  1
  Ba  Ba3  1  0.66450099  0.82377093  0.37634628  1
  Ba  Ba4  1  0.33599408  0.50744472  0.62569405  1
  Ba  Ba5  1  0.67134808  0.51003437  0.12617347  1
  Ba  Ba6  1  0.83455161  0.65728399  0.37467000  1
  Ba  Ba7  1  0.16773506  0.00625571  0.62789403  1
  Ba  Ba8  1  0.50271883  0.65694709  0.87538447  1
  Ba  Ba9  1  0.99821662  0.17565371  0.12411758  1
  Ba  Ba10  1  0.50086904  0.98846815  0.87785040  1
  Ba  Ba11  1  0.50015141  0.32341150  0.37682275  1
  Ba  Ba12  1  0.33163887  0.82650081  0.87716072  1
  Ba  Ba13  1  0.16706249  0.67589424  0.12635265  1
  Ba  Ba14  1  0.50319927  0.98771482  0.37652790  1
  Ba  Ba15  1  0.16706074  0.32508166  0.86829478  1
  Ba  Ba16  1  0.82709588  0.34337434  0.12203824  1
  Ba  Ba17  1  0.82903399  0.34466825  0.61985887  1
  Ba  Ba18  1  0.66848329  0.84260164  0.12818543  1
  Ba  Ba19  1  0.50780795  0.65970620  0.37546378  1
  Ba  Ba20  1  0.99930005  0.50803212  0.62879768  1
  Ba  Ba21  1  0.50373544  0.34016283  0.62359650  1
  Ba  Ba22  1  0.33980300  0.49554462  0.37652313  1
  Ba  Ba23  1  0.82871820  0.01478909  0.12605499  1
  Ba  Ba24  1  0.66338805  0.83906779  0.62661268  1
  Ba  Ba25  1  0.16508594  0.98959999  0.87638533  1
  Ba  Ba26  1  0.49848240  0.67665854  0.62202050  1
  Ba  Ba27  1  0.50119822  0.67761383  0.12765870  1
  Ba  Ba28  1  0.00127421  0.49126735  0.87456552  1
  Ba  Ba29  1  0.83031822  0.99154194  0.37600372  1
  Ba  Ba30  1  0.16893925  0.66073106  0.87739925  1
  Ba  Ba31  1  -0.00166582  0.82377954  0.87844637  1
  Ba  Ba32  1  0.17230896  0.32557785  0.37523756  1
  Ba  Ba33  1  0.66938590  0.17910688  0.11956766  1
  Ba  Ba34  1  0.16627322  0.65782943  0.37653858  1
  Ba  Ba35  1  0.16513206  0.00687792  0.12015854  1
  La  La36  1  0.16932520  0.98719941  0.37259280  1
  La  La37  1  0.66668521  0.17797553  0.61934319  1
  La  La38  1  0.33957215  0.18083934  0.12298950  1
  La  La39  1  0.33816975  0.83820179  0.62816071  1
  La  La40  1  0.33537834  0.84367532  0.12817064  1
  La  La41  1  0.65633442  0.15094248  0.36887327  1
  La  La42  1  0.49009539  0.00540739  0.61969195  1
  La  La43  1  1.00567663  0.18258934  0.61994552  1
  La  La44  1  -0.00390598  0.48405403  0.37835736  1
  La  La45  1  -0.00865877  0.81913874  0.37445205  1
  La  La46  1  0.82817449  0.68167396  0.12547359  1
  La  La47  1  0.82756122  0.68024147  0.62844860  1
  La  La48  1  1.00294577  0.51359345  0.12487491  1
  La  La49  1  0.32426384  0.15044947  0.86773508  1
  La  La50  1  0.00109583  0.15710651  0.87614945  1
  La  La51  1  0.49518057  0.01299479  0.13150051  1
  La  La52  1  1.00475335  0.84206290  0.62264405  1
  La  La53  1  0.65962483  0.81399598  0.87968506  1
  La  La54  1  0.16339577  0.35045382  0.12665243  1
  La  La55  1  -0.00304769  0.15407324  0.37266538  1
  La  La56  1  0.82703586  0.01428331  0.63330530  1
  La  La57  1  0.33730476  0.17978157  0.62140659  1
  La  La58  1  0.32811216  0.49023815  0.87606285  1
  La  La59  1  0.66554817  0.48315287  0.87768124  1
  La  La60  1  0.84161728  0.65187354  0.87783866  1
  La  La61  1  0.83561386  0.98527369  0.87940308  1
  La  La62  1  0.67603189  0.51899371  0.62264047  1
  La  La63  1  0.33214514  0.82186474  0.37610042  1
  La  La64  1  0.66423628  0.15351420  0.87354749  1
  La  La65  1  1.00301559  0.84744558  0.12468569  1
  La  La66  1  0.66122420  0.48222408  0.37588739  1
  La  La67  1  0.83591392  0.31985883  0.37096220  1
  La  La68  1  0.16254807  0.35102886  0.62073093  1
  La  La69  1  0.33985442  0.51744106  0.12868882  1
  La  La70  1  0.50001804  0.32959282  0.87538340  1
  La  La71  1  0.84297275  0.31531633  0.87418271  1
  In  In72  1  0.00033819  0.33473292  0.00118672  1
  In  In73  1  0.66601116  -0.00158747  -0.00139163  1
  In  In74  1  0.33153632  0.33513127  0.24657872  1
  In  In75  1  -0.00262473  0.66792102  0.75174090  1
  In  In76  1  -0.00098314  0.32957523  0.74780882  1
  In  In77  1  -0.00313972  0.00258619  -0.00080626  1
  In  In78  1  0.66712718  -0.00310553  0.50619053  1
  In  In79  1  0.83015648  0.49613492  0.75239619  1
  In  In80  1  0.16737259  0.50161359  0.75217368  1
  In  In81  1  0.33321030  -0.00023996  0.00031609  1
  In  In82  1  0.50328226  0.83569623  0.75254505  1
  In  In83  1  0.83067345  0.83393394  0.75305343  1
  In  In84  1  0.50153147  0.50057116  0.00080660  1
  In  In85  1  0.16913353  0.17165892  0.00156504  1
  In  In86  1  0.50477406  0.50072764  0.50323383  1
  In  In87  1  0.50348154  0.50109227  0.24939836  1
  In  In88  1  -0.00407922  0.00172608  0.74775460  1
  In  In89  1  0.16404861  0.83355819  0.50127597  1
  In  In90  1  -0.00067129  0.33221049  0.24884716  1
  In  In91  1  0.33433624  0.33103643  0.74870070  1
  In  In92  1  0.49837976  0.16958340  -0.00410517  1
  In  In93  1  -0.00447817  0.66306159  0.50103359  1
  In  In94  1  0.83388861  0.16588250  0.49969384  1
  In  In95  1  0.16360204  0.83200675  0.25061766  1
  In  In96  1  0.50490459  0.49930227  0.75004459  1
  In  In97  1  0.33290051  0.33416354  0.50055204  1
  In  In98  1  0.16582924  0.50326463  0.25117885  1
  In  In99  1  0.83258405  0.83554604  0.25060534  1
  In  In100  1  -0.00145018  0.00058139  0.50129342  1
  In  In101  1  0.33022947  0.00137264  0.49705953  1
  In  In102  1  0.83362314  0.50059289  0.25132031  1
  In  In103  1  0.00056191  0.00149271  0.25128397  1
  In  In104  1  0.33699223  0.66715148  0.75071326  1
  In  In105  1  0.50013314  0.16492843  0.74896757  1
  In  In106  1  0.33630475  0.67038669  0.00263435  1
  In  In107  1  0.33145174  0.00235627  0.25216703  1
  Ir  Ir108  1  0.82646157  0.16713015  0.25238976  1
  Ir  Ir109  1  0.50088372  0.83474284  0.24814143  1
  Ir  Ir110  1  0.82866162  0.16828888  -0.00520355  1
  Ir  Ir111  1  0.67144600  0.32969538  0.75150182  1
  Ir  Ir112  1  0.00130389  0.33374630  0.49659528  1
  Ir  Ir113  1  0.16707539  0.16735025  0.25132069  1
  Ir  Ir114  1  -0.00396892  0.66408372  0.00581861  1
  Ir  Ir115  1  0.50270760  0.16722769  0.24768295  1
  Ir  Ir116  1  0.82928099  0.16520431  0.75045474  1
  Ir  Ir117  1  0.16485123  0.83058049  0.00067293  1
  Ir  Ir118  1  0.66619670  0.00283154  0.75064414  1
  Ir  Ir119  1  0.16811316  0.83503602  0.74946308  1
  Ir  Ir120  1  0.83213188  0.50154649  -0.00095081  1
  Ir  Ir121  1  0.67002802  0.66820706  0.24926664  1
  Ir  Ir122  1  0.67458772  0.66690719  -0.00008430  1
  Ir  Ir123  1  0.67194930  0.66553939  0.75213492  1
  Ir  Ir124  1  0.49904162  0.83168663  0.49859965  1
  Ir  Ir125  1  0.83603717  0.83167970  0.50243033  1
  Ir  Ir126  1  0.67102210  0.33038047  0.25146084  1
  Ir  Ir127  1  0.50543853  0.16428073  0.50054728  1
  Ir  Ir128  1  0.33175579  0.33559185  -0.00023572  1
  Ir  Ir129  1  0.33202822  0.66909447  0.49727579  1
  Ir  Ir130  1  0.67277237  0.66719252  0.50060605  1
  Ir  Ir131  1  0.50377993  0.83407914  0.00587107  1
  Ir  Ir132  1  0.16917451  0.49992532  0.00314382  1
  Ir  Ir133  1  0.66218093  0.00226911  0.24902578  1
  Ir  Ir134  1  0.16382457  0.16771952  0.49972684  1
  Ir  Ir135  1  0.16409666  0.50106043  0.49959044  1
  Ir  Ir136  1  0.67266319  0.33406226  -0.00863571  1
  Ir  Ir137  1  0.82983541  0.49780866  0.49784875  1
  Ir  Ir138  1  -0.00351102  0.66567593  0.24753583  1
  Ir  Ir139  1  0.16666321  0.16439578  0.74156562  1
  Ir  Ir140  1  0.33471725  0.67099476  0.25361779  1
  Ir  Ir141  1  0.33111329  -0.00029126  0.74538652  1
  Ir  Ir142  1  0.67048750  0.33093433  0.49997012  1
  Ir  Ir143  1  0.83115432  0.83114839  -0.00014777  1
  O  O144  1  0.29910612  0.31732611  0.11646697  1
  O  O145  1  0.29717661  0.31802679  0.62303610  1
  O  O146  1  0.31699129  0.66389568  0.13328107  1
  O  O147  1  0.31618521  0.67246454  0.61687608  1
  O  O148  1  0.31477280  0.98153973  0.12706835  1
  O  O149  1  0.31703359  0.98067636  0.62451865  1
  O  O150  1  0.65131154  0.32972263  0.12471141  1
  O  O151  1  0.64966060  0.31325879  0.62607175  1
  O  O152  1  0.64865561  0.66476294  0.12513890  1
  O  O153  1  0.64847873  0.65624244  0.62622729  1
  O  O154  1  0.63460859  1.00146265  0.12759942  1
  O  O155  1  0.62861600  0.99736339  0.63397255  1
  O  O156  1  0.97451958  0.33014069  0.12460450  1
  O  O157  1  0.97784288  0.32019088  0.61735302  1
  O  O158  1  0.96509534  0.65161721  0.12676621  1
  O  O159  1  0.96165805  0.66343785  0.62537289  1
  O  O160  1  0.97812513  0.99081480  0.12409219  1
  O  O161  1  0.96029567  0.98687336  0.62541462  1
  O  O162  1  0.20096241  0.15885432  0.13258453  1
  O  O163  1  0.19960451  0.15979407  0.62064042  1
  O  O164  1  0.19897530  0.49711112  0.12082613  1
  O  O165  1  0.18442872  0.49629915  0.61964534  1
  O  O166  1  0.19391310  0.83271953  0.12067787  1
  O  O167  1  0.19939233  0.83515347  0.63036733  1
  O  O168  1  0.52140844  0.16301766  0.12740699  1
  O  O169  1  0.53223048  0.15355004  0.62093967  1
  O  O170  1  0.52385997  0.49836596  0.12485685  1
  O  O171  1  0.54300453  0.49765515  0.62575092  1
  O  O172  1  0.52337081  0.83961958  0.12602572  1
  O  O173  1  0.51365221  0.83792576  0.61975066  1
  O  O174  1  0.84992613  0.16732053  0.12041317  1
  O  O175  1  0.86568265  0.15648865  0.63111607  1
  O  O176  1  0.86352713  0.49613935  0.11988734  1
  O  O177  1  0.84774700  0.49836032  0.61806952  1
  O  O178  1  0.86446542  0.82377489  0.11986554  1
  O  O179  1  0.86546531  0.82389819  0.62286293  1
  O  O180  1  0.13183702  0.17397156  0.37703050  1
  O  O181  1  0.13647512  0.16956479  0.86130682  1
  O  O182  1  0.13436855  0.49986442  0.37886412  1
  O  O183  1  0.14961775  0.49939352  0.88544376  1
  O  O184  1  0.12607277  0.84256590  0.37523105  1
  O  O185  1  0.14476573  0.83065843  0.87527125  1
  O  O186  1  0.48744481  0.16710325  0.37489187  1
  O  O187  1  0.46259070  0.18356946  0.87201606  1
  O  O188  1  0.49487241  0.49903522  0.37559475  1
  O  O189  1  0.47050899  0.49146151  0.87795714  1
  O  O190  1  0.47120742  0.83079690  0.37194272  1
  O  O191  1  0.48640185  0.82975098  0.88579772  1
  O  O192  1  0.79570071  0.17269349  0.37168050  1
  O  O193  1  0.79812386  0.17755781  0.87228228  1
  O  O194  1  0.79842277  0.50162235  0.38038292  1
  O  O195  1  0.79829814  0.51410754  0.88085195  1
  O  O196  1  0.81497708  0.83313857  0.38263497  1
  O  O197  1  0.79553772  0.84178613  0.88143991  1
  O  O198  1  0.03409919  0.01351980  0.37660907  1
  O  O199  1  0.01384387  0.01855559  0.87257150  1
  O  O200  1  0.02409338  0.34553500  0.37778027  1
  O  O201  1  0.01495740  0.32289717  0.87498476  1
  O  O202  1  0.01547235  0.68024529  0.36862984  1
  O  O203  1  0.01667405  0.66798591  0.88714306  1
  O  O204  1  0.35706136  0.01095630  0.37479416  1
  O  O205  1  0.35194654  0.01116347  0.86766003  1
  O  O206  1  0.34652080  0.33272115  0.37390436  1
  O  O207  1  0.36400433  0.34840388  0.88150040  1
  O  O208  1  0.35678761  0.68077285  0.37475654  1
  O  O209  1  0.35339287  0.67326186  0.87813147  1
  O  O210  1  0.68050612  0.01004153  0.37311036  1
  O  O211  1  0.70080823  0.01163242  0.86779369  1
  O  O212  1  0.69937387  0.34164098  0.37632091  1
  O  O213  1  0.70650234  0.34443654  0.87115332  1
  O  O214  1  0.69021520  0.67383678  0.37430148  1
  O  O215  1  0.70394110  0.67764898  0.87607573  1
  O  O216  1  0.07041801  0.09959388  0.00684203  1
  O  O217  1  0.06804705  0.10739114  0.52159216  1
  O  O218  1  0.07528856  0.43327455  0.02900274  1
  O  O219  1  0.07391904  0.42643274  0.52296119  1
  O  O220  1  0.06474107  0.76032968  0.02868333  1
  O  O221  1  0.06759897  0.76045166  0.52437683  1
  O  O222  1  0.40909551  0.09247505  0.02998448  1
  O  O223  1  0.41289931  0.09262800  0.52938891  1
  O  O224  1  0.39325440  0.42836566  0.02736058  1
  O  O225  1  0.41345222  0.42256454  0.51888496  1
  O  O226  1  0.40679582  0.77251143  0.02963577  1
  O  O227  1  0.39732256  0.76800862  0.51524547  1
  O  O228  1  0.73867103  0.09890196  0.00732547  1
  O  O229  1  0.74329575  0.08915347  0.53531173  1
  O  O230  1  0.73670488  0.43373281  0.01120893  1
  O  O231  1  0.73140263  0.43308728  0.52046553  1
  O  O232  1  0.74459160  0.75797215  0.02408559  1
  O  O233  1  0.74733221  0.75679923  0.52926033  1
  O  O234  1  0.10414869  0.26993155  0.02436651  1
  O  O235  1  0.09730719  0.26560557  0.52637467  1
  O  O236  1  0.08920875  0.58784468  0.03132897  1
  O  O237  1  0.09174968  0.58787002  0.51353356  1
  O  O238  1  0.08653755  0.91419408  0.01520276  1
  O  O239  1  0.08541729  0.92286805  0.53126324  1
  O  O240  1  0.42228023  0.26660232  0.02054207  1
  O  O241  1  0.42630575  0.24669177  0.52043250  1
  O  O242  1  0.42246278  0.58930539  0.02580736  1
  O  O243  1  0.42107929  0.59619513  0.51057137  1
  O  O244  1  0.43683307  0.92804874  0.02460340  1
  O  O245  1  0.42808759  0.92142582  0.51894562  1
  O  O246  1  0.76665368  0.26606700  0.00468539  1
  O  O247  1  0.75853231  0.25831117  0.51623033  1
  O  O248  1  0.77163435  0.60130115  0.02270379  1
  O  O249  1  0.76696121  0.59703716  0.52639265  1
  O  O250  1  0.76407055  0.92482683  0.01692453  1
  O  O251  1  0.76950244  0.92635069  0.52784724  1
  O  O252  1  0.22655015  0.07008732  0.27515846  1
  O  O253  1  0.23854169  0.07306449  0.76899602  1
  O  O254  1  0.23162965  0.40291011  0.25188928  1
  O  O255  1  0.24709631  0.41062397  0.76748921  1
  O  O256  1  0.24698548  0.74304572  0.27230477  1
  O  O257  1  0.23806584  0.74727471  0.76263263  1
  O  O258  1  0.56938129  0.07229692  0.26572518  1
  O  O259  1  0.57882590  0.07407193  0.77741067  1
  O  O260  1  0.58396239  0.40229187  0.27003844  1
  O  O261  1  0.57949965  0.39491441  0.78104126  1
  O  O262  1  0.57510227  0.74031267  0.26459585  1
  O  O263  1  0.58385561  0.74083072  0.77009847  1
  O  O264  1  0.90258664  0.08109210  0.27026577  1
  O  O265  1  0.88730293  0.06964319  0.77202257  1
  O  O266  1  0.90421860  0.40582892  0.28353336  1
  O  O267  1  0.89830443  0.39722005  0.76974626  1
  O  O268  1  0.90708734  0.73472573  0.25933808  1
  O  O269  1  0.89864653  0.73592065  0.77778779  1
  O  O270  1  0.26021633  0.23019459  0.25929986  1
  O  O271  1  0.26182019  0.22694020  0.76828461  1
  O  O272  1  0.26514824  0.57868871  0.26542291  1
  O  O273  1  0.26605879  0.57025677  0.77355703  1
  O  O274  1  0.26105917  0.90365641  0.27964307  1
  O  O275  1  0.26164963  0.90701436  0.76784071  1
  O  O276  1  0.59977882  0.23512037  0.27271357  1
  O  O277  1  0.60464085  0.23574695  0.77036768  1
  O  O278  1  0.60615047  0.57413059  0.27218455  1
  O  O279  1  0.60964160  0.56906671  0.77667724  1
  O  O280  1  0.59451749  0.90635234  0.26667923  1
  O  O281  1  0.60436434  0.90657291  0.77878588  1
  O  O282  1  0.92088381  0.23592370  0.28004533  1
  O  O283  1  0.92674860  0.22644918  0.77279134  1
  O  O284  1  0.93750485  0.56692954  0.27244488  1
  O  O285  1  0.91808797  0.57489652  0.77564595  1
  O  O286  1  0.93129193  0.90080286  0.27369388  1
  O  O287  1  0.91623441  0.91322783  0.77968318  1
  O  O288  1  0.25613263  0.23113589  0.48691340  1
  O  O289  1  0.27306351  0.23928290  0.97015487  1
  O  O290  1  0.25892891  0.57395893  0.47964310  1
  O  O291  1  0.26307313  0.56540485  0.98351688  1
  O  O292  1  0.25592484  0.90830818  0.46603198  1
  O  O293  1  0.25317675  0.90407647  0.98607490  1
  O  O294  1  0.60593720  0.23045331  0.48015995  1
  O  O295  1  0.59858026  0.24599453  0.96295816  1
  O  O296  1  0.61115365  0.57045081  0.48227990  1
  O  O297  1  0.60721484  0.57360501  0.97433891  1
  O  O298  1  0.58895948  0.90367721  0.48644427  1
  O  O299  1  0.59864874  0.89804709  0.97785029  1
  O  O300  1  0.93147579  0.24268461  0.47038456  1
  O  O301  1  0.92399957  0.23263898  0.97262221  1
  O  O302  1  0.92665979  0.55996078  0.47401430  1
  O  O303  1  0.92547196  0.57026469  0.98002300  1
  O  O304  1  0.92807176  0.89758812  0.47660867  1
  O  O305  1  0.91624492  0.90596909  0.98005796  1
  O  O306  1  0.22390227  0.07068626  0.47649246  1
  O  O307  1  0.24683139  0.08209729  0.97578126  1
  O  O308  1  0.23422958  0.41171549  0.49042998  1
  O  O309  1  0.23978649  0.40751394  0.97762065  1
  O  O310  1  0.24614913  0.74337852  0.47702291  1
  O  O311  1  0.23735299  0.74424108  0.98986416  1
  O  O312  1  0.57774975  0.07776872  0.48408007  1
  O  O313  1  0.57917818  0.08093496  0.97306768  1
  O  O314  1  0.58514974  0.40276066  0.47976178  1
  O  O315  1  0.57789342  0.40091475  0.97121058  1
  O  O316  1  0.57559196  0.73988364  0.48531898  1
  O  O317  1  0.57997284  0.74014254  0.98087795  1
  O  O318  1  0.91262665  0.08091366  0.47127722  1
  O  O319  1  0.89469169  0.07558224  0.97290718  1
  O  O320  1  0.90010393  0.40250016  0.47010866  1
  O  O321  1  0.89591395  0.40717871  0.97186229  1
  O  O322  1  0.90437836  0.74359950  0.48091388  1
  O  O323  1  0.89785175  0.73116445  0.98226408  1
  O  O324  1  0.10423024  0.26406713  0.22648746  1
  O  O325  1  0.09996771  0.25495580  0.71338431  1
  O  O326  1  0.08600231  0.59653700  0.23095588  1
  O  O327  1  0.08954517  0.59265054  0.73911576  1
  O  O328  1  0.09133375  0.92494608  0.22595381  1
  O  O329  1  0.09030930  0.91967035  0.73237588  1
  O  O330  1  0.42634300  0.25243150  0.22866893  1
  O  O331  1  0.42053444  0.24965362  0.71805852  1
  O  O332  1  0.42120486  0.59693588  0.23717531  1
  O  O333  1  0.43293974  0.59422336  0.73281604  1
  O  O334  1  0.43301311  0.92563246  0.22588309  1
  O  O335  1  0.42811280  0.93436336  0.72811639  1
  O  O336  1  0.76348127  0.26287299  0.23895877  1
  O  O337  1  0.76457141  0.26008464  0.73095275  1
  O  O338  1  0.76458967  0.60136979  0.22772542  1
  O  O339  1  0.76200540  0.59842098  0.72634102  1
  O  O340  1  0.75417637  0.93237715  0.23635756  1
  O  O341  1  0.75842943  0.93684453  0.72572192  1
  O  O342  1  0.07225229  0.10536628  0.23981929  1
  O  O343  1  0.06714053  0.10256489  0.72062276  1
  O  O344  1  0.06718288  0.43345156  0.22262813  1
  O  O345  1  0.08048664  0.41634705  0.73009856  1
  O  O346  1  0.05942761  0.76172053  0.22420759  1
  O  O347  1  0.07282130  0.76869385  0.72533879  1
  O  O348  1  0.40968513  0.09701490  0.21969134  1
  O  O349  1  0.40052913  0.08947715  0.71937548  1
  O  O350  1  0.40262398  0.43170005  0.22408156  1
  O  O351  1  0.41634214  0.41827562  0.73271615  1
  O  O352  1  0.40016236  0.77157850  0.23263806  1
  O  O353  1  0.40519087  0.76875395  0.72972614  1
  O  O354  1  0.72896128  0.09896829  0.23597045  1
  O  O355  1  0.73056153  0.10079255  0.72245512  1
  O  O356  1  0.73811978  0.42306714  0.23900262  1
  O  O357  1  0.72697925  0.43001408  0.72991218  1
  O  O358  1  0.74330928  0.75513835  0.22984024  1
  O  O359  1  0.73912883  0.75649425  0.73078696  1
