# generated using pymatgen
data_BaLaInIrO6
_symmetry_space_group_name_H-M   'P 1'
_cell_length_a   17.52598345
_cell_length_b   17.54970415
_cell_length_c   16.50686085
_cell_angle_alpha   90.05112950
_cell_angle_beta   89.98560270
_cell_angle_gamma   89.98548623
_symmetry_Int_Tables_number   1
_chemical_formula_structural   BaLaInIrO6
_chemical_formula_sum   'Ba36 La36 In36 Ir36 O216'
_cell_volume   5077.10899239
_cell_formula_units_Z   36
loop_
 _symmetry_equiv_pos_site_id
 _symmetry_equiv_pos_as_xyz
  1  'x, y, z'
loop_
 _atom_site_type_symbol
 _atom_site_label
 _atom_site_symmetry_multiplicity
 _atom_site_fract_x
 _atom_site_fract_y
 _atom_site_fract_z
 _atom_site_occupancy
  Ba  Ba0  1  0.33271146  0.84314813  0.12487739  1
  Ba  Ba1  1  0.49834176  0.32630917  0.37542174  1
  Ba  Ba2  1  0.66659275  0.48824732  0.87694064  1
  Ba  Ba3  1  0.83568205  0.65759800  0.87837815  1
  Ba  Ba4  1  0.83548201  0.34292122  0.13175876  1
  Ba  Ba5  1  0.99826901  0.50676674  0.62595969  1
  Ba  Ba6  1  0.66490874  0.16450942  0.37217436  1
  Ba  Ba7  1  0.50318288  0.67489229  0.62168189  1
  Ba  Ba8  1  0.16268244  0.00775720  0.62408660  1
  Ba  Ba9  1  0.50284083  0.65881512  0.37193672  1
  Ba  Ba10  1  0.83548427  0.32021670  0.37550670  1
  Ba  Ba11  1  0.33200037  0.82676721  0.87874278  1
  Ba  Ba12  1  0.33016991  0.49072289  0.87437445  1
  Ba  Ba13  1  0.99804974  0.83633345  0.62925304  1
  Ba  Ba14  1  0.33495459  0.15928004  0.37378172  1
  Ba  Ba15  1  0.16141472  0.33035790  0.87254315  1
  Ba  Ba16  1  0.82684628  0.67423159  0.62738306  1
  Ba  Ba17  1  0.16239153  0.00763793  0.12285403  1
  Ba  Ba18  1  0.16575351  0.99127626  0.87455613  1
  Ba  Ba19  1  0.16939908  0.66096369  0.87534276  1
  Ba  Ba20  1  0.99897429  0.83849624  0.12476181  1
  Ba  Ba21  1  0.49728966  0.01034752  0.12321758  1
  Ba  Ba22  1  0.16587610  0.67226046  0.62881592  1
  Ba  Ba23  1  0.66405866  0.82668443  0.37268908  1
  Ba  Ba24  1  1.00168999  0.50693663  0.12365123  1
  Ba  Ba25  1  0.00151943  0.82339899  0.87753694  1
  Ba  Ba26  1  0.50257798  0.33847861  0.62584894  1
  Ba  Ba27  1  0.66911393  0.16065197  0.87048037  1
  Ba  Ba28  1  0.83062398  0.01110410  0.12643538  1
  Ba  Ba29  1  0.66712867  0.49086885  0.37937821  1
  Ba  Ba30  1  0.33110018  0.17410371  0.12299052  1
  Ba  Ba31  1  0.33538477  0.50812520  0.12606836  1
  Ba  Ba32  1  0.49738732  0.34071169  0.12999323  1
  Ba  Ba33  1  0.66651826  0.17462317  0.62330306  1
  Ba  Ba34  1  0.83109428  0.98922053  0.37283728  1
  Ba  Ba35  1  0.83944679  0.32958949  0.87571473  1
  La  La36  1  -0.00695264  0.14892671  0.37400365  1
  La  La37  1  0.82290073  0.34731217  0.62619786  1
  La  La38  1  0.34161940  0.49349267  0.37629436  1
  La  La39  1  0.33450723  0.18017584  0.62710610  1
  La  La40  1  0.16812896  0.67988442  0.12372147  1
  La  La41  1  0.49831964  0.01572490  0.62472022  1
  La  La42  1  0.83712491  0.98099261  0.87443703  1
  La  La43  1  0.33672298  0.51257823  0.62736361  1
  La  La44  1  0.33758655  0.85337359  0.62914334  1
  La  La45  1  0.00444488  0.49979168  0.88294336  1
  La  La46  1  0.65946471  0.82076991  0.87627462  1
  La  La47  1  -0.00469650  0.81646218  0.37569377  1
  La  La48  1  0.67394272  0.85068957  0.12575178  1
  La  La49  1  0.50873714  0.64812826  0.87475492  1
  La  La50  1  0.83521161  0.68131456  0.12256282  1
  La  La51  1  -0.00755615  0.47982493  0.37448171  1
  La  La52  1  0.66990740  0.51214779  0.62808359  1
  La  La53  1  0.16779643  0.98128174  0.37403931  1
  La  La54  1  0.16364214  0.34876680  0.62180281  1
  La  La55  1  0.67191679  0.18499183  0.12867137  1
  La  La56  1  0.17244875  0.64348294  0.37336287  1
  La  La57  1  0.50247803  0.98823361  0.87526439  1
  La  La58  1  1.00811592  0.18083378  0.13074091  1
  La  La59  1  1.00431950  0.18034213  0.62134287  1
  La  La60  1  0.67433232  0.51351604  0.13367661  1
  La  La61  1  0.33109076  0.81708136  0.37278330  1
  La  La62  1  0.49695981  0.67835919  0.12481797  1
  La  La63  1  0.83451670  0.65263684  0.37099797  1
  La  La64  1  0.82923154  0.01377530  0.62419984  1
  La  La65  1  0.67812248  0.85122979  0.62765714  1
  La  La66  1  0.16346392  0.35098838  0.12415712  1
  La  La67  1  0.17119114  0.31892598  0.37436489  1
  La  La68  1  0.50744867  0.99116239  0.36773931  1
  La  La69  1  0.50364266  0.31958243  0.87886743  1
  La  La70  1  -0.01313497  0.14826575  0.87431257  1
  La  La71  1  0.33031538  0.15900153  0.87543655  1
  In  In72  1  0.66488038  0.33220930  0.75296473  1
  In  In73  1  0.50233251  0.49732195  0.00320470  1
  In  In74  1  0.32976964  0.33607617  0.24723670  1
  In  In75  1  0.49978803  0.83282606  0.24667253  1
  In  In76  1  0.33299322  0.00063190  0.25135327  1
  In  In77  1  -0.00113667  0.66465206  0.74954683  1
  In  In78  1  -0.00242127  -0.00102911  0.74465151  1
  In  In79  1  0.83548223  0.83326446  0.50039158  1
  In  In80  1  0.33852037  0.67008871  0.74945464  1
  In  In81  1  0.66832939  0.67114224  0.49756208  1
  In  In82  1  -0.00420901  -0.00029216  0.00165323  1
  In  In83  1  0.83674893  0.50356345  0.50022872  1
  In  In84  1  0.83372313  0.49996617  0.75295357  1
  In  In85  1  0.33367836  0.00131377  0.49759114  1
  In  In86  1  0.16941362  0.83292847  0.74876143  1
  In  In87  1  0.66592868  0.33260641  0.49948217  1
  In  In88  1  0.50202483  0.50009963  0.50337364  1
  In  In89  1  0.33813029  0.66694779  0.00042584  1
  In  In90  1  0.00340061  0.66190946  0.25038335  1
  In  In91  1  0.66573236  0.00433042  0.49942374  1
  In  In92  1  0.33298666  0.00237134  -0.00144114  1
  In  In93  1  -0.00153912  0.33247087  0.74527597  1
  In  In94  1  0.16369928  0.16917904  0.74746716  1
  In  In95  1  -0.00144400  -0.00522674  0.25218665  1
  In  In96  1  0.16252721  0.17031116  -0.00328794  1
  In  In97  1  0.66573715  0.00587704  -0.00184750  1
  In  In98  1  0.50425447  0.83570096  0.74637435  1
  In  In99  1  0.32820226  0.33530194  0.50271360  1
  In  In100  1  0.16713915  0.82839244  0.49712578  1
  In  In101  1  0.83169556  0.49977539  0.00492661  1
  In  In102  1  0.49941099  0.83706326  0.50186442  1
  In  In103  1  0.83247617  0.16739747  0.00201274  1
  In  In104  1  0.66600864  0.66766088  0.00327159  1
  In  In105  1  0.33161279  0.66750458  0.50061983  1
  In  In106  1  0.00126019  0.33252614  -0.00075399  1
  In  In107  1  0.50033089  0.16835788  0.24606132  1
  Ir  Ir108  1  0.16461366  0.49787156  0.25133637  1
  Ir  Ir109  1  0.00011918  0.00045902  0.49785021  1
  Ir  Ir110  1  0.49968123  0.49775803  0.75179332  1
  Ir  Ir111  1  0.50505283  0.50303431  0.24842253  1
  Ir  Ir112  1  0.66405773  0.33234337  0.00341410  1
  Ir  Ir113  1  0.17140037  0.49621758  0.74680193  1
  Ir  Ir114  1  0.33458559  0.33277568  0.75133106  1
  Ir  Ir115  1  0.84203543  0.16462188  0.50055524  1
  Ir  Ir116  1  0.33679827  0.00653485  0.74910924  1
  Ir  Ir117  1  0.16052888  0.16797004  0.25534372  1
  Ir  Ir118  1  0.50028888  0.17057467  -0.00518765  1
  Ir  Ir119  1  0.33191372  0.66186912  0.24935217  1
  Ir  Ir120  1  0.16117930  0.49521862  0.49592088  1
  Ir  Ir121  1  0.82580901  0.83388704  0.75406498  1
  Ir  Ir122  1  0.50336334  0.83414693  -0.00263699  1
  Ir  Ir123  1  0.83520823  0.50049465  0.25179534  1
  Ir  Ir124  1  0.83583620  0.16260413  0.74621708  1
  Ir  Ir125  1  0.82841365  0.83190905  0.00186794  1
  Ir  Ir126  1  0.49564104  0.16634002  0.50395919  1
  Ir  Ir127  1  0.66728485  0.33636976  0.24753161  1
  Ir  Ir128  1  0.00274826  0.66543753  0.00396638  1
  Ir  Ir129  1  0.82957514  0.82717828  0.24974535  1
  Ir  Ir130  1  0.66829276  0.00257013  0.75255806  1
  Ir  Ir131  1  0.16925028  0.50095760  0.00122332  1
  Ir  Ir132  1  0.49404444  0.16609899  0.75153921  1
  Ir  Ir133  1  0.00464467  0.33216930  0.25465656  1
  Ir  Ir134  1  0.66775362  0.66575929  0.24528487  1
  Ir  Ir135  1  0.00211720  0.32910470  0.49812538  1
  Ir  Ir136  1  0.16218060  0.16592706  0.49700510  1
  Ir  Ir137  1  0.16480157  0.82949372  0.25330260  1
  Ir  Ir138  1  0.33375986  0.33425630  -0.00462377  1
  Ir  Ir139  1  0.66824267  0.00164455  0.24903646  1
  Ir  Ir140  1  0.00533295  0.66364877  0.49470435  1
  Ir  Ir141  1  0.83632461  0.16746795  0.25376464  1
  Ir  Ir142  1  0.66384461  0.66775817  0.75380192  1
  Ir  Ir143  1  0.16589523  0.83107216  0.00432935  1
  O  O144  1  0.30215385  0.33238513  0.11668803  1
  O  O145  1  0.30146973  0.32128291  0.63131515  1
  O  O146  1  0.30356623  0.66238040  0.13051652  1
  O  O147  1  0.31310838  0.64659785  0.62457033  1
  O  O148  1  0.31232937  1.00312005  0.12395267  1
  O  O149  1  0.31069089  0.99871261  0.62957362  1
  O  O150  1  0.64420019  0.32477690  0.12457848  1
  O  O151  1  0.65425038  0.32632659  0.62680458  1
  O  O152  1  0.63335096  0.65392431  0.12888208  1
  O  O153  1  0.65402179  0.65320951  0.63335271  1
  O  O154  1  0.64975780  0.99072364  0.12889409  1
  O  O155  1  0.63740097  0.99466660  0.63216002  1
  O  O156  1  0.98491356  0.32162658  0.13525731  1
  O  O157  1  0.96565897  0.31718538  0.61341069  1
  O  O158  1  0.97398728  0.66488833  0.12427843  1
  O  O159  1  0.98029505  0.66119037  0.61426709  1
  O  O160  1  0.98076200  0.99463413  0.12820490  1
  O  O161  1  0.96525074  0.99323787  0.61546977  1
  O  O162  1  0.18000395  0.16264247  0.13611364  1
  O  O163  1  0.19686893  0.16223088  0.61591855  1
  O  O164  1  0.18959615  0.48798156  0.12694108  1
  O  O165  1  0.19875237  0.48794783  0.62108680  1
  O  O166  1  0.18587687  0.81956470  0.13116645  1
  O  O167  1  0.20178790  0.83337991  0.62010632  1
  O  O168  1  0.53335310  0.16584392  0.11373273  1
  O  O169  1  0.51757940  0.15551872  0.62879926  1
  O  O170  1  0.53695489  0.49767254  0.13095005  1
  O  O171  1  0.53327504  0.49324460  0.63534001  1
  O  O172  1  0.53545358  0.82353401  0.11725227  1
  O  O173  1  0.54511534  0.83688776  0.62642652  1
  O  O174  1  0.86705505  0.16838829  0.13449558  1
  O  O175  1  0.86851695  0.15115162  0.62307144  1
  O  O176  1  0.85123431  0.50377089  0.13377931  1
  O  O177  1  0.84474653  0.51241427  0.62554802  1
  O  O178  1  0.85040104  0.82153876  0.12605329  1
  O  O179  1  0.84691185  0.83358697  0.63398079  1
  O  O180  1  0.12793417  0.18102227  0.37700271  1
  O  O181  1  0.12356365  0.17562465  0.87103810  1
  O  O182  1  0.12941957  0.50404496  0.37329195  1
  O  O183  1  0.14059252  0.50219402  0.87436192  1
  O  O184  1  0.13192892  0.84034004  0.37047019  1
  O  O185  1  0.15299829  0.83214646  0.88463252  1
  O  O186  1  0.48564573  0.16576531  0.38347332  1
  O  O187  1  0.46636254  0.18002178  0.87280785  1
  O  O188  1  0.47624057  0.50553314  0.36843906  1
  O  O189  1  0.47919297  0.50932637  0.87170307  1
  O  O190  1  0.46648756  0.84376431  0.37283454  1
  O  O191  1  0.48324713  0.84621731  0.87625362  1
  O  O192  1  0.81523671  0.16623369  0.37865434  1
  O  O193  1  0.81883150  0.17313918  0.86521588  1
  O  O194  1  0.81926009  0.50376136  0.37133235  1
  O  O195  1  0.81834640  0.49479998  0.87932059  1
  O  O196  1  0.81406301  0.82508547  0.36944475  1
  O  O197  1  0.79581162  0.83980387  0.87841633  1
  O  O198  1  0.03101094  0.01033026  0.37797385  1
  O  O199  1  0.01413590  0.01185098  0.87360595  1
  O  O200  1  0.03491000  0.34221608  0.37699951  1
  O  O201  1  0.00955984  0.35868064  0.87069898  1
  O  O202  1  0.03452134  0.67559871  0.37573524  1
  O  O203  1  0.01953507  0.66315964  0.88475681  1
  O  O204  1  0.37161687  0.00444731  0.37630831  1
  O  O205  1  0.36733298  0.01416147  0.86914589  1
  O  O206  1  0.34159376  0.35410882  0.37568943  1
  O  O207  1  0.36764624  0.33687247  0.87248740  1
  O  O208  1  0.35227480  0.66609271  0.36832058  1
  O  O209  1  0.37231645  0.66835263  0.87523026  1
  O  O210  1  0.68404593  0.00798841  0.36824600  1
  O  O211  1  0.70151836  0.00642646  0.87087000  1
  O  O212  1  0.68637800  0.33279725  0.36813067  1
  O  O213  1  0.68722325  0.33096967  0.88314776  1
  O  O214  1  0.69890844  0.67257177  0.36219555  1
  O  O215  1  0.68458740  0.68156910  0.87391037  1
  O  O216  1  0.06244619  0.10230568  0.02321802  1
  O  O217  1  0.06367218  0.10002107  0.51955821  1
  O  O218  1  0.08089092  0.42972656  0.01509883  1
  O  O219  1  0.06938012  0.42240595  0.52212752  1
  O  O220  1  0.07944314  0.75193158  0.02745153  1
  O  O221  1  0.06578326  0.75909110  0.51215062  1
  O  O222  1  0.41116570  0.10280618  0.00796335  1
  O  O223  1  0.40265012  0.10076571  0.52914313  1
  O  O224  1  0.40375414  0.42234818  0.01534708  1
  O  O225  1  0.39395533  0.43538802  0.51933608  1
  O  O226  1  0.41756238  0.76162641  0.02431338  1
  O  O227  1  0.39086619  0.77418843  0.51685000  1
  O  O228  1  0.73118440  0.10319460  0.02676294  1
  O  O229  1  0.75195313  0.09316785  0.52092820  1
  O  O230  1  0.72610348  0.42769933  0.02831338  1
  O  O231  1  0.74195749  0.42841383  0.52691285  1
  O  O232  1  0.73380757  0.76706771  0.02505496  1
  O  O233  1  0.73406341  0.77129990  0.52527807  1
  O  O234  1  0.10061448  0.26899019  0.02923905  1
  O  O235  1  0.09696454  0.26222833  0.52451096  1
  O  O236  1  0.10094290  0.59865042  0.02539267  1
  O  O237  1  0.10165077  0.59723288  0.50899573  1
  O  O238  1  0.08995370  0.91672342  0.01246487  1
  O  O239  1  0.09100650  0.93282322  0.50852084  1
  O  O240  1  0.43152243  0.26687021  0.01142967  1
  O  O241  1  0.42025269  0.25433685  0.52070942  1
  O  O242  1  0.43451521  0.59721971  0.02784553  1
  O  O243  1  0.42355006  0.59044089  0.51478125  1
  O  O244  1  0.43363119  0.92585052  0.00762200  1
  O  O245  1  0.42611697  0.93108914  0.54123314  1
  O  O246  1  0.75504060  0.26303570  0.02365021  1
  O  O247  1  0.77583390  0.25752191  0.52134022  1
  O  O248  1  0.76269036  0.59828448  0.03080657  1
  O  O249  1  0.77263147  0.60705106  0.49457606  1
  O  O250  1  0.75834727  0.92235517  0.01725388  1
  O  O251  1  0.76155317  0.93142815  0.52520575  1
  O  O252  1  0.22388560  0.07185369  0.27917318  1
  O  O253  1  0.24813140  0.07881035  0.77239851  1
  O  O254  1  0.22500869  0.40128722  0.26749128  1
  O  O255  1  0.24255187  0.40144324  0.76360300  1
  O  O256  1  0.23425786  0.72986579  0.27412072  1
  O  O257  1  0.24608649  0.74310234  0.76895861  1
  O  O258  1  0.57667344  0.07031781  0.26777595  1
  O  O259  1  0.56477154  0.06895177  0.77356438  1
  O  O260  1  0.57515185  0.40945299  0.27058796  1
  O  O261  1  0.56277185  0.40313619  0.77757449  1
  O  O262  1  0.57704396  0.73612462  0.25999123  1
  O  O263  1  0.57143319  0.73491273  0.77770123  1
  O  O264  1  0.90706963  0.07837223  0.27427806  1
  O  O265  1  0.89413021  0.06581431  0.76860426  1
  O  O266  1  0.91147101  0.40831853  0.27700650  1
  O  O267  1  0.89775796  0.39593237  0.73993121  1
  O  O268  1  0.89969257  0.73404248  0.26725791  1
  O  O269  1  0.89765944  0.74446737  0.76804973  1
  O  O270  1  0.24811467  0.23973070  0.27353895  1
  O  O271  1  0.26828433  0.23935248  0.77311362  1
  O  O272  1  0.26159430  0.56404394  0.27875980  1
  O  O273  1  0.25989337  0.56637159  0.75939138  1
  O  O274  1  0.25755315  0.89704066  0.27875463  1
  O  O275  1  0.27130587  0.91509543  0.76485297  1
  O  O276  1  0.59637050  0.24537172  0.25720244  1
  O  O277  1  0.58151122  0.24014018  0.77079226  1
  O  O278  1  0.60223899  0.57081904  0.26674499  1
  O  O279  1  0.59311598  0.57225343  0.77395362  1
  O  O280  1  0.59481079  0.91351545  0.26479183  1
  O  O281  1  0.60175541  0.91132139  0.78147323  1
  O  O282  1  0.93649330  0.23507886  0.27676878  1
  O  O283  1  0.93464733  0.22221111  0.76348575  1
  O  O284  1  0.92856481  0.56851320  0.27879640  1
  O  O285  1  0.93582097  0.56620547  0.77675246  1
  O  O286  1  0.92588112  0.89377240  0.27522218  1
  O  O287  1  0.91398367  0.90549121  0.77429047  1
  O  O288  1  0.25043908  0.23763993  0.47781310  1
  O  O289  1  0.26765657  0.24319449  0.97203233  1
  O  O290  1  0.25584035  0.55916802  0.47064266  1
  O  O291  1  0.25736364  0.57329581  0.98651567  1
  O  O292  1  0.26182920  0.90398080  0.46392601  1
  O  O293  1  0.25156590  0.90742294  0.98913720  1
  O  O294  1  0.58656367  0.23512278  0.49016434  1
  O  O295  1  0.59264820  0.23950294  0.97774853  1
  O  O296  1  0.60309163  0.56899953  0.49978085  1
  O  O297  1  0.59102892  0.57718733  0.97814531  1
  O  O298  1  0.58456225  0.91986087  0.46883511  1
  O  O299  1  0.59526690  0.90466123  0.97625312  1
  O  O300  1  0.93956708  0.23100621  0.47627808  1
  O  O301  1  0.93573815  0.23037273  0.98085504  1
  O  O302  1  0.94150022  0.57027783  0.46991267  1
  O  O303  1  0.93541201  0.57406358  0.98457495  1
  O  O304  1  0.93615057  0.90368745  0.47334934  1
  O  O305  1  0.91587234  0.90340811  0.97917982  1
  O  O306  1  0.22555019  0.07161214  0.47223915  1
  O  O307  1  0.24567597  0.08488603  0.97230642  1
  O  O308  1  0.21879282  0.39633304  0.48457142  1
  O  O309  1  0.23703748  0.40225510  0.98309642  1
  O  O310  1  0.23438191  0.73180804  0.46265865  1
  O  O311  1  0.24094446  0.74379442  0.99615098  1
  O  O312  1  0.56112602  0.07226478  0.48959990  1
  O  O313  1  0.56360658  0.07443792  0.97021097  1
  O  O314  1  0.57066096  0.40433833  0.48447977  1
  O  O315  1  0.56976302  0.39654156  0.97908937  1
  O  O316  1  0.57160548  0.74110801  0.48054828  1
  O  O317  1  0.56827782  0.74174656  0.97419543  1
  O  O318  1  0.90972917  0.07030040  0.47775020  1
  O  O319  1  0.89422954  0.06650172  0.97196226  1
  O  O320  1  0.91405072  0.40334522  0.48219279  1
  O  O321  1  0.91123602  0.41061687  0.99882231  1
  O  O322  1  0.91129387  0.73160925  0.46902440  1
  O  O323  1  0.90135972  0.73301638  0.99358022  1
  O  O324  1  0.09823913  0.26583557  0.22791799  1
  O  O325  1  0.09433148  0.26404622  0.71144403  1
  O  O326  1  0.10777643  0.59764193  0.23087823  1
  O  O327  1  0.09864115  0.58185553  0.73571673  1
  O  O328  1  0.10186195  0.92540065  0.24095251  1
  O  O329  1  0.09006112  0.92298173  0.73535047  1
  O  O330  1  0.41947209  0.25852271  0.23748760  1
  O  O331  1  0.42103676  0.25746027  0.72632116  1
  O  O332  1  0.43442612  0.59727509  0.22383404  1
  O  O333  1  0.43150287  0.58705511  0.72954362  1
  O  O334  1  0.42630549  0.92411301  0.23021620  1
  O  O335  1  0.43251769  0.94084265  0.72978831  1
  O  O336  1  0.75573788  0.25698604  0.22781477  1
  O  O337  1  0.77188716  0.25753217  0.72552445  1
  O  O338  1  0.76635598  0.59847981  0.22551112  1
  O  O339  1  0.75055735  0.59455738  0.74225194  1
  O  O340  1  0.75659886  0.92066266  0.22736180  1
  O  O341  1  0.76021343  0.93277785  0.72584741  1
  O  O342  1  0.06519545  0.10525556  0.23830700  1
  O  O343  1  0.06440647  0.09953603  0.72123468  1
  O  O344  1  0.07264032  0.42601441  0.22956192  1
  O  O345  1  0.08570181  0.42245981  0.72494960  1
  O  O346  1  0.07459449  0.76097950  0.23540093  1
  O  O347  1  0.07525318  0.75364408  0.73842568  1
  O  O348  1  0.40912565  0.09377292  0.23277954  1
  O  O349  1  0.40041700  0.10039249  0.72452368  1
  O  O350  1  0.41016578  0.43549532  0.23957951  1
  O  O351  1  0.40366328  0.43070113  0.72488397  1
  O  O352  1  0.40535555  0.74923420  0.22845042  1
  O  O353  1  0.40627003  0.77051929  0.71740175  1
  O  O354  1  0.73781524  0.09950270  0.22719925  1
  O  O355  1  0.74340900  0.09077202  0.72229938  1
  O  O356  1  0.73690238  0.43299765  0.22858124  1
  O  O357  1  0.73493209  0.42825199  0.72575181  1
  O  O358  1  0.73641521  0.75764170  0.21458166  1
  O  O359  1  0.72457873  0.76896501  0.73528557  1
