# generated using pymatgen
data_BaLaInIrO6
_symmetry_space_group_name_H-M   'P 1'
_cell_length_a   17.51064930
_cell_length_b   17.54457531
_cell_length_c   16.48026120
_cell_angle_alpha   89.98359687
_cell_angle_beta   89.98906823
_cell_angle_gamma   89.99270605
_symmetry_Int_Tables_number   1
_chemical_formula_structural   BaLaInIrO6
_chemical_formula_sum   'Ba36 La36 In36 Ir36 O216'
_cell_volume   5063.01450457
_cell_formula_units_Z   36
loop_
 _symmetry_equiv_pos_site_id
 _symmetry_equiv_pos_as_xyz
  1  'x, y, z'
loop_
 _atom_site_type_symbol
 _atom_site_label
 _atom_site_symmetry_multiplicity
 _atom_site_fract_x
 _atom_site_fract_y
 _atom_site_fract_z
 _atom_site_occupancy
  Ba  Ba0  1  0.00172278  0.82534123  0.37431065  1
  Ba  Ba1  1  0.83592680  0.65742960  0.87039380  1
  Ba  Ba2  1  0.50058475  0.33887156  0.62089151  1
  Ba  Ba3  1  0.66112521  0.15595159  0.37911636  1
  Ba  Ba4  1  0.16312982  0.00707973  0.12679295  1
  Ba  Ba5  1  0.16603314  0.00682011  0.62470575  1
  Ba  Ba6  1  0.66465000  0.17655041  0.62611937  1
  Ba  Ba7  1  1.00244917  0.50544557  0.12231867  1
  Ba  Ba8  1  0.82722423  0.00844246  0.62881783  1
  Ba  Ba9  1  0.16817604  0.32239613  0.87785530  1
  Ba  Ba10  1  0.66566527  0.82013079  0.87242350  1
  Ba  Ba11  1  0.17340685  0.65783499  0.37394212  1
  Ba  Ba12  1  0.50585984  0.65629385  0.86786240  1
  Ba  Ba13  1  0.33747702  0.50425954  0.62335125  1
  Ba  Ba14  1  0.83650000  0.65858875  0.37793143  1
  Ba  Ba15  1  -0.00346254  0.15927902  0.37689205  1
  Ba  Ba16  1  0.33267830  0.84614313  0.12447233  1
  Ba  Ba17  1  0.83653672  0.33069793  0.87857433  1
  Ba  Ba18  1  0.99642201  0.84038971  0.12266695  1
  Ba  Ba19  1  0.16515909  0.99077784  0.87060978  1
  Ba  Ba20  1  0.33195584  0.48314091  0.87146786  1
  Ba  Ba21  1  0.49729634  0.32493379  0.37695675  1
  Ba  Ba22  1  0.66470917  0.84396576  0.62703462  1
  Ba  Ba23  1  0.33532005  0.83767683  0.62386681  1
  Ba  Ba24  1  0.49335465  0.01100250  0.62846813  1
  Ba  Ba25  1  0.50213894  0.66378790  0.37725478  1
  Ba  Ba26  1  0.50037147  0.98910285  0.37891393  1
  Ba  Ba27  1  0.49522147  0.00894168  0.12575847  1
  Ba  Ba28  1  0.33226233  0.82667563  0.37589866  1
  Ba  Ba29  1  0.00150285  0.49534116  0.37917298  1
  Ba  Ba30  1  -0.00238562  0.82327419  0.87517284  1
  Ba  Ba31  1  0.16821371  0.67532473  0.62791197  1
  Ba  Ba32  1  0.00165922  0.49436171  0.87729031  1
  Ba  Ba33  1  0.66649048  0.51232069  0.12423407  1
  Ba  Ba34  1  -0.00027853  0.15923527  0.87534691  1
  Ba  Ba35  1  0.16832607  0.32434349  0.37419905  1
  La  La36  1  0.66705462  0.48777801  0.37418774  1
  La  La37  1  0.83550011  0.98277508  0.38070741  1
  La  La38  1  0.66881133  0.18557791  0.12866812  1
  La  La39  1  0.16123063  0.68114200  0.12441620  1
  La  La40  1  0.49379984  0.34531919  0.12677085  1
  La  La41  1  0.82793630  0.01467816  0.12630431  1
  La  La42  1  0.83326439  0.35543040  0.12645595  1
  La  La43  1  0.32906413  0.15175880  0.87161333  1
  La  La44  1  1.00523887  0.51584024  0.62982712  1
  La  La45  1  0.33756444  0.17301552  0.12346129  1
  La  La46  1  0.33844602  0.18196823  0.62689002  1
  La  La47  1  0.66603780  0.49032990  0.87466694  1
  La  La48  1  0.16929471  0.34509522  0.12455529  1
  La  La49  1  0.16798046  0.34700563  0.62876949  1
  La  La50  1  0.32967213  0.82153006  0.87271304  1
  La  La51  1  0.83983030  0.66906113  0.11968474  1
  La  La52  1  0.66132395  0.14977722  0.87067172  1
  La  La53  1  0.49554182  0.68211103  0.62296857  1
  La  La54  1  0.34337377  0.51355694  0.12626376  1
  La  La55  1  0.17011564  0.98532806  0.37257916  1
  La  La56  1  0.84122160  0.98436828  0.87485732  1
  La  La57  1  0.99719924  0.18434068  0.62875145  1
  La  La58  1  1.00314804  0.18117289  0.12257559  1
  La  La59  1  0.50684986  0.31908378  0.87086955  1
  La  La60  1  1.00512875  0.84687324  0.62786425  1
  La  La61  1  0.82695740  0.35225326  0.62603349  1
  La  La62  1  0.49691874  0.68843776  0.11983514  1
  La  La63  1  0.84190661  0.32443678  0.37496441  1
  La  La64  1  0.66879690  0.51455162  0.61994418  1
  La  La65  1  0.66174357  0.82455907  0.37759872  1
  La  La66  1  0.17274944  0.65670148  0.87397152  1
  La  La67  1  0.50106041  0.98209333  0.87786889  1
  La  La68  1  0.83538257  0.68073424  0.62454446  1
  La  La69  1  0.32755380  0.15098288  0.38027758  1
  La  La70  1  0.67024931  0.84416024  0.12729516  1
  La  La71  1  0.32709055  0.48091307  0.37487698  1
  In  In72  1  0.49922746  0.49891738  -0.00393828  1
  In  In73  1  -0.00483510  0.00208193  0.25421163  1
  In  In74  1  0.66579945  0.33329750  -0.00147317  1
  In  In75  1  0.50128063  0.50381523  0.25128374  1
  In  In76  1  0.50065094  0.16564361  -0.00199849  1
  In  In77  1  0.83029036  0.83047417  0.00047262  1
  In  In78  1  0.33722326  0.66194481  0.75025722  1
  In  In79  1  0.83138710  0.16979719  0.75202737  1
  In  In80  1  -0.00074113  0.33682567  0.74970110  1
  In  In81  1  0.33611020  0.66268600  0.49835895  1
  In  In82  1  -0.00363813  0.00207468  0.00087343  1
  In  In83  1  0.83135957  0.83220132  0.74744428  1
  In  In84  1  0.83059780  0.16945462  0.00106197  1
  In  In85  1  0.50124239  0.50085106  0.49723457  1
  In  In86  1  0.66780223  0.66793796  0.24985818  1
  In  In87  1  0.33607091  0.66530239  0.24651947  1
  In  In88  1  0.16795751  0.83631699  -0.00289851  1
  In  In89  1  0.17154943  0.49975192  0.24588719  1
  In  In90  1  0.00195691  0.33564044  0.25160302  1
  In  In91  1  0.83212495  0.16745552  0.50226829  1
  In  In92  1  0.16581969  0.83275044  0.50343587  1
  In  In93  1  0.66426605  0.00081809  0.00196948  1
  In  In94  1  0.00006285  0.66887819  0.50061749  1
  In  In95  1  0.83103641  0.83145869  0.25100428  1
  In  In96  1  0.00102448  0.33403419  0.00165033  1
  In  In97  1  0.16799184  0.16722223  0.74810136  1
  In  In98  1  0.66416130  0.00220154  0.25039967  1
  In  In99  1  0.16333991  0.16605920  0.50161392  1
  In  In100  1  0.50146837  0.83398671  0.75057758  1
  In  In101  1  0.16701923  0.49835209  0.50060848  1
  In  In102  1  0.66688047  0.33549690  0.25074387  1
  In  In103  1  0.16540136  0.83254164  0.24900360  1
  In  In104  1  0.66872640  0.33373111  0.49903941  1
  In  In105  1  0.33464234  0.00234969  0.24927021  1
  In  In106  1  0.17326178  0.49957219  -0.00005304  1
  In  In107  1  0.83233590  0.16851675  0.25121699  1
  Ir  Ir108  1  0.66173248  0.66672387  -0.00296399  1
  Ir  Ir109  1  0.83371924  0.50254396  0.50258619  1
  Ir  Ir110  1  0.33782231  0.33216225  0.75280478  1
  Ir  Ir111  1  0.16769362  0.49867635  0.75024111  1
  Ir  Ir112  1  0.00105365  0.66337636  0.75165661  1
  Ir  Ir113  1  0.33555169  0.00285721  -0.00504140  1
  Ir  Ir114  1  0.50249611  0.83255097  0.24922924  1
  Ir  Ir115  1  -0.00332725  0.00109288  0.50344421  1
  Ir  Ir116  1  0.33450903  0.00091126  0.75092079  1
  Ir  Ir117  1  -0.00069090  0.66289478  0.24612890  1
  Ir  Ir118  1  0.16443272  0.83248334  0.75213283  1
  Ir  Ir119  1  0.17393455  0.16515310  0.00507704  1
  Ir  Ir120  1  0.49809669  0.16836722  0.25186206  1
  Ir  Ir121  1  0.49532393  0.16433926  0.50082988  1
  Ir  Ir122  1  0.33679533  0.32674837  0.00177561  1
  Ir  Ir123  1  0.33269857  0.32392285  0.24654583  1
  Ir  Ir124  1  0.16885988  0.16668945  0.24802241  1
  Ir  Ir125  1  0.83346160  0.50596547  0.25063577  1
  Ir  Ir126  1  0.82944169  0.50723300  -0.00093397  1
  Ir  Ir127  1  0.33297910  0.00138077  0.50278220  1
  Ir  Ir128  1  0.67225513  0.66902494  0.50403988  1
  Ir  Ir129  1  0.66560605  -0.00009034  0.50329783  1
  Ir  Ir130  1  0.50554480  0.49529193  0.74721058  1
  Ir  Ir131  1  0.33211133  0.32679201  0.49865240  1
  Ir  Ir132  1  0.83076482  0.83486749  0.50311574  1
  Ir  Ir133  1  -0.00391576  0.33701909  0.50502521  1
  Ir  Ir134  1  -0.00345774  0.00016403  0.74753479  1
  Ir  Ir135  1  0.66725067  0.33942267  0.74867076  1
  Ir  Ir136  1  0.66762203  0.65962779  0.74546923  1
  Ir  Ir137  1  0.50376537  0.83575018  0.49823207  1
  Ir  Ir138  1  0.49720561  0.83206178  0.00026426  1
  Ir  Ir139  1  0.00215072  0.66321199  -0.00059899  1
  Ir  Ir140  1  0.83173193  0.50310129  0.74617685  1
  Ir  Ir141  1  0.33335550  0.66763028  -0.00298102  1
  Ir  Ir142  1  0.66411169  0.00376329  0.75238660  1
  Ir  Ir143  1  0.49639323  0.16850832  0.75047838  1
  O  O144  1  0.30562675  0.30934295  0.12325455  1
  O  O145  1  0.30578201  0.31939751  0.62692155  1
  O  O146  1  0.30004193  0.65442358  0.11342269  1
  O  O147  1  0.31992010  0.66489667  0.62621771  1
  O  O148  1  0.31838231  1.00518921  0.11627751  1
  O  O149  1  0.31429374  0.99252905  0.62774367  1
  O  O150  1  0.62856670  0.32697953  0.12429464  1
  O  O151  1  0.64897375  0.34109115  0.63034556  1
  O  O152  1  0.63518612  0.66532853  0.11704996  1
  O  O153  1  0.63569935  0.65356001  0.62462256  1
  O  O154  1  0.63786748  0.97856854  0.12611664  1
  O  O155  1  0.64075075  1.00022893  0.62814589  1
  O  O156  1  0.96777454  0.32413141  0.12667835  1
  O  O157  1  0.96444754  0.32960415  0.62203731  1
  O  O158  1  0.97289208  0.66115315  0.12197072  1
  O  O159  1  0.97238104  0.65452659  0.63180519  1
  O  O160  1  0.96380859  0.99969624  0.12750807  1
  O  O161  1  0.97451200  0.98617184  0.62576895  1
  O  O162  1  0.20347962  0.15989273  0.12734602  1
  O  O163  1  0.20289917  0.16524994  0.62385336  1
  O  O164  1  0.20829077  0.49148802  0.12144969  1
  O  O165  1  0.18721478  0.49166029  0.63093267  1
  O  O166  1  0.18259349  0.82079704  0.12110627  1
  O  O167  1  0.18266389  0.83756250  0.63402292  1
  O  O168  1  0.52770361  0.16702480  0.13016039  1
  O  O169  1  0.51696280  0.16575094  0.62597829  1
  O  O170  1  0.51740165  0.48161358  0.12279077  1
  O  O171  1  0.53365345  0.49071875  0.62851098  1
  O  O172  1  0.53058044  0.83198519  0.12526461  1
  O  O173  1  0.51691536  0.83072932  0.61957575  1
  O  O174  1  0.86977046  0.14788259  0.12703126  1
  O  O175  1  0.86395851  0.15999197  0.62636043  1
  O  O176  1  0.85348579  0.50075295  0.12639860  1
  O  O177  1  0.86618854  0.49369098  0.62417362  1
  O  O178  1  0.84324727  0.80638785  0.12493948  1
  O  O179  1  0.86402926  0.82905851  0.62245762  1
  O  O180  1  0.14665745  0.17108559  0.36910394  1
  O  O181  1  0.15366668  0.16771056  0.88247387  1
  O  O182  1  0.15628816  0.49342510  0.37290133  1
  O  O183  1  0.15180149  0.50409217  0.87102679  1
  O  O184  1  0.15232179  0.84494260  0.37721695  1
  O  O185  1  0.14807725  0.82864299  0.87028351  1
  O  O186  1  0.46485714  0.16748435  0.37614560  1
  O  O187  1  0.46657167  0.17975045  0.86882366  1
  O  O188  1  0.45937702  0.50769293  0.37310668  1
  O  O189  1  0.48119689  0.50162585  0.86599923  1
  O  O190  1  0.48304687  0.82843022  0.37252737  1
  O  O191  1  0.46833142  0.83485911  0.88013149  1
  O  O192  1  0.80910202  0.18995423  0.37809653  1
  O  O193  1  0.79418392  0.18015885  0.87498887  1
  O  O194  1  0.80306714  0.50622869  0.37632869  1
  O  O195  1  0.80049932  0.50633789  0.87094235  1
  O  O196  1  0.79869699  0.83957224  0.38409830  1
  O  O197  1  0.81488251  0.83702077  0.87266899  1
  O  O198  1  0.03219887  0.00624632  0.38672443  1
  O  O199  1  0.01605263  0.00303101  0.86545409  1
  O  O200  1  0.01786438  0.34068432  0.38492822  1
  O  O201  1  0.01667565  0.33958256  0.87522609  1
  O  O202  1  0.01856340  0.66309378  0.36760858  1
  O  O203  1  0.03394050  0.66407535  0.87652862  1
  O  O204  1  0.35099996  0.01219944  0.38221587  1
  O  O205  1  0.36450492  0.01389552  0.87258243  1
  O  O206  1  0.34918722  0.34256929  0.37155515  1
  O  O207  1  0.36968150  0.33337931  0.87880297  1
  O  O208  1  0.35238543  0.67138595  0.37199996  1
  O  O209  1  0.35770636  0.68097580  0.87834834  1
  O  O210  1  0.69325276  -0.00234198  0.38230298  1
  O  O211  1  0.69727679  0.00908219  0.87211835  1
  O  O212  1  0.70564772  0.34470672  0.37509867  1
  O  O213  1  0.68758656  0.34939355  0.86750273  1
  O  O214  1  0.68924021  0.68609154  0.38428680  1
  O  O215  1  0.68720411  0.66260743  0.87111420  1
  O  O216  1  0.07467068  0.10390190  0.02554213  1
  O  O217  1  0.06037866  0.09619187  0.52951013  1
  O  O218  1  0.08607199  0.41811980  0.02355151  1
  O  O219  1  0.06603055  0.42539917  0.53216383  1
  O  O220  1  0.07563676  0.74847396  0.01771500  1
  O  O221  1  0.06515868  0.76610864  0.52754732  1
  O  O222  1  0.39739473  0.10088640  0.01343122  1
  O  O223  1  0.39655353  0.09879652  0.52165574  1
  O  O224  1  0.39852038  0.42195389  0.02684301  1
  O  O225  1  0.40411429  0.41719092  0.51058252  1
  O  O226  1  0.40555743  0.75735637  0.02511215  1
  O  O227  1  0.42163226  0.75875295  0.51580214  1
  O  O228  1  0.72700849  0.10390123  0.03018958  1
  O  O229  1  0.73500777  0.08934099  0.51823090  1
  O  O230  1  0.73829609  0.43711901  0.01067714  1
  O  O231  1  0.74202231  0.43708815  0.52568071  1
  O  O232  1  0.72281166  0.76176408  0.01791883  1
  O  O233  1  0.74653613  0.75793833  0.53319732  1
  O  O234  1  0.10727201  0.25599412  0.03123354  1
  O  O235  1  0.08825012  0.26712087  0.53152283  1
  O  O236  1  0.09652010  0.59702727  0.01802460  1
  O  O237  1  0.08747405  0.58757830  0.52297218  1
  O  O238  1  0.09112564  0.92722964  0.01124381  1
  O  O239  1  0.08333685  0.92818653  0.52052277  1
  O  O240  1  0.43267476  0.26631397  0.02375783  1
  O  O241  1  0.42136843  0.25264153  0.52060856  1
  O  O242  1  0.42332253  0.59564123  0.02209804  1
  O  O243  1  0.44110194  0.59888136  0.52850377  1
  O  O244  1  0.43294363  0.93491684  0.00575896  1
  O  O245  1  0.42656214  0.92622202  0.51732720  1
  O  O246  1  0.76397175  0.27068611  0.03461237  1
  O  O247  1  0.76659734  0.26965989  0.52842426  1
  O  O248  1  0.76143561  0.60574365  0.01711788  1
  O  O249  1  0.76470288  0.59806463  0.53287446  1
  O  O250  1  0.76040547  0.92939506  0.02777702  1
  O  O251  1  0.75919331  0.92904489  0.51905069  1
  O  O252  1  0.23316487  0.07476472  0.27636760  1
  O  O253  1  0.24635569  0.07339681  0.76789154  1
  O  O254  1  0.24215846  0.38953494  0.25487586  1
  O  O255  1  0.23689018  0.40040956  0.76117353  1
  O  O256  1  0.23446397  0.73164095  0.25067308  1
  O  O257  1  0.23716443  0.74281360  0.77502639  1
  O  O258  1  0.56490675  0.07730163  0.26974891  1
  O  O259  1  0.56808976  0.07653790  0.78012632  1
  O  O260  1  0.57796289  0.41231872  0.27644817  1
  O  O261  1  0.57035883  0.40176462  0.77600619  1
  O  O262  1  0.56618198  0.73939218  0.25574830  1
  O  O263  1  0.58109651  0.73634440  0.75684773  1
  O  O264  1  0.89447760  0.06628918  0.28385365  1
  O  O265  1  0.90330215  0.06529346  0.77359661  1
  O  O266  1  0.89691613  0.40938822  0.26812019  1
  O  O267  1  0.89811375  0.41202340  0.76055001  1
  O  O268  1  0.90648770  0.72976717  0.25915201  1
  O  O269  1  0.91170561  0.73436400  0.75828134  1
  O  O270  1  0.27126414  0.22557537  0.26909469  1
  O  O271  1  0.27179481  0.23881458  0.77302412  1
  O  O272  1  0.28021819  0.55409902  0.26178384  1
  O  O273  1  0.25299913  0.57561341  0.77291278  1
  O  O274  1  0.25639814  0.91500985  0.26633046  1
  O  O275  1  0.26572994  0.90107051  0.77450690  1
  O  O276  1  0.58878987  0.23629747  0.26777913  1
  O  O277  1  0.59657203  0.24114446  0.77620758  1
  O  O278  1  0.60350129  0.57072669  0.27897235  1
  O  O279  1  0.60463739  0.55888753  0.76477852  1
  O  O280  1  0.59668136  0.89732436  0.27391958  1
  O  O281  1  0.58840522  0.91737284  0.77543797  1
  O  O282  1  0.92494292  0.24687176  0.27154162  1
  O  O283  1  0.93230812  0.23643220  0.75805665  1
  O  O284  1  0.92979313  0.56969022  0.26321777  1
  O  O285  1  0.93193140  0.56705290  0.76413355  1
  O  O286  1  0.91875120  0.90734441  0.28010489  1
  O  O287  1  0.92544927  0.91084878  0.76503657  1
  O  O288  1  0.26627990  0.23373551  0.47806789  1
  O  O289  1  0.27530304  0.22714991  0.98229265  1
  O  O290  1  0.27025761  0.55966527  0.47871216  1
  O  O291  1  0.26145996  0.58245497  0.96878161  1
  O  O292  1  0.25830745  0.91740003  0.48386643  1
  O  O293  1  0.27327750  0.90579843  0.97297232  1
  O  O294  1  0.58433325  0.23955184  0.48726614  1
  O  O295  1  0.59809845  0.23370609  0.96764805  1
  O  O296  1  0.61072851  0.57390302  0.47937879  1
  O  O297  1  0.60138431  0.56916835  0.97553185  1
  O  O298  1  0.59845598  0.90551309  0.47930884  1
  O  O299  1  0.58482973  0.90284067  0.97523681  1
  O  O300  1  0.92982949  0.24697992  0.48632902  1
  O  O301  1  0.93362951  0.23461185  0.99162444  1
  O  O302  1  0.92314009  0.57190962  0.49083174  1
  O  O303  1  0.92505948  0.57501763  0.98382525  1
  O  O304  1  0.92122723  0.90960811  0.47596563  1
  O  O305  1  0.92030897  0.90844841  0.97831994  1
  O  O306  1  0.23986800  0.06908605  0.47640871  1
  O  O307  1  0.24318304  0.07173622  0.97626755  1
  O  O308  1  0.23917454  0.39413018  0.49608537  1
  O  O309  1  0.24634628  0.39344422  0.98767400  1
  O  O310  1  0.24258525  0.74164941  0.49007418  1
  O  O311  1  0.24328147  0.73793686  0.97169262  1
  O  O312  1  0.57037263  0.07179837  0.48650615  1
  O  O313  1  0.56717538  0.06894021  0.96664894  1
  O  O314  1  0.58349436  0.41638748  0.47184240  1
  O  O315  1  0.56527328  0.39885288  0.97186116  1
  O  O316  1  0.58247694  0.74734279  0.48072358  1
  O  O317  1  0.56095078  0.73157046  0.98777783  1
  O  O318  1  0.90395174  0.06570931  0.47805807  1
  O  O319  1  0.89333661  0.06589780  0.97194966  1
  O  O320  1  0.89793308  0.40404762  0.47970732  1
  O  O321  1  0.89955980  0.41488021  0.99565604  1
  O  O322  1  0.90012056  0.74402225  0.49112721  1
  O  O323  1  0.91121763  0.73212497  0.98708936  1
  O  O324  1  0.10327175  0.25793963  0.22047135  1
  O  O325  1  0.09776519  0.26351840  0.72058379  1
  O  O326  1  0.09674863  0.59891932  0.22370554  1
  O  O327  1  0.09453140  0.59075015  0.73348662  1
  O  O328  1  0.09090257  0.92980255  0.24320452  1
  O  O329  1  0.08701923  0.92299751  0.72687091  1
  O  O330  1  0.42984549  0.26106134  0.22422127  1
  O  O331  1  0.42736622  0.26111623  0.72790374  1
  O  O332  1  0.43276875  0.59706814  0.20814673  1
  O  O333  1  0.44202669  0.58985929  0.72382999  1
  O  O334  1  0.43094031  0.92264283  0.23919282  1
  O  O335  1  0.42431756  0.93074197  0.74576885  1
  O  O336  1  0.76111965  0.26676730  0.21453369  1
  O  O337  1  0.76163886  0.27589809  0.72623951  1
  O  O338  1  0.77143231  0.60287182  0.22741576  1
  O  O339  1  0.76214355  0.59270999  0.71699691  1
  O  O340  1  0.76479184  0.93447629  0.22536172  1
  O  O341  1  0.75028192  0.92771923  0.73795594  1
  O  O342  1  0.07185069  0.10583030  0.22668198  1
  O  O343  1  0.06409889  0.09505452  0.72529728  1
  O  O344  1  0.08310014  0.41917651  0.22337501  1
  O  O345  1  0.07577472  0.43025046  0.72241658  1
  O  O346  1  0.06804060  0.75165677  0.22843678  1
  O  O347  1  0.06858675  0.76346011  0.72798029  1
  O  O348  1  0.40165345  0.10440694  0.23337553  1
  O  O349  1  0.39742292  0.10225562  0.73067767  1
  O  O350  1  0.39901122  0.41802242  0.22320165  1
  O  O351  1  0.41033558  0.42594238  0.73216487  1
  O  O352  1  0.41414252  0.76168399  0.22170976  1
  O  O353  1  0.41449895  0.75435741  0.73464111  1
  O  O354  1  0.73065798  0.10171195  0.22090011  1
  O  O355  1  0.73136440  0.09509713  0.73767133  1
  O  O356  1  0.74487796  0.43660759  0.23259890  1
  O  O357  1  0.73315393  0.43706640  0.72398834  1
  O  O358  1  0.72273256  0.77462541  0.24171988  1
  O  O359  1  0.74301139  0.74647683  0.72429345  1
