# generated using pymatgen
data_BaLaInIrO6
_symmetry_space_group_name_H-M   'P 1'
_cell_length_a   17.50872278
_cell_length_b   17.53865417
_cell_length_c   16.48225739
_cell_angle_alpha   90.03321992
_cell_angle_beta   90.01153728
_cell_angle_gamma   89.93755694
_symmetry_Int_Tables_number   1
_chemical_formula_structural   BaLaInIrO6
_chemical_formula_sum   'Ba36 La36 In36 Ir36 O216'
_cell_volume   5061.35830784
_cell_formula_units_Z   36
loop_
 _symmetry_equiv_pos_site_id
 _symmetry_equiv_pos_as_xyz
  1  'x, y, z'
loop_
 _atom_site_type_symbol
 _atom_site_label
 _atom_site_symmetry_multiplicity
 _atom_site_fract_x
 _atom_site_fract_y
 _atom_site_fract_z
 _atom_site_occupancy
  Ba  Ba0  1  0.50423027  0.65661187  0.87440850  1
  Ba  Ba1  1  0.66477951  0.50862161  0.62109917  1
  Ba  Ba2  1  0.16547483  0.34297914  0.12673769  1
  Ba  Ba3  1  0.32779968  0.82470691  0.37755930  1
  Ba  Ba4  1  0.66828894  0.84340059  0.62973956  1
  Ba  Ba5  1  0.83314269  0.66312476  0.87036128  1
  Ba  Ba6  1  0.16426326  0.65742232  0.37368082  1
  Ba  Ba7  1  0.16555987  0.67790473  0.62224469  1
  Ba  Ba8  1  0.66895092  0.51268714  0.12814207  1
  Ba  Ba9  1  0.16448220  0.98972391  0.38102258  1
  Ba  Ba10  1  -0.00014044  0.15222809  0.37391439  1
  Ba  Ba11  1  0.16851190  0.99262360  0.86875675  1
  Ba  Ba12  1  0.82620807  0.00967084  0.12679301  1
  Ba  Ba13  1  0.83161008  0.32616389  0.87777709  1
  Ba  Ba14  1  0.66865427  0.49275220  0.37392253  1
  Ba  Ba15  1  0.16950575  0.00620198  0.62332773  1
  Ba  Ba16  1  -0.00064041  0.15369266  0.88025546  1
  Ba  Ba17  1  -0.00337372  0.48767357  0.37455783  1
  Ba  Ba18  1  0.32794349  0.15867130  0.37243312  1
  Ba  Ba19  1  0.66497479  0.82370979  0.87524381  1
  Ba  Ba20  1  0.33356991  0.16014198  0.87259851  1
  Ba  Ba21  1  0.00364212  0.82793258  0.87339247  1
  Ba  Ba22  1  0.49841387  0.00833656  0.62663977  1
  Ba  Ba23  1  0.17170657  0.32382058  0.87558700  1
  Ba  Ba24  1  0.33192743  0.82802102  0.87524286  1
  Ba  Ba25  1  0.50072475  0.00665960  0.12367058  1
  Ba  Ba26  1  0.50382271  0.32501737  0.37767259  1
  Ba  Ba27  1  0.66553276  0.15990281  0.37636749  1
  Ba  Ba28  1  0.67163051  0.17245742  0.62622858  1
  Ba  Ba29  1  1.00054203  0.16976064  0.62720418  1
  Ba  Ba30  1  0.83609180  0.65644166  0.37200259  1
  Ba  Ba31  1  0.33414302  0.50904878  0.62540987  1
  Ba  Ba32  1  0.16750825  0.32535254  0.37281074  1
  Ba  Ba33  1  0.83048018  0.00896885  0.62772803  1
  Ba  Ba34  1  0.49622134  0.67578796  0.13005576  1
  Ba  Ba35  1  0.33706315  0.49221269  0.87470391  1
  La  La36  1  0.50381613  0.65501232  0.37558330  1
  La  La37  1  0.65965481  0.82281734  0.36731673  1
  La  La38  1  1.00411923  0.51455745  0.12527321  1
  La  La39  1  0.33444611  0.84816623  0.62250215  1
  La  La40  1  0.67130583  0.18570067  0.12634023  1
  La  La41  1  0.83227188  0.68405071  0.62260688  1
  La  La42  1  0.66194094  0.14598614  0.87333673  1
  La  La43  1  0.33152349  0.18065279  0.12464499  1
  La  La44  1  0.83390647  0.35036815  0.12306319  1
  La  La45  1  0.49874502  0.34933276  0.62460686  1
  La  La46  1  0.83984942  0.98362741  0.87168608  1
  La  La47  1  0.49536351  0.34660370  0.12511527  1
  La  La48  1  1.00005872  0.84711515  0.12681452  1
  La  La49  1  -0.00314325  0.48835580  0.87172996  1
  La  La50  1  0.49923141  0.98256762  0.87481045  1
  La  La51  1  0.49183799  0.68015977  0.62731195  1
  La  La52  1  1.00569434  0.84948026  0.62772524  1
  La  La53  1  0.84148816  0.98593889  0.38152513  1
  La  La54  1  0.32949987  0.84897899  0.12908223  1
  La  La55  1  0.82794114  0.68364481  0.12329541  1
  La  La56  1  0.33551071  0.18350889  0.62563165  1
  La  La57  1  0.66793162  0.84670945  0.12208821  1
  La  La58  1  0.82890790  0.34480489  0.62541587  1
  La  La59  1  -0.00295292  0.82046128  0.37777739  1
  La  La60  1  0.84024124  0.31881560  0.37595950  1
  La  La61  1  0.50767579  0.31628586  0.87288938  1
  La  La62  1  0.65798867  0.48419196  0.87355375  1
  La  La63  1  0.15979653  0.01356440  0.12540880  1
  La  La64  1  0.32602164  0.48874274  0.37531063  1
  La  La65  1  0.16428348  0.67831176  0.12668929  1
  La  La66  1  0.17935619  0.65526678  0.87278352  1
  La  La67  1  0.33691076  0.51349600  0.12571799  1
  La  La68  1  1.00493434  0.51467525  0.62320040  1
  La  La69  1  0.16668821  0.34189101  0.62586507  1
  La  La70  1  0.50228846  0.98646952  0.37301349  1
  La  La71  1  1.00200039  0.18348710  0.12586858  1
  In  In72  1  0.00454790  0.66862400  0.75152127  1
  In  In73  1  0.16636892  0.16752730  0.74906680  1
  In  In74  1  0.66623820  0.66807010  0.49906205  1
  In  In75  1  0.16774116  0.16673914  0.50082785  1
  In  In76  1  0.33582137  0.00343154  0.49689142  1
  In  In77  1  0.16637398  0.50090602  0.00228933  1
  In  In78  1  0.83252488  0.83421989  0.25130030  1
  In  In79  1  0.33184924  0.00304452  0.00114901  1
  In  In80  1  0.66747631  0.33220575  0.50224820  1
  In  In81  1  0.83293108  0.16902012  0.75281044  1
  In  In82  1  0.66640707  0.66344925  0.74695744  1
  In  In83  1  0.16512799  0.83366772  0.00139888  1
  In  In84  1  0.16658928  0.49878178  0.74980034  1
  In  In85  1  0.00147495  0.66874952  -0.00119068  1
  In  In86  1  0.67107839  0.33443181  0.25079600  1
  In  In87  1  0.33617516  0.33406959  0.49916997  1
  In  In88  1  0.83137276  0.50450524  -0.00425680  1
  In  In89  1  0.83256171  0.50243783  0.74878825  1
  In  In90  1  0.49833980  0.83203540  0.00497448  1
  In  In91  1  -0.00092417  0.33464887  -0.00082772  1
  In  In92  1  0.50219341  0.16453336  0.00072411  1
  In  In93  1  0.66881620  0.00387279  0.25085206  1
  In  In94  1  0.16373820  0.83373073  0.25325656  1
  In  In95  1  0.16551918  0.50167403  0.49947909  1
  In  In96  1  0.49980543  0.83122439  0.74993813  1
  In  In97  1  0.50042229  0.83236941  0.49643097  1
  In  In98  1  0.66882267  0.00001922  0.49805833  1
  In  In99  1  0.33365704  0.33459478  0.24739433  1
  In  In100  1  0.50264762  0.50036966  -0.00001388  1
  In  In101  1  0.83487234  0.49949421  0.50040585  1
  In  In102  1  0.49949516  0.50055186  0.25249029  1
  In  In103  1  0.16612153  0.16574725  0.00072165  1
  In  In104  1  0.83058689  0.16501565  0.00117477  1
  In  In105  1  -0.00091206  0.33209283  0.50373495  1
  In  In106  1  0.50186843  0.16460854  0.24905501  1
  In  In107  1  0.33140434  0.66893763  0.00180663  1
  Ir  Ir108  1  0.83838224  0.50069532  0.24646056  1
  Ir  Ir109  1  0.83519662  0.83337894  0.50209016  1
  Ir  Ir110  1  0.16352063  0.82973040  0.50333566  1
  Ir  Ir111  1  0.49548255  0.83246906  0.24984636  1
  Ir  Ir112  1  0.50107471  0.16675990  0.74753422  1
  Ir  Ir113  1  0.33688280  0.00167140  0.74790033  1
  Ir  Ir114  1  0.50020959  0.49688395  0.74850397  1
  Ir  Ir115  1  -0.00266554  0.33442297  0.74864028  1
  Ir  Ir116  1  -0.00091338  -0.00365240  0.75279465  1
  Ir  Ir117  1  0.49958980  0.16717926  0.50485521  1
  Ir  Ir118  1  0.83545749  0.83581143  0.74926619  1
  Ir  Ir119  1  0.33830265  0.33363455  -0.00065494  1
  Ir  Ir120  1  0.66514634  0.33165508  -0.00255522  1
  Ir  Ir121  1  0.16491584  0.16323260  0.24768712  1
  Ir  Ir122  1  0.33285990  0.66872752  0.74527498  1
  Ir  Ir123  1  -0.00364079  0.67044089  0.49912796  1
  Ir  Ir124  1  0.66332132  0.33180929  0.75044748  1
  Ir  Ir125  1  0.33023498  0.00084552  0.24824150  1
  Ir  Ir126  1  0.66945839  0.66837367  0.00320195  1
  Ir  Ir127  1  -0.00405920  -0.00007984  0.24987911  1
  Ir  Ir128  1  0.66671085  0.67044599  0.24636237  1
  Ir  Ir129  1  -0.00639561  -0.00275140  0.00529480  1
  Ir  Ir130  1  0.33089001  0.66583528  0.25449620  1
  Ir  Ir131  1  0.33912351  0.33393436  0.75158525  1
  Ir  Ir132  1  0.16671557  0.50269707  0.24906146  1
  Ir  Ir133  1  0.66745226  -0.00149589  -0.00221581  1
  Ir  Ir134  1  0.49671204  0.50446439  0.50133797  1
  Ir  Ir135  1  -0.00405843  0.66566879  0.24803752  1
  Ir  Ir136  1  -0.00268383  0.33254308  0.24957350  1
  Ir  Ir137  1  0.66671228  0.00133050  0.75478419  1
  Ir  Ir138  1  0.83282951  0.83459245  -0.00044472  1
  Ir  Ir139  1  0.83611371  0.16529823  0.49890676  1
  Ir  Ir140  1  0.83695374  0.16819779  0.24945930  1
  Ir  Ir141  1  -0.00222951  -0.00492823  0.49960501  1
  Ir  Ir142  1  0.16984389  0.83441744  0.74591515  1
  Ir  Ir143  1  0.33500418  0.66842998  0.49965500  1
  O  O144  1  0.31647791  0.32369346  0.11814939  1
  O  O145  1  0.30886357  0.32956226  0.63159739  1
  O  O146  1  0.30111722  0.65251522  0.13525315  1
  O  O147  1  0.31244580  0.66288545  0.62147506  1
  O  O148  1  0.29969769  0.99060315  0.13197377  1
  O  O149  1  0.32134321  0.98826726  0.62798032  1
  O  O150  1  0.63400228  0.32492726  0.11579488  1
  O  O151  1  0.63392560  0.32701368  0.63214629  1
  O  O152  1  0.64640412  0.66912337  0.12492403  1
  O  O153  1  0.62773588  0.66724818  0.62125506  1
  O  O154  1  0.64977862  0.98932001  0.11938040  1
  O  O155  1  0.65077000  1.00035964  0.63142679  1
  O  O156  1  0.96874770  0.32671850  0.13117049  1
  O  O157  1  0.96381530  0.32625233  0.63176998  1
  O  O158  1  0.96370885  0.65478837  0.13002037  1
  O  O159  1  0.96858142  0.66168248  0.61896761  1
  O  O160  1  0.97009681  0.98556551  0.12804763  1
  O  O161  1  0.97654184  0.98668711  0.62636379  1
  O  O162  1  0.19343969  0.15359287  0.12984911  1
  O  O163  1  0.19767297  0.16752894  0.62793841  1
  O  O164  1  0.20007580  0.50270474  0.13248614  1
  O  O165  1  0.18689911  0.48124348  0.62528052  1
  O  O166  1  0.19573687  0.81859341  0.13049958  1
  O  O167  1  0.19787198  0.83211206  0.62458580  1
  O  O168  1  0.53976313  0.15802591  0.12176255  1
  O  O169  1  0.52384213  0.16158477  0.62656324  1
  O  O170  1  0.52092726  0.48674740  0.12481189  1
  O  O171  1  0.51793721  0.49195128  0.62540958  1
  O  O172  1  0.53017997  0.83233925  0.13266021  1
  O  O173  1  0.51833161  0.82321562  0.62291242  1
  O  O174  1  0.86561880  0.16037433  0.13169799  1
  O  O175  1  0.85115526  0.16197034  0.62105284  1
  O  O176  1  0.86483744  0.49332904  0.12697621  1
  O  O177  1  0.86966865  0.48373237  0.62608122  1
  O  O178  1  0.86161496  0.82688157  0.12125556  1
  O  O179  1  0.86709558  0.82689283  0.62429156  1
  O  O180  1  0.14904360  0.16921264  0.36772306  1
  O  O181  1  0.15219288  0.16788703  0.87389360  1
  O  O182  1  0.14562281  0.50150551  0.36817803  1
  O  O183  1  0.13347780  0.51231652  0.87408978  1
  O  O184  1  0.13334517  0.83103192  0.38084787  1
  O  O185  1  0.15409100  0.83600734  0.86709991  1
  O  O186  1  0.47872281  0.17192847  0.38469397  1
  O  O187  1  0.48311983  0.17636683  0.86864898  1
  O  O188  1  0.46568821  0.51169527  0.38166352  1
  O  O189  1  0.48794762  0.49833549  0.86934048  1
  O  O190  1  0.47434663  0.84271310  0.36703338  1
  O  O191  1  0.48555596  0.84142609  0.87672475  1
  O  O192  1  0.81441197  0.17958530  0.37330138  1
  O  O193  1  0.79736927  0.17240577  0.87707387  1
  O  O194  1  0.81722896  0.50202887  0.36634449  1
  O  O195  1  0.79216991  0.50555509  0.87247484  1
  O  O196  1  0.80268110  0.83954614  0.38114886  1
  O  O197  1  0.81167880  0.84578554  0.87438653  1
  O  O198  1  0.01722607  -0.00537513  0.37413214  1
  O  O199  1  0.02011848  -0.00284403  0.87979460  1
  O  O200  1  0.01762326  0.33193894  0.36894959  1
  O  O201  1  0.02342382  0.34740472  0.86849336  1
  O  O202  1  0.01806764  0.68382739  0.37365145  1
  O  O203  1  0.04322808  0.67569958  0.87535661  1
  O  O204  1  0.36611006  0.00378950  0.36612205  1
  O  O205  1  0.36196730  0.00659098  0.86935908  1
  O  O206  1  0.35529728  0.34569380  0.37197887  1
  O  O207  1  0.37078654  0.33450306  0.87493061  1
  O  O208  1  0.36597437  0.67183377  0.37751691  1
  O  O209  1  0.35113652  0.67295532  0.86546380  1
  O  O210  1  0.70648256  0.00199661  0.37361308  1
  O  O211  1  0.69884330  0.00642803  0.87790640  1
  O  O212  1  0.70123866  0.33403667  0.37651915  1
  O  O213  1  0.68458001  0.34550950  0.87334248  1
  O  O214  1  0.68819703  0.67996631  0.36620703  1
  O  O215  1  0.68493558  0.66727309  0.88301577  1
  O  O216  1  0.05986536  0.08933604  0.03246119  1
  O  O217  1  0.06987567  0.08405440  0.51525618  1
  O  O218  1  0.06749781  0.43364603  0.02464746  1
  O  O219  1  0.06774077  0.43055408  0.52611204  1
  O  O220  1  0.06576244  0.76720297  0.03535508  1
  O  O221  1  0.06163769  0.76713811  0.51927562  1
  O  O222  1  0.39820607  0.10527227  0.02523566  1
  O  O223  1  0.40525786  0.10542062  0.52561345  1
  O  O224  1  0.40330542  0.42512671  0.02529122  1
  O  O225  1  0.41410529  0.42847290  0.51981878  1
  O  O226  1  0.39619093  0.76782465  0.03050996  1
  O  O227  1  0.40099336  0.75908892  0.52509926  1
  O  O228  1  0.72510008  0.09804306  0.01882448  1
  O  O229  1  0.74688519  0.09577316  0.51128663  1
  O  O230  1  0.73416459  0.42194295  0.01827469  1
  O  O231  1  0.74520356  0.41985957  0.52842741  1
  O  O232  1  0.73693286  0.76610807  0.02819734  1
  O  O233  1  0.74914405  0.76040728  0.52565227  1
  O  O234  1  0.08799494  0.25407151  0.02415546  1
  O  O235  1  0.09935172  0.26613016  0.52532104  1
  O  O236  1  0.09345905  0.59668891  0.03950823  1
  O  O237  1  0.08448344  0.59682390  0.51731943  1
  O  O238  1  0.08812222  0.93061519  0.03107948  1
  O  O239  1  0.08779598  0.91818276  0.52666614  1
  O  O240  1  0.43711282  0.27144129  0.01755922  1
  O  O241  1  0.43534559  0.26208284  0.53189533  1
  O  O242  1  0.42126794  0.58867425  0.02058618  1
  O  O243  1  0.43412079  0.60596485  0.51854203  1
  O  O244  1  0.43281321  0.93511553  0.00656859  1
  O  O245  1  0.42302574  0.92351757  0.51284466  1
  O  O246  1  0.75725940  0.26558909  0.03176674  1
  O  O247  1  0.77214936  0.26004658  0.51936491  1
  O  O248  1  0.76599430  0.60617877  0.02561214  1
  O  O249  1  0.76397739  0.59768377  0.52014693  1
  O  O250  1  0.76018761  0.92593343  0.01725486  1
  O  O251  1  0.76626352  0.92171285  0.51820914  1
  O  O252  1  0.23413465  0.06799001  0.26726620  1
  O  O253  1  0.24954367  0.07172632  0.76044523  1
  O  O254  1  0.23928163  0.41554455  0.26838669  1
  O  O255  1  0.24824335  0.40401824  0.76880895  1
  O  O256  1  0.24048743  0.73447605  0.26715958  1
  O  O257  1  0.23677904  0.73659789  0.76870352  1
  O  O258  1  0.56547012  0.06273410  0.27679308  1
  O  O259  1  0.57035093  0.07084779  0.77897043  1
  O  O260  1  0.57665570  0.40880460  0.26711657  1
  O  O261  1  0.56457894  0.39728238  0.77048348  1
  O  O262  1  0.56946859  0.74162839  0.27737535  1
  O  O263  1  0.57395647  0.73748282  0.76378755  1
  O  O264  1  0.89848548  0.06714981  0.27611484  1
  O  O265  1  0.90631223  0.06699869  0.77450071  1
  O  O266  1  0.90058737  0.39989342  0.26955757  1
  O  O267  1  0.90972305  0.40480340  0.77228381  1
  O  O268  1  0.90976459  0.74141071  0.26645976  1
  O  O269  1  0.90669632  0.74593225  0.75922063  1
  O  O270  1  0.25482717  0.23716989  0.25612383  1
  O  O271  1  0.26948052  0.24597003  0.76291230  1
  O  O272  1  0.26564647  0.56753901  0.27595917  1
  O  O273  1  0.25927671  0.58159654  0.76795604  1
  O  O274  1  0.26038907  0.91022312  0.26753590  1
  O  O275  1  0.26882179  0.90334911  0.75849893  1
  O  O276  1  0.60208489  0.23540558  0.25647941  1
  O  O277  1  0.59691205  0.23565893  0.77745036  1
  O  O278  1  0.58924673  0.58566280  0.27135518  1
  O  O279  1  0.59724735  0.55924914  0.76966212  1
  O  O280  1  0.58858155  0.90064657  0.27296349  1
  O  O281  1  0.59169231  0.91672911  0.77077046  1
  O  O282  1  0.92910492  0.23882984  0.27175119  1
  O  O283  1  0.93144589  0.24257678  0.77148653  1
  O  O284  1  0.93188892  0.57080595  0.26520902  1
  O  O285  1  0.93333393  0.56955734  0.77637894  1
  O  O286  1  0.92880462  0.90701549  0.27722969  1
  O  O287  1  0.92458648  0.90921794  0.77066219  1
  O  O288  1  0.26781978  0.23740645  0.49364673  1
  O  O289  1  0.27085250  0.23980780  0.99139064  1
  O  O290  1  0.26921396  0.57534047  0.47623357  1
  O  O291  1  0.25768717  0.57456786  0.97807616  1
  O  O292  1  0.25478813  0.89998049  0.49299484  1
  O  O293  1  0.26540304  0.89984344  0.99748310  1
  O  O294  1  0.59054391  0.23624960  0.48867260  1
  O  O295  1  0.60306651  0.23677294  0.97135034  1
  O  O296  1  0.58285723  0.57637050  0.47431174  1
  O  O297  1  0.60685689  0.57021868  0.98170312  1
  O  O298  1  0.59558853  0.90710008  0.46471916  1
  O  O299  1  0.60064772  0.90659809  0.98850794  1
  O  O300  1  0.92486517  0.23327115  0.48287012  1
  O  O301  1  0.92676332  0.23607108  0.99255850  1
  O  O302  1  0.93171781  0.57749262  0.48560244  1
  O  O303  1  0.93522698  0.56836887  0.97199245  1
  O  O304  1  0.92751990  0.90243194  0.47368686  1
  O  O305  1  0.92552139  0.90407425  0.97998587  1
  O  O306  1  0.24095760  0.07169000  0.48393014  1
  O  O307  1  0.22727502  0.06314452  0.99569119  1
  O  O308  1  0.24668200  0.41413202  0.47786531  1
  O  O309  1  0.24665279  0.40266960  0.98486514  1
  O  O310  1  0.23763799  0.73643254  0.48218914  1
  O  O311  1  0.22364503  0.72688375  0.98591506  1
  O  O312  1  0.56276940  0.06946792  0.47864898  1
  O  O313  1  0.57382066  0.06343243  0.96746866  1
  O  O314  1  0.56953252  0.41397042  0.48923320  1
  O  O315  1  0.57111917  0.39707490  0.97327312  1
  O  O316  1  0.57423950  0.74187956  0.46239483  1
  O  O317  1  0.57688886  0.73525680  0.98977584  1
  O  O318  1  0.90226653  0.06513155  0.47728584  1
  O  O319  1  0.89860628  0.06100757  0.97882785  1
  O  O320  1  0.89924913  0.39650668  0.47611035  1
  O  O321  1  0.90310772  0.40789040  0.98646541  1
  O  O322  1  0.90813507  0.74621502  0.47637713  1
  O  O323  1  0.89899758  0.74199088  0.98730242  1
  O  O324  1  0.08818921  0.25324123  0.22186229  1
  O  O325  1  0.09354514  0.27001096  0.72545022  1
  O  O326  1  0.09298069  0.59572986  0.22291027  1
  O  O327  1  0.08778327  0.58709757  0.71768893  1
  O  O328  1  0.08729789  0.92894096  0.22240487  1
  O  O329  1  0.09244848  0.92190829  0.72540930  1
  O  O330  1  0.42883692  0.25912326  0.21821722  1
  O  O331  1  0.43422338  0.26324101  0.72293840  1
  O  O332  1  0.41860733  0.59481555  0.23614606  1
  O  O333  1  0.43325372  0.59895897  0.72641839  1
  O  O334  1  0.41960876  0.92326938  0.22224901  1
  O  O335  1  0.42462492  0.92867299  0.73879200  1
  O  O336  1  0.77351134  0.26294487  0.22131265  1
  O  O337  1  0.75921701  0.26848038  0.72663183  1
  O  O338  1  0.76921011  0.60010580  0.22362362  1
  O  O339  1  0.76702792  0.60166199  0.71607539  1
  O  O340  1  0.74959795  0.91696605  0.22690026  1
  O  O341  1  0.76320181  0.93251631  0.74173561  1
  O  O342  1  0.06854592  0.09179200  0.21985636  1
  O  O343  1  0.07213600  0.08309474  0.73783551  1
  O  O344  1  0.06823049  0.43339830  0.22406856  1
  O  O345  1  0.06404280  0.42451115  0.72279076  1
  O  O346  1  0.06408467  0.75815151  0.22567622  1
  O  O347  1  0.07565308  0.76924450  0.72301606  1
  O  O348  1  0.39571700  0.09477622  0.22322862  1
  O  O349  1  0.40222204  0.10012890  0.72487488  1
  O  O350  1  0.40187534  0.43217016  0.22209100  1
  O  O351  1  0.41064807  0.42194451  0.72690502  1
  O  O352  1  0.39710031  0.76286448  0.22683172  1
  O  O353  1  0.40008352  0.75948903  0.71987199  1
  O  O354  1  0.73913162  0.10663547  0.22562006  1
  O  O355  1  0.73486610  0.09255445  0.74437109  1
  O  O356  1  0.75221083  0.42627915  0.22280861  1
  O  O357  1  0.73324504  0.42158638  0.73070205  1
  O  O358  1  0.73697407  0.75953392  0.22199175  1
  O  O359  1  0.75043983  0.76026820  0.73048489  1
