# generated using pymatgen
data_BaLaInIrO6
_symmetry_space_group_name_H-M   'P 1'
_cell_length_a   17.52098546
_cell_length_b   17.54510700
_cell_length_c   16.47716809
_cell_angle_alpha   90.01405052
_cell_angle_beta   90.00157436
_cell_angle_gamma   89.98863309
_symmetry_Int_Tables_number   1
_chemical_formula_structural   BaLaInIrO6
_chemical_formula_sum   'Ba36 La36 In36 Ir36 O216'
_cell_volume   5065.20586186
_cell_formula_units_Z   36
loop_
 _symmetry_equiv_pos_site_id
 _symmetry_equiv_pos_as_xyz
  1  'x, y, z'
loop_
 _atom_site_type_symbol
 _atom_site_label
 _atom_site_symmetry_multiplicity
 _atom_site_fract_x
 _atom_site_fract_y
 _atom_site_fract_z
 _atom_site_occupancy
  Ba  Ba0  1  0.16226669  0.01041620  0.12701199  1
  Ba  Ba1  1  0.33497365  0.82438090  0.87468840  1
  Ba  Ba2  1  0.83502605  0.99015537  0.37309133  1
  Ba  Ba3  1  0.33286238  0.17779917  0.12935267  1
  Ba  Ba4  1  0.16717454  0.67683514  0.62822925  1
  Ba  Ba5  1  0.66571232  0.50790288  0.62288975  1
  Ba  Ba6  1  0.67066815  0.82284409  0.37845323  1
  Ba  Ba7  1  0.33229898  0.15865853  0.87451698  1
  Ba  Ba8  1  0.16733315  0.99347885  0.37291758  1
  Ba  Ba9  1  1.00209310  0.84746061  0.12477384  1
  Ba  Ba10  1  0.66642235  0.82576565  0.87240972  1
  Ba  Ba11  1  0.33215947  0.17572328  0.62516047  1
  Ba  Ba12  1  0.83464314  0.66010490  0.87128217  1
  Ba  Ba13  1  0.49670431  0.34234923  0.62227912  1
  Ba  Ba14  1  0.66923257  0.17384242  0.62453084  1
  Ba  Ba15  1  1.00386475  0.50843340  0.12077647  1
  Ba  Ba16  1  0.32972634  0.15446714  0.37801289  1
  Ba  Ba17  1  1.00330176  0.17378149  0.12842928  1
  Ba  Ba18  1  1.00628238  0.84441545  0.63010313  1
  Ba  Ba19  1  0.16588104  0.32751973  0.87643720  1
  Ba  Ba20  1  0.66584993  0.83648130  0.62553787  1
  Ba  Ba21  1  0.00108247  0.49192331  0.37436250  1
  Ba  Ba22  1  0.67085932  0.51158077  0.12237078  1
  Ba  Ba23  1  0.16552696  0.66192298  0.37669412  1
  Ba  Ba24  1  0.67113688  0.17774252  0.12541961  1
  Ba  Ba25  1  0.66478244  0.15559176  0.37332687  1
  Ba  Ba26  1  0.83160591  0.99091170  0.87568223  1
  Ba  Ba27  1  0.33429008  0.50698081  0.62790706  1
  Ba  Ba28  1  0.33478536  0.49565241  0.87199853  1
  Ba  Ba29  1  0.49916866  0.65948305  0.37570729  1
  Ba  Ba30  1  -0.00060647  0.15428754  0.37213599  1
  Ba  Ba31  1  0.33298267  0.83719847  0.62392277  1
  Ba  Ba32  1  0.16656176  0.33905275  0.12354032  1
  Ba  Ba33  1  0.66712593  0.15482020  0.87488492  1
  Ba  Ba34  1  0.83148512  0.00698066  0.62316249  1
  Ba  Ba35  1  0.16720010  0.34352548  0.62580862  1
  La  La36  1  0.67146079  0.84666974  0.12610016  1
  La  La37  1  0.50732931  0.31966821  0.87136001  1
  La  La38  1  0.16813848  0.31486566  0.37102863  1
  La  La39  1  -0.00320394  0.48583669  0.87060723  1
  La  La40  1  0.83491733  0.31445730  0.37546199  1
  La  La41  1  0.66331839  0.48625738  0.87264458  1
  La  La42  1  0.32919383  0.81652356  0.37583025  1
  La  La43  1  0.49640655  0.67259709  0.62419591  1
  La  La44  1  0.49391791  0.01290859  0.62569139  1
  La  La45  1  -0.00397122  0.82202577  0.88001661  1
  La  La46  1  0.49104230  0.34969745  0.13295833  1
  La  La47  1  1.00531391  0.17760316  0.62435988  1
  La  La48  1  0.82890055  0.68338752  0.12297538  1
  La  La49  1  0.82674241  0.34574159  0.62241399  1
  La  La50  1  0.50395557  0.98930308  0.86870381  1
  La  La51  1  0.16171122  0.01368262  0.62617478  1
  La  La52  1  -0.00627679  0.82480137  0.37419233  1
  La  La53  1  0.33470185  0.51141336  0.12495965  1
  La  La54  1  0.50697241  0.65482483  0.86998350  1
  La  La55  1  0.16963069  0.98776422  0.88003894  1
  La  La56  1  0.82744470  0.67686241  0.62097488  1
  La  La57  1  -0.00590816  0.14796197  0.88268141  1
  La  La58  1  0.83193531  0.01585884  0.12769692  1
  La  La59  1  0.33501195  0.84945687  0.12751819  1
  La  La60  1  0.32312598  0.48778325  0.37870730  1
  La  La61  1  0.50569595  0.98462677  0.37284705  1
  La  La62  1  0.49631725  0.01279595  0.12007288  1
  La  La63  1  0.82853991  0.35100107  0.13312737  1
  La  La64  1  0.49913834  0.68211338  0.12589056  1
  La  La65  1  0.49911078  0.31779678  0.37825906  1
  La  La66  1  1.00608925  0.51661930  0.62334107  1
  La  La67  1  0.16047168  0.68200300  0.11904995  1
  La  La68  1  0.83961646  0.31896297  0.88039367  1
  La  La69  1  0.17094667  0.65609106  0.87086154  1
  La  La70  1  0.66133740  0.48976832  0.37636673  1
  La  La71  1  0.83880388  0.65721626  0.37155295  1
  In  In72  1  0.50211214  0.50092846  0.74739084  1
  In  In73  1  0.33479514  0.33471416  0.75200481  1
  In  In74  1  0.16818990  0.50070477  0.24704324  1
  In  In75  1  -0.00063745  0.33509724  0.50085886  1
  In  In76  1  0.49883375  0.83037952  0.74907432  1
  In  In77  1  0.33309644  0.66374631  0.24843709  1
  In  In78  1  0.50186467  0.50301540  0.00233310  1
  In  In79  1  0.66725365  0.33438779  0.00170932  1
  In  In80  1  0.83336577  0.49907483  0.49770678  1
  In  In81  1  0.83677435  0.83318536  0.50080897  1
  In  In82  1  0.66605152  0.33259332  0.50014294  1
  In  In83  1  0.16629755  0.83488040  0.25004921  1
  In  In84  1  0.66656736  -0.00100909  0.74719254  1
  In  In85  1  -0.00163744  0.33403320  0.00138143  1
  In  In86  1  0.83765697  0.16737182  0.74833475  1
  In  In87  1  -0.00152438  0.33501155  0.25131045  1
  In  In88  1  0.50171651  0.83213268  0.00247319  1
  In  In89  1  0.50078817  0.16457548  0.25083973  1
  In  In90  1  0.49966447  0.83142405  0.49855197  1
  In  In91  1  0.33037150  0.33437658  0.49901513  1
  In  In92  1  -0.00061902  0.66646136  0.24348987  1
  In  In93  1  0.16604802  0.16642300  -0.00062048  1
  In  In94  1  0.33651552  0.33639582  0.00091397  1
  In  In95  1  -0.00081281  0.66665330  0.75170163  1
  In  In96  1  0.66377996  0.33561119  0.25171214  1
  In  In97  1  0.50071689  0.16776778  0.00176640  1
  In  In98  1  0.33323764  -0.00387246  0.49921753  1
  In  In99  1  0.66673142  -0.00247147  0.00198771  1
  In  In100  1  0.16386686  0.83479163  0.50025922  1
  In  In101  1  0.66519809  -0.00097983  0.49868363  1
  In  In102  1  0.83435674  0.50489529  -0.00316975  1
  In  In103  1  0.49968025  0.16675835  0.74902813  1
  In  In104  1  0.83715873  0.83341420  0.75151159  1
  In  In105  1  0.16296537  0.16766536  0.75311780  1
  In  In106  1  0.66592631  0.66596799  0.25103556  1
  In  In107  1  0.33231687  0.66993929  0.00074894  1
  Ir  Ir108  1  0.16999132  0.16462730  0.25322612  1
  Ir  Ir109  1  -0.00613583  0.33505308  0.74868497  1
  Ir  Ir110  1  -0.00240464  -0.00068001  0.25105273  1
  Ir  Ir111  1  0.49680163  0.50445454  0.49276006  1
  Ir  Ir112  1  0.83671782  0.16637264  0.00400021  1
  Ir  Ir113  1  0.83907079  0.16513899  0.49852567  1
  Ir  Ir114  1  0.33850780  -0.00292552  0.24677951  1
  Ir  Ir115  1  0.16349654  0.16452114  0.50082391  1
  Ir  Ir116  1  0.32827926  -0.00330614  0.75242457  1
  Ir  Ir117  1  0.00541558  0.00094613  0.75113707  1
  Ir  Ir118  1  0.16632564  0.50508250  -0.00571928  1
  Ir  Ir119  1  0.83614821  0.83260207  0.00543275  1
  Ir  Ir120  1  0.00292326  0.66809515  -0.00206480  1
  Ir  Ir121  1  0.33303895  0.66370946  0.50131629  1
  Ir  Ir122  1  0.16353728  0.50309767  0.50194770  1
  Ir  Ir123  1  0.67511608  0.33635545  0.75053461  1
  Ir  Ir124  1  0.33346160  0.33793269  0.25333739  1
  Ir  Ir125  1  0.83340448  0.16475651  0.24963808  1
  Ir  Ir126  1  0.00144080  0.00172068  0.50212506  1
  Ir  Ir127  1  0.83397111  0.49662422  0.74925341  1
  Ir  Ir128  1  -0.00304409  0.66627675  0.49801962  1
  Ir  Ir129  1  0.66655205  0.66761274  -0.00205931  1
  Ir  Ir130  1  0.33354479  0.66758027  0.74937008  1
  Ir  Ir131  1  0.16051154  0.50310457  0.74814806  1
  Ir  Ir132  1  -0.00089821  -0.00247597  -0.00046216  1
  Ir  Ir133  1  0.66528424  -0.00448141  0.24941537  1
  Ir  Ir134  1  0.16695919  0.83765474  0.75400103  1
  Ir  Ir135  1  0.16508951  0.83408603  -0.00359878  1
  Ir  Ir136  1  0.66804438  0.66176265  0.50185363  1
  Ir  Ir137  1  0.83335224  0.83377880  0.24641248  1
  Ir  Ir138  1  0.50028662  0.83448775  0.24733632  1
  Ir  Ir139  1  0.49751667  0.50042674  0.25435785  1
  Ir  Ir140  1  0.83016657  0.50321784  0.25099412  1
  Ir  Ir141  1  0.33241909  -0.00278503  -0.00018493  1
  Ir  Ir142  1  0.49766541  0.16469220  0.49738300  1
  Ir  Ir143  1  0.66968060  0.66080863  0.74986967  1
  O  O144  1  0.31510274  0.34164750  0.13529751  1
  O  O145  1  0.31712184  0.33694486  0.62294042  1
  O  O146  1  0.29527573  0.65316652  0.12402860  1
  O  O147  1  0.31338100  0.66607196  0.62409270  1
  O  O148  1  0.30900436  0.98578506  0.12314972  1
  O  O149  1  0.29745484  0.99453336  0.63262134  1
  O  O150  1  0.63108989  0.33803898  0.12795574  1
  O  O151  1  0.65069228  0.33241085  0.63031975  1
  O  O152  1  0.63747959  0.66624635  0.11854031  1
  O  O153  1  0.63647530  0.66113880  0.62677040  1
  O  O154  1  0.63646764  0.99083185  0.13170129  1
  O  O155  1  0.63093826  1.00203624  0.62148867  1
  O  O156  1  0.96273685  0.33595602  0.12646083  1
  O  O157  1  0.96321991  0.32281494  0.62967895  1
  O  O158  1  0.96585451  0.66168934  0.11544160  1
  O  O159  1  0.96771822  0.65683757  0.62090597  1
  O  O160  1  0.96821385  0.99903825  0.12449812  1
  O  O161  1  0.97887477  1.00035647  0.62617444  1
  O  O162  1  0.18345721  0.16351734  0.13227094  1
  O  O163  1  0.18035050  0.15646973  0.62128538  1
  O  O164  1  0.19735189  0.49958193  0.11382397  1
  O  O165  1  0.18341001  0.50106514  0.62369958  1
  O  O166  1  0.19769550  0.82445046  0.11721486  1
  O  O167  1  0.18335473  0.83701732  0.63216080  1
  O  O168  1  0.52341779  0.14827555  0.12709900  1
  O  O169  1  0.51893316  0.15414491  0.61736314  1
  O  O170  1  0.52451947  0.48761962  0.13584869  1
  O  O171  1  0.51744116  0.50532238  0.61368111  1
  O  O172  1  0.53356347  0.82192971  0.13120393  1
  O  O173  1  0.51548466  0.80917552  0.62366129  1
  O  O174  1  0.85551107  0.15266013  0.12695401  1
  O  O175  1  0.86827288  0.16456369  0.61871713  1
  O  O176  1  0.85432282  0.49001708  0.13032979  1
  O  O177  1  0.86847633  0.48658445  0.62938659  1
  O  O178  1  0.85559294  0.82112685  0.12575616  1
  O  O179  1  0.85859020  0.81246537  0.62500961  1
  O  O180  1  0.14804864  0.17302141  0.37777231  1
  O  O181  1  0.12879808  0.16263513  0.87512177  1
  O  O182  1  0.14982445  0.50888142  0.38285562  1
  O  O183  1  0.13128149  0.51490082  0.87104976  1
  O  O184  1  0.12983002  0.83444136  0.37553027  1
  O  O185  1  0.13356594  0.84636611  0.87540029  1
  O  O186  1  0.47754056  0.17414586  0.37789908  1
  O  O187  1  0.48089165  0.18157021  0.87661465  1
  O  O188  1  0.46255695  0.50878158  0.37235323  1
  O  O189  1  0.48357077  0.52250788  0.87538249  1
  O  O190  1  0.46443268  0.84271654  0.36651954  1
  O  O191  1  0.48455170  0.84610888  0.87715625  1
  O  O192  1  0.81183628  0.17561546  0.37374612  1
  O  O193  1  0.81761594  0.17701176  0.88294914  1
  O  O194  1  0.79855290  0.51885153  0.37022321  1
  O  O195  1  0.79970001  0.50455913  0.86710225  1
  O  O196  1  0.82157535  0.83010348  0.36703456  1
  O  O197  1  0.81741054  0.83386506  0.88630032  1
  O  O198  1  0.02090451  -0.00354589  0.37766977  1
  O  O199  1  0.03288307  0.00685268  0.87449973  1
  O  O200  1  0.03262427  0.33540504  0.37650025  1
  O  O201  1  0.01764028  0.34714806  0.86603083  1
  O  O202  1  0.01463784  0.67791265  0.37625733  1
  O  O203  1  0.03454943  0.67747734  0.87994779  1
  O  O204  1  0.36759161  -0.00104199  0.36686371  1
  O  O205  1  0.36449785  -0.00124590  0.87644597  1
  O  O206  1  0.36190203  0.34373002  0.37235007  1
  O  O207  1  0.37162073  0.33941257  0.87768952  1
  O  O208  1  0.34879909  0.66883153  0.38050470  1
  O  O209  1  0.36447788  0.66740608  0.87087063  1
  O  O210  1  0.68565171  -0.00071878  0.36732817  1
  O  O211  1  0.68032636  -0.00379991  0.87681648  1
  O  O212  1  0.69923022  0.34726700  0.37529159  1
  O  O213  1  0.70527858  0.34393508  0.86965104  1
  O  O214  1  0.69900262  0.66293566  0.38059046  1
  O  O215  1  0.68984655  0.66859638  0.87420628  1
  O  O216  1  0.06638156  0.08858987  0.01393822  1
  O  O217  1  0.06877578  0.09579826  0.52648160  1
  O  O218  1  0.07688272  0.43435517  0.00505375  1
  O  O219  1  0.06872614  0.43643771  0.52593043  1
  O  O220  1  0.07427443  0.76057157  0.02217679  1
  O  O221  1  0.06677961  0.75567337  0.51539342  1
  O  O222  1  0.39982371  0.08623681  0.02096486  1
  O  O223  1  0.41040023  0.09174223  0.51959537  1
  O  O224  1  0.40597439  0.43372994  0.03240926  1
  O  O225  1  0.40556329  0.43700419  0.50502743  1
  O  O226  1  0.40310008  0.76492502  0.03452904  1
  O  O227  1  0.40255258  0.75474522  0.50670111  1
  O  O228  1  0.74837947  0.09119884  0.02181656  1
  O  O229  1  0.74775832  0.09603000  0.51173998  1
  O  O230  1  0.74657862  0.42406317  0.01923249  1
  O  O231  1  0.74196337  0.42434605  0.51967959  1
  O  O232  1  0.73812650  0.76428345  0.02965980  1
  O  O233  1  0.74226724  0.74745482  0.52180741  1
  O  O234  1  0.08857163  0.25892658  0.01598142  1
  O  O235  1  0.08929438  0.25175582  0.52176472  1
  O  O236  1  0.09891397  0.60243147  0.02045399  1
  O  O237  1  0.08711975  0.59317901  0.52573771  1
  O  O238  1  0.09583714  0.92947371  0.01341104  1
  O  O239  1  0.09693641  0.93908207  0.52395756  1
  O  O240  1  0.43671336  0.26956430  0.03277730  1
  O  O241  1  0.42833502  0.25698739  0.50817581  1
  O  O242  1  0.42995368  0.59956471  0.03236135  1
  O  O243  1  0.43081974  0.59952998  0.52067943  1
  O  O244  1  0.42491745  0.92973526  0.02655961  1
  O  O245  1  0.43137770  0.93109091  0.52748400  1
  O  O246  1  0.77558446  0.26397405  0.02581973  1
  O  O247  1  0.77154612  0.26002980  0.51653059  1
  O  O248  1  0.76620264  0.60735444  0.02061094  1
  O  O249  1  0.76125726  0.59650591  0.52433963  1
  O  O250  1  0.76900162  0.92361914  0.03366534  1
  O  O251  1  0.75649364  0.91977069  0.51313936  1
  O  O252  1  0.24702653  0.06910995  0.26729717  1
  O  O253  1  0.23540751  0.06428281  0.77374657  1
  O  O254  1  0.23957248  0.40061682  0.28104493  1
  O  O255  1  0.23413264  0.41806356  0.76633673  1
  O  O256  1  0.24852192  0.74679666  0.27336590  1
  O  O257  1  0.23535779  0.73980997  0.77541785  1
  O  O258  1  0.57104165  0.06072281  0.27195457  1
  O  O259  1  0.56406001  0.06890462  0.77018038  1
  O  O260  1  0.56156831  0.40841342  0.28459364  1
  O  O261  1  0.58335401  0.40598806  0.77673858  1
  O  O262  1  0.56939028  0.74244400  0.26704937  1
  O  O263  1  0.57393454  0.72594706  0.76892472  1
  O  O264  1  0.90182886  0.06758042  0.26048069  1
  O  O265  1  0.91967761  0.07517528  0.77504571  1
  O  O266  1  0.89161353  0.40564609  0.27588934  1
  O  O267  1  0.89836132  0.40131500  0.77654102  1
  O  O268  1  0.90018807  0.73925041  0.26647409  1
  O  O269  1  0.91878537  0.74864242  0.77791418  1
  O  O270  1  0.26171179  0.24425016  0.27640951  1
  O  O271  1  0.25322661  0.24412426  0.76601093  1
  O  O272  1  0.27448855  0.55802922  0.26546923  1
  O  O273  1  0.25007448  0.58112369  0.77255232  1
  O  O274  1  0.27283287  0.90277774  0.26681922  1
  O  O275  1  0.25424051  0.90993182  0.77960876  1
  O  O276  1  0.58698252  0.24595280  0.27606947  1
  O  O277  1  0.60187572  0.25033614  0.76962472  1
  O  O278  1  0.59540078  0.56377587  0.27556937  1
  O  O279  1  0.60196447  0.57071773  0.77374230  1
  O  O280  1  0.59306981  0.90447014  0.27343922  1
  O  O281  1  0.58510551  0.90960232  0.76471340  1
  O  O282  1  0.91813473  0.24098013  0.27143646  1
  O  O283  1  0.93222253  0.24184518  0.78006610  1
  O  O284  1  0.91855748  0.57490682  0.27172884  1
  O  O285  1  0.92741960  0.56292959  0.77189716  1
  O  O286  1  0.93092603  0.90093461  0.27104165  1
  O  O287  1  0.94042117  0.90845235  0.77721139  1
  O  O288  1  0.24725977  0.24263296  0.47992956  1
  O  O289  1  0.25988406  0.24303661  0.98835873  1
  O  O290  1  0.26380211  0.56792034  0.48120178  1
  O  O291  1  0.25059847  0.57925817  0.97235360  1
  O  O292  1  0.26565841  0.89849838  0.47025596  1
  O  O293  1  0.25823218  0.90571609  0.97746141  1
  O  O294  1  0.58559482  0.24224392  0.47926662  1
  O  O295  1  0.59743278  0.24115981  0.97795698  1
  O  O296  1  0.59753299  0.56812066  0.47388784  1
  O  O297  1  0.60654709  0.57192559  0.97460728  1
  O  O298  1  0.58495879  0.91040042  0.46960314  1
  O  O299  1  0.60587024  0.89180582  1.00144012  1
  O  O300  1  0.92464913  0.23707567  0.48073529  1
  O  O301  1  0.92689292  0.23436992  0.97585793  1
  O  O302  1  0.92480109  0.57876498  0.47883809  1
  O  O303  1  0.93832271  0.57343213  0.97079418  1
  O  O304  1  0.93940545  0.90392882  0.48095287  1
  O  O305  1  0.93200420  0.89985264  0.97918673  1
  O  O306  1  0.23579701  0.07412610  0.49023341  1
  O  O307  1  0.23898398  0.06430747  0.97735235  1
  O  O308  1  0.23149077  0.41045826  0.47351479  1
  O  O309  1  0.23841182  0.41811190  0.97834593  1
  O  O310  1  0.24522224  0.73816694  0.48524252  1
  O  O311  1  0.22918905  0.73933012  0.97425251  1
  O  O312  1  0.56316257  0.07183256  0.47528809  1
  O  O313  1  0.55933812  0.05755234  0.98333605  1
  O  O314  1  0.56662218  0.41189627  0.46866760  1
  O  O315  1  0.57491492  0.40998324  0.96403359  1
  O  O316  1  0.57966213  0.73284911  0.48533113  1
  O  O317  1  0.56480135  0.72302850  0.98115517  1
  O  O318  1  0.90737847  0.07019534  0.48164840  1
  O  O319  1  0.90716315  0.07036057  0.98073903  1
  O  O320  1  0.89907416  0.39955658  0.47272801  1
  O  O321  1  0.90776667  0.40979765  0.96812969  1
  O  O322  1  0.90567825  0.73378265  0.47283696  1
  O  O323  1  0.91139080  0.74073222  0.97800525  1
  O  O324  1  0.09861408  0.25495377  0.24265310  1
  O  O325  1  0.07967511  0.26187798  0.72460619  1
  O  O326  1  0.10032772  0.59939386  0.22385842  1
  O  O327  1  0.08750136  0.58970094  0.72835838  1
  O  O328  1  0.08822821  0.93042507  0.23582759  1
  O  O329  1  0.10363778  0.93643985  0.73298560  1
  O  O330  1  0.42949744  0.27186183  0.23543351  1
  O  O331  1  0.43018804  0.25974795  0.73400282  1
  O  O332  1  0.43600125  0.59573405  0.22125934  1
  O  O333  1  0.42949260  0.60305607  0.72888342  1
  O  O334  1  0.43203942  0.92776506  0.21802008  1
  O  O335  1  0.42067796  0.93017088  0.72874136  1
  O  O336  1  0.76714616  0.26163966  0.23175382  1
  O  O337  1  0.77084540  0.27134122  0.72937749  1
  O  O338  1  0.76908557  0.60096045  0.22438639  1
  O  O339  1  0.76901900  0.59277509  0.72193602  1
  O  O340  1  0.76154490  0.92705033  0.21992197  1
  O  O341  1  0.75932981  0.91993431  0.73236371  1
  O  O342  1  0.07346185  0.09239902  0.23651133  1
  O  O343  1  0.06954505  0.09270369  0.72104063  1
  O  O344  1  0.07576533  0.42611523  0.23197904  1
  O  O345  1  0.06015846  0.43494361  0.72666663  1
  O  O346  1  0.07865279  0.75587786  0.22243281  1
  O  O347  1  0.08102838  0.76343386  0.74108527  1
  O  O348  1  0.40922710  0.08405582  0.22629206  1
  O  O349  1  0.40085206  0.08218788  0.73060421  1
  O  O350  1  0.39981200  0.43530051  0.22898789  1
  O  O351  1  0.41221835  0.42735074  0.73509710  1
  O  O352  1  0.40915521  0.76457733  0.22126884  1
  O  O353  1  0.40581003  0.75250585  0.73211714  1
  O  O354  1  0.74113640  0.08469408  0.22492495  1
  O  O355  1  0.74546020  0.09363884  0.73472809  1
  O  O356  1  0.74154904  0.43231183  0.23277028  1
  O  O357  1  0.74511885  0.42674047  0.72426013  1
  O  O358  1  0.74058883  0.76395397  0.22412650  1
  O  O359  1  0.74530679  0.74499807  0.73019778  1
