# generated using pymatgen
data_BaLaInIrO6
_symmetry_space_group_name_H-M   'P 1'
_cell_length_a   17.55145945
_cell_length_b   17.58516616
_cell_length_c   16.51084565
_cell_angle_alpha   90.00629887
_cell_angle_beta   89.99770509
_cell_angle_gamma   90.01410059
_symmetry_Int_Tables_number   1
_chemical_formula_structural   BaLaInIrO6
_chemical_formula_sum   'Ba36 La36 In36 Ir36 O216'
_cell_volume   5095.99522753
_cell_formula_units_Z   36
loop_
 _symmetry_equiv_pos_site_id
 _symmetry_equiv_pos_as_xyz
  1  'x, y, z'
loop_
 _atom_site_type_symbol
 _atom_site_label
 _atom_site_symmetry_multiplicity
 _atom_site_fract_x
 _atom_site_fract_y
 _atom_site_fract_z
 _atom_site_occupancy
  Ba  Ba0  1  0.83424359  0.34750674  0.12008686  1
  Ba  Ba1  1  0.50418100  0.67564574  0.62594795  1
  Ba  Ba2  1  0.33054213  0.82028525  0.87799307  1
  Ba  Ba3  1  0.16066465  0.00559486  0.12699476  1
  Ba  Ba4  1  0.83876756  0.65223290  0.87604175  1
  Ba  Ba5  1  0.83073711  0.67856262  0.12283462  1
  Ba  Ba6  1  1.00082767  0.51282334  0.62608453  1
  Ba  Ba7  1  0.32765427  0.82768522  0.37780402  1
  Ba  Ba8  1  -0.00311793  0.15556098  0.37534349  1
  Ba  Ba9  1  0.99894415  0.83694546  0.12616892  1
  Ba  Ba10  1  0.66652140  0.17443826  0.62689183  1
  Ba  Ba11  1  0.16559839  0.65126260  0.37437409  1
  Ba  Ba12  1  -0.00225514  0.49277699  0.37367441  1
  Ba  Ba13  1  0.66301198  0.49768912  0.37170662  1
  Ba  Ba14  1  0.66871440  0.83758254  0.62349194  1
  Ba  Ba15  1  0.16307552  0.98967443  0.87906507  1
  Ba  Ba16  1  0.66451823  0.82650983  0.37582705  1
  Ba  Ba17  1  1.00062855  0.17899754  0.12575242  1
  Ba  Ba18  1  0.66904489  0.50978868  0.62479742  1
  Ba  Ba19  1  1.00157339  0.84088027  0.62815176  1
  Ba  Ba20  1  0.16500041  0.00623841  0.62809882  1
  Ba  Ba21  1  0.50125251  0.99111292  0.37348448  1
  Ba  Ba22  1  0.99986626  0.50881003  0.12293417  1
  Ba  Ba23  1  -0.00277575  0.81793984  0.37489262  1
  Ba  Ba24  1  0.33098625  0.49485501  0.37494298  1
  Ba  Ba25  1  0.50449671  0.32742250  0.37328305  1
  Ba  Ba26  1  0.33237723  0.16106282  0.37262470  1
  Ba  Ba27  1  0.67264711  0.18129797  0.12349299  1
  Ba  Ba28  1  0.83774386  0.65633057  0.37349015  1
  Ba  Ba29  1  0.50265309  0.66294232  0.37892125  1
  Ba  Ba30  1  0.16736832  0.34307071  0.12001371  1
  Ba  Ba31  1  0.83676616  0.98924415  0.37521737  1
  Ba  Ba32  1  0.83671550  0.32694814  0.87503550  1
  Ba  Ba33  1  0.50457601  0.67443740  0.12605554  1
  Ba  Ba34  1  -0.00380059  0.15393954  0.87683579  1
  Ba  Ba35  1  0.50094749  0.65840862  0.87585723  1
  La  La36  1  0.16664981  0.64946305  0.87360103  1
  La  La37  1  0.33354136  0.51648639  0.12454194  1
  La  La38  1  0.16786506  0.31731847  0.87597073  1
  La  La39  1  0.16364681  0.98645392  0.37519903  1
  La  La40  1  0.49795918  0.35309463  0.62392122  1
  La  La41  1  0.49947651  0.35287592  0.12168694  1
  La  La42  1  0.84429082  0.98225226  0.87358426  1
  La  La43  1  0.66572727  0.48776513  0.87739358  1
  La  La44  1  0.83099351  0.01485847  0.62580136  1
  La  La45  1  0.50304935  -0.00060966  0.61568422  1
  La  La46  1  0.33020246  0.49157446  0.87271090  1
  La  La47  1  0.32542315  0.84807058  0.12856267  1
  La  La48  1  0.49956528  0.01448407  0.12731106  1
  La  La49  1  0.15712820  0.67911036  0.62298032  1
  La  La50  1  0.66576352  0.81695589  0.87856855  1
  La  La51  1  0.34340253  0.17994625  0.62678948  1
  La  La52  1  0.17401849  0.32238731  0.36815324  1
  La  La53  1  -0.00430212  0.81278806  0.87715324  1
  La  La54  1  0.15954671  0.67347669  0.12981424  1
  La  La55  1  0.50485450  0.32194919  0.87551187  1
  La  La56  1  0.65711980  0.15185774  0.37048860  1
  La  La57  1  0.67264029  0.51652464  0.12564073  1
  La  La58  1  0.32874847  0.16990396  0.12410738  1
  La  La59  1  0.83499044  0.33082322  0.37417505  1
  La  La60  1  0.33557417  0.51501936  0.62513255  1
  La  La61  1  0.83401886  0.01482353  0.12711071  1
  La  La62  1  1.00270732  0.17973463  0.63092752  1
  La  La63  1  0.82875689  0.35161512  0.62710758  1
  La  La64  1  0.16229148  0.34600453  0.62275811  1
  La  La65  1  0.32770003  0.15121758  0.87604298  1
  La  La66  1  0.83056290  0.68043005  0.62466407  1
  La  La67  1  0.33645690  0.85309925  0.62573916  1
  La  La68  1  -0.00678522  0.48495774  0.87627066  1
  La  La69  1  0.67555008  0.84910316  0.12577017  1
  La  La70  1  0.50870509  0.98340813  0.87933445  1
  La  La71  1  0.66840182  0.15021136  0.87938129  1
  In  In72  1  0.50150858  0.16480819  0.75380429  1
  In  In73  1  0.49767137  0.83404047  0.50043990  1
  In  In74  1  0.49897414  0.83452163  0.24497936  1
  In  In75  1  0.33114717  0.33348138  0.50064382  1
  In  In76  1  0.66954333  -0.00080286  0.50118295  1
  In  In77  1  0.33354093  0.33373716  0.74996504  1
  In  In78  1  0.49837931  0.50127359  0.50139231  1
  In  In79  1  0.49947422  0.50243302  0.24557057  1
  In  In80  1  0.16549548  0.16567300  0.50255482  1
  In  In81  1  0.50255211  0.16858143  0.50229545  1
  In  In82  1  0.16358795  0.16418431  -0.00109441  1
  In  In83  1  0.83357397  0.16986012  0.75000677  1
  In  In84  1  0.32858989  0.66909553  0.74871845  1
  In  In85  1  0.49957068  0.50273228  0.75377975  1
  In  In86  1  0.16903334  0.16526672  0.74861375  1
  In  In87  1  0.16556445  0.83278709  0.75299888  1
  In  In88  1  0.67097941  0.66656613  0.49983627  1
  In  In89  1  0.83438286  0.16939106  -0.00052137  1
  In  In90  1  0.50164068  0.17142696  -0.00081366  1
  In  In91  1  0.32845385  0.66976653  0.50434033  1
  In  In92  1  0.67013104  -0.00333846  0.75473344  1
  In  In93  1  0.66921395  0.67032010  0.24916007  1
  In  In94  1  0.83254684  0.17107526  0.25230022  1
  In  In95  1  0.83256751  0.17121525  0.50073718  1
  In  In96  1  0.16524401  0.82841808  -0.00145938  1
  In  In97  1  0.66835996  0.33317571  0.49836729  1
  In  In98  1  -0.00012073  0.33311465  0.49798275  1
  In  In99  1  0.32818688  0.00628112  0.49986048  1
  In  In100  1  0.33152166  0.66955080  0.24823097  1
  In  In101  1  0.33782040  0.33447684  -0.00286838  1
  In  In102  1  0.33234505  0.00325273  0.24950082  1
  In  In103  1  0.16328485  0.82873274  0.25183205  1
  In  In104  1  0.33601107  0.00080949  -0.00082078  1
  In  In105  1  0.49948297  0.83161749  0.00453118  1
  In  In106  1  0.50066785  0.83466904  0.75279425  1
  In  In107  1  0.33586887  0.33285161  0.24460449  1
  Ir  Ir108  1  0.16467316  0.49962957  -0.00489231  1
  Ir  Ir109  1  0.83452380  0.49969916  0.75079647  1
  Ir  Ir110  1  0.00131514  0.66260041  -0.00077429  1
  Ir  Ir111  1  0.00058010  0.33652364  0.74884112  1
  Ir  Ir112  1  0.00464703  0.33531930  0.24953791  1
  Ir  Ir113  1  -0.00114543  -0.00084433  0.25144692  1
  Ir  Ir114  1  0.33695024  0.00448293  0.75256963  1
  Ir  Ir115  1  0.66915784  0.33589002  0.24397797  1
  Ir  Ir116  1  0.67540901  0.66563882  0.75533864  1
  Ir  Ir117  1  0.16132452  0.49593946  0.75226855  1
  Ir  Ir118  1  0.66930499  0.66476027  -0.00581272  1
  Ir  Ir119  1  0.66796147  0.33490468  0.75632982  1
  Ir  Ir120  1  0.67310432  -0.00199142  -0.00032085  1
  Ir  Ir121  1  0.16404408  0.49620582  0.50210129  1
  Ir  Ir122  1  0.83316122  0.49792011  0.24770511  1
  Ir  Ir123  1  0.66523014  0.33786699  -0.00364432  1
  Ir  Ir124  1  0.32815306  0.66021858  -0.00072917  1
  Ir  Ir125  1  -0.00479110  -0.00402400  0.75080444  1
  Ir  Ir126  1  -0.00141668  -0.00247386  0.50460828  1
  Ir  Ir127  1  0.16232151  0.83204225  0.50371147  1
  Ir  Ir128  1  0.83185215  0.83440210  -0.00059266  1
  Ir  Ir129  1  0.66840783  0.00206867  0.24364022  1
  Ir  Ir130  1  0.00004457  0.66274065  0.75065965  1
  Ir  Ir131  1  0.83111761  0.50049184  -0.00201709  1
  Ir  Ir132  1  0.50663045  0.16998096  0.24349958  1
  Ir  Ir133  1  0.84072229  0.83300399  0.50296776  1
  Ir  Ir134  1  0.83529047  0.83817056  0.24718306  1
  Ir  Ir135  1  0.16436389  0.49508186  0.24779440  1
  Ir  Ir136  1  0.00370096  0.33940258  -0.00157809  1
  Ir  Ir137  1  0.83609550  0.50116755  0.50050971  1
  Ir  Ir138  1  -0.00404825  0.66212639  0.24723680  1
  Ir  Ir139  1  0.83760005  0.83107081  0.75235324  1
  Ir  Ir140  1  -0.00174821  0.66434627  0.50251354  1
  Ir  Ir141  1  -0.00524470  -0.00565200  0.00018001  1
  Ir  Ir142  1  0.49903967  0.50222974  -0.00212007  1
  Ir  Ir143  1  0.16100659  0.16596287  0.25147569  1
  O  O144  1  0.31580287  0.30818086  0.12085745  1
  O  O145  1  0.29387310  0.31509636  0.62755409  1
  O  O146  1  0.29564669  0.65198783  0.11503118  1
  O  O147  1  0.28842312  0.65009683  0.62823331  1
  O  O148  1  0.31250549  1.00707284  0.12479084  1
  O  O149  1  0.31590060  0.99847066  0.63437974  1
  O  O150  1  0.63647445  0.33319719  0.11831379  1
  O  O151  1  0.63672283  0.33144847  0.63980249  1
  O  O152  1  0.65632797  0.65764707  0.11358648  1
  O  O153  1  0.66201785  0.66711656  0.63681952  1
  O  O154  1  0.63758745  0.98945146  0.11990979  1
  O  O155  1  0.63782048  0.99394533  0.63085066  1
  O  O156  1  0.98177324  0.33744926  0.12334325  1
  O  O157  1  0.96642434  0.32699131  0.63080138  1
  O  O158  1  0.97576939  0.66339208  0.12239370  1
  O  O159  1  0.96848899  0.66527313  0.62808034  1
  O  O160  1  0.96730338  0.99471530  0.12413271  1
  O  O161  1  0.96559009  0.99371581  0.62809501  1
  O  O162  1  0.18970601  0.16099364  0.12900153  1
  O  O163  1  0.20572606  0.16066330  0.62761996  1
  O  O164  1  0.19466168  0.49639058  0.11949216  1
  O  O165  1  0.19360641  0.48477083  0.62756015  1
  O  O166  1  0.18891876  0.81590641  0.12268470  1
  O  O167  1  0.18879879  0.82138384  0.62526365  1
  O  O168  1  0.52730114  0.15498277  0.12528544  1
  O  O169  1  0.52014661  0.13865192  0.63100478  1
  O  O170  1  0.53472067  0.49230392  0.11254651  1
  O  O171  1  0.52234383  0.48837552  0.63153516  1
  O  O172  1  0.54196412  0.83014101  0.12084489  1
  O  O173  1  0.51833822  0.85011923  0.63015496  1
  O  O174  1  0.84970827  0.15837132  0.12487723  1
  O  O175  1  0.86968452  0.15741334  0.62699742  1
  O  O176  1  0.85264249  0.50181078  0.12280671  1
  O  O177  1  0.85614959  0.48787842  0.62480263  1
  O  O178  1  0.85355065  0.83851516  0.12295727  1
  O  O179  1  0.85867079  0.81555519  0.62815141  1
  O  O180  1  0.14078676  0.18170206  0.36979987  1
  O  O181  1  0.14068213  0.17835633  0.87197100  1
  O  O182  1  0.14366481  0.49606756  0.37433251  1
  O  O183  1  0.12991053  0.51109137  0.87293506  1
  O  O184  1  0.14986356  0.84583942  0.38229069  1
  O  O185  1  0.13218856  0.83308242  0.87622029  1
  O  O186  1  0.48785913  0.17123405  0.36215096  1
  O  O187  1  0.46464755  0.18561234  0.87553372  1
  O  O188  1  0.48349330  0.49943230  0.37210491  1
  O  O189  1  0.46731391  0.50486676  0.88034045  1
  O  O190  1  0.47728641  0.83473612  0.37212549  1
  O  O191  1  0.47932492  0.84128774  0.87953700  1
  O  O192  1  0.79572691  0.17986810  0.37459852  1
  O  O193  1  0.80563079  0.16941360  0.87587648  1
  O  O194  1  0.81367996  0.49304332  0.37376062  1
  O  O195  1  0.80333022  0.49928786  0.87387483  1
  O  O196  1  0.81634930  0.83715118  0.37828487  1
  O  O197  1  0.80423726  0.84327311  0.87632240  1
  O  O198  1  0.02927567  0.00158286  0.37879150  1
  O  O199  1  0.01596430  -0.00270368  0.87593738  1
  O  O200  1  0.03557530  0.33554989  0.36825154  1
  O  O201  1  0.03175173  0.34677193  0.87315284  1
  O  O202  1  0.01771665  0.66021559  0.37489331  1
  O  O203  1  0.03026986  0.66921083  0.87529934  1
  O  O204  1  0.34786886  -0.00181441  0.37358917  1
  O  O205  1  0.36955340  0.00949576  0.87134538  1
  O  O206  1  0.35143779  0.33638343  0.37036386  1
  O  O207  1  0.36953249  0.35615693  0.87427744  1
  O  O208  1  0.34720543  0.66727842  0.37658681  1
  O  O209  1  0.34972194  0.65893343  0.88115102  1
  O  O210  1  0.68838831  0.01170011  0.36430964  1
  O  O211  1  0.70943771  0.00862748  0.88325912  1
  O  O212  1  0.69723714  0.34253853  0.36383261  1
  O  O213  1  0.69139660  0.35106005  0.87684994  1
  O  O214  1  0.68965470  0.66607887  0.37386808  1
  O  O215  1  0.69257131  0.67624265  0.87527129  1
  O  O216  1  0.06552398  0.08513879  0.01574518  1
  O  O217  1  0.06079640  0.09294679  0.52858585  1
  O  O218  1  0.06983591  0.43487881  0.00712178  1
  O  O219  1  0.07621416  0.42507299  0.52393020  1
  O  O220  1  0.07154980  0.74914504  0.01855821  1
  O  O221  1  0.07098561  0.75429638  0.52246060  1
  O  O222  1  0.40182629  0.10707716  0.02281129  1
  O  O223  1  0.39664919  0.10465652  0.52005576  1
  O  O224  1  0.40464054  0.43977208  0.02499903  1
  O  O225  1  0.39860223  0.42849761  0.53265143  1
  O  O226  1  0.39137310  0.75726845  0.02420120  1
  O  O227  1  0.39533870  0.76758566  0.53210164  1
  O  O228  1  0.73982218  0.08685215  0.02187988  1
  O  O229  1  0.75015028  0.08633276  0.52645237  1
  O  O230  1  0.72934629  0.43705900  0.01707899  1
  O  O231  1  0.74830140  0.43123856  0.51622701  1
  O  O232  1  0.73345802  0.76860375  0.01643566  1
  O  O233  1  0.75515526  0.75977459  0.51840432  1
  O  O234  1  0.09344920  0.26787039  0.00767394  1
  O  O235  1  0.08726161  0.25559871  0.53830690  1
  O  O236  1  0.09887224  0.59672361  0.01997447  1
  O  O237  1  0.09620394  0.59595915  0.52493395  1
  O  O238  1  0.08300051  0.92396856  0.01681046  1
  O  O239  1  0.09343591  0.92897894  0.51516035  1
  O  O240  1  0.44861614  0.28098096  0.01318828  1
  O  O241  1  0.43164892  0.26429925  0.53197399  1
  O  O242  1  0.42400232  0.59199558  0.02460724  1
  O  O243  1  0.41618039  0.58926106  0.53045890  1
  O  O244  1  0.44272049  0.94019267  0.01849646  1
  O  O245  1  0.41953842  0.93042380  0.52697773  1
  O  O246  1  0.75470039  0.26797895  0.01267003  1
  O  O247  1  0.76715144  0.27226926  0.53119557  1
  O  O248  1  0.75876791  0.58844488  0.01759102  1
  O  O249  1  0.77352586  0.59517343  0.52504532  1
  O  O250  1  0.76619495  0.92941274  0.02822147  1
  O  O251  1  0.77485622  0.92477937  0.52616400  1
  O  O252  1  0.22522535  0.07376573  0.27456944  1
  O  O253  1  0.24417040  0.06791161  0.77648262  1
  O  O254  1  0.23190606  0.40315697  0.26605189  1
  O  O255  1  0.22494300  0.40264414  0.77585979  1
  O  O256  1  0.22831022  0.72840888  0.25622902  1
  O  O257  1  0.22766093  0.73010822  0.77672317  1
  O  O258  1  0.57572047  0.07317606  0.26295195  1
  O  O259  1  0.57827954  0.07506918  0.79545693  1
  O  O260  1  0.57598603  0.39932267  0.25327833  1
  O  O261  1  0.57475302  0.40310515  0.78111823  1
  O  O262  1  0.57393748  0.74114651  0.26277018  1
  O  O263  1  0.58623281  0.73900558  0.77068197  1
  O  O264  1  0.90836905  0.07051762  0.26044850  1
  O  O265  1  0.90153057  0.05999025  0.76919621  1
  O  O266  1  0.90505509  0.40214843  0.27189822  1
  O  O267  1  0.90900892  0.41037132  0.77218526  1
  O  O268  1  0.90328542  0.73983322  0.26328049  1
  O  O269  1  0.91130861  0.73837984  0.77571449  1
  O  O270  1  0.25097717  0.23638174  0.26341690  1
  O  O271  1  0.26347142  0.24025218  0.78637588  1
  O  O272  1  0.25321898  0.56215037  0.25559125  1
  O  O273  1  0.25259815  0.56136751  0.77754537  1
  O  O274  1  0.25947444  0.90294600  0.25148302  1
  O  O275  1  0.27145325  0.90617313  0.76035445  1
  O  O276  1  0.60591124  0.23611573  0.26724276  1
  O  O277  1  0.60490350  0.24182507  0.78472520  1
  O  O278  1  0.59741240  0.57163244  0.24495524  1
  O  O279  1  0.60642643  0.57374607  0.77676253  1
  O  O280  1  0.60135153  0.91386157  0.25827215  1
  O  O281  1  0.59905800  0.90535865  0.79129744  1
  O  O282  1  0.92895635  0.25100638  0.26940825  1
  O  O283  1  0.93508777  0.24361870  0.76576718  1
  O  O284  1  0.92491898  0.56907959  0.26323621  1
  O  O285  1  0.93206042  0.56681780  0.77408420  1
  O  O286  1  0.92901312  0.90723553  0.26767108  1
  O  O287  1  0.93109111  0.89795140  0.78012394  1
  O  O288  1  0.25141610  0.24583537  0.47216861  1
  O  O289  1  0.26406697  0.23948456  0.97304722  1
  O  O290  1  0.25186477  0.56395076  0.49029849  1
  O  O291  1  0.26268269  0.56218151  0.97449887  1
  O  O292  1  0.25148068  0.90157669  0.49850092  1
  O  O293  1  0.26535721  0.89973851  0.99505725  1
  O  O294  1  0.60500133  0.23267876  0.47347667  1
  O  O295  1  0.60387192  0.24102635  0.96888487  1
  O  O296  1  0.59318512  0.57565251  0.49207829  1
  O  O297  1  0.60131368  0.56770914  0.97388724  1
  O  O298  1  0.59146087  0.91203929  0.48439966  1
  O  O299  1  0.60822306  0.90715932  0.97397762  1
  O  O300  1  0.92005875  0.24861960  0.46879605  1
  O  O301  1  0.93145033  0.24971755  0.98576041  1
  O  O302  1  0.92922845  0.57184620  0.48700785  1
  O  O303  1  0.93078675  0.56732515  0.97525804  1
  O  O304  1  0.93202515  0.90205465  0.48553567  1
  O  O305  1  0.92654514  0.90011511  0.97144944  1
  O  O306  1  0.22367953  0.06375598  0.47402110  1
  O  O307  1  0.24502444  0.07839223  0.97375059  1
  O  O308  1  0.22387610  0.40130801  0.48288882  1
  O  O309  1  0.23313516  0.40869070  0.96707116  1
  O  O310  1  0.22483803  0.73973786  0.49010518  1
  O  O311  1  0.23279656  0.72132077  0.97618270  1
  O  O312  1  0.57763907  0.07681085  0.47813603  1
  O  O313  1  0.57939343  0.06715586  0.97523213  1
  O  O314  1  0.56976022  0.39907026  0.49718643  1
  O  O315  1  0.56835349  0.40795854  0.97012632  1
  O  O316  1  0.57860893  0.74341934  0.49582954  1
  O  O317  1  0.58246465  0.73845680  0.97639629  1
  O  O318  1  0.91046699  0.06560428  0.48903177  1
  O  O319  1  0.90089114  0.06025371  0.98319371  1
  O  O320  1  0.90028872  0.40630127  0.48091473  1
  O  O321  1  0.90985507  0.41507348  0.97611259  1
  O  O322  1  0.90632686  0.73438031  0.48769471  1
  O  O323  1  0.91084901  0.74318396  0.97405208  1
  O  O324  1  0.09567550  0.26414993  0.22955642  1
  O  O325  1  0.09229557  0.26749246  0.72403576  1
  O  O326  1  0.09384147  0.59315305  0.22569298  1
  O  O327  1  0.09789459  0.59606688  0.72872763  1
  O  O328  1  0.08813892  0.92752893  0.24270913  1
  O  O329  1  0.08717467  0.92852723  0.73694723  1
  O  O330  1  0.44239869  0.26146597  0.21988021  1
  O  O331  1  0.43607721  0.26702228  0.72151845  1
  O  O332  1  0.41573695  0.58795182  0.21938845  1
  O  O333  1  0.41978190  0.59285047  0.73210369  1
  O  O334  1  0.43139364  0.93385124  0.21486078  1
  O  O335  1  0.43624971  0.94756739  0.73422469  1
  O  O336  1  0.76104841  0.27112988  0.23158649  1
  O  O337  1  0.76211294  0.27113068  0.72865774  1
  O  O338  1  0.76213443  0.58573528  0.22898603  1
  O  O339  1  0.77143872  0.59655786  0.72996679  1
  O  O340  1  0.76445684  0.93338122  0.22059002  1
  O  O341  1  0.77653831  0.92668039  0.73119052  1
  O  O342  1  0.06831639  0.09300233  0.23387985  1
  O  O343  1  0.06039041  0.09300246  0.72791696  1
  O  O344  1  0.07374592  0.42587009  0.23150204  1
  O  O345  1  0.07080110  0.42559124  0.72967403  1
  O  O346  1  0.06870332  0.74843371  0.23289228  1
  O  O347  1  0.07006140  0.75051384  0.73305492  1
  O  O348  1  0.41024019  0.10545866  0.22293181  1
  O  O349  1  0.39022097  0.10553807  0.73931903  1
  O  O350  1  0.40773551  0.42611162  0.20936725  1
  O  O351  1  0.39716358  0.43339795  0.72429857  1
  O  O352  1  0.39585669  0.76903171  0.21543960  1
  O  O353  1  0.39732098  0.76970914  0.72831392  1
  O  O354  1  0.74032092  0.08852474  0.22825807  1
  O  O355  1  0.74407980  0.09033944  0.73134435  1
  O  O356  1  0.73478663  0.43227259  0.22215789  1
  O  O357  1  0.74173162  0.42719276  0.73118766  1
  O  O358  1  0.74150864  0.77293008  0.22553585  1
  O  O359  1  0.74689788  0.75914277  0.73472766  1
