# generated using pymatgen
data_BaLaInIrO6
_symmetry_space_group_name_H-M   'P 1'
_cell_length_a   17.52424521
_cell_length_b   17.54111940
_cell_length_c   16.48977307
_cell_angle_alpha   89.94508587
_cell_angle_beta   89.99849855
_cell_angle_gamma   89.94596167
_symmetry_Int_Tables_number   1
_chemical_formula_structural   BaLaInIrO6
_chemical_formula_sum   'Ba36 La36 In36 Ir36 O216'
_cell_volume   5068.86718966
_cell_formula_units_Z   36
loop_
 _symmetry_equiv_pos_site_id
 _symmetry_equiv_pos_as_xyz
  1  'x, y, z'
loop_
 _atom_site_type_symbol
 _atom_site_label
 _atom_site_symmetry_multiplicity
 _atom_site_fract_x
 _atom_site_fract_y
 _atom_site_fract_z
 _atom_site_occupancy
  Ba  Ba0  1  -0.00468354  0.49067922  0.37660569  1
  Ba  Ba1  1  0.49967233  0.99091268  0.87499434  1
  Ba  Ba2  1  0.66598580  0.83765051  0.12464833  1
  Ba  Ba3  1  0.83388733  0.00132429  0.62563220  1
  Ba  Ba4  1  0.49491301  0.00680246  0.62760570  1
  Ba  Ba5  1  0.83699005  0.65706470  0.37444013  1
  Ba  Ba6  1  0.83598445  0.65592260  0.87381048  1
  Ba  Ba7  1  0.83258543  0.34131104  0.62664595  1
  Ba  Ba8  1  0.16630434  0.34220892  0.12828610  1
  Ba  Ba9  1  0.83440063  0.32939188  0.37822789  1
  Ba  Ba10  1  -0.00530231  0.82212668  0.37659793  1
  Ba  Ba11  1  0.66568348  0.82712386  0.87400713  1
  Ba  Ba12  1  0.66580976  0.17064164  0.62747406  1
  Ba  Ba13  1  0.66714566  0.83793753  0.62622506  1
  Ba  Ba14  1  0.50139152  0.66280154  0.87124658  1
  Ba  Ba15  1  0.66527166  0.82375526  0.37591079  1
  Ba  Ba16  1  0.66973263  0.50540430  0.12451016  1
  Ba  Ba17  1  0.83129617  0.99514416  0.37524776  1
  Ba  Ba18  1  0.33160373  0.16257342  0.37602099  1
  Ba  Ba19  1  -0.00413010  0.82060197  0.87032481  1
  Ba  Ba20  1  0.33712301  0.50970462  0.12088101  1
  Ba  Ba21  1  0.33340198  0.84229331  0.62547103  1
  Ba  Ba22  1  0.49731046  0.00870499  0.12249594  1
  Ba  Ba23  1  0.66029499  0.15895392  0.38036347  1
  Ba  Ba24  1  0.83315127  0.99064396  0.87171656  1
  Ba  Ba25  1  0.33449765  0.83994478  0.12814529  1
  Ba  Ba26  1  0.15964904  0.01645721  0.62691778  1
  Ba  Ba27  1  1.00305093  0.84473868  0.12408722  1
  Ba  Ba28  1  1.00167049  0.84231906  0.62312934  1
  Ba  Ba29  1  0.49934144  0.33835097  0.62510903  1
  Ba  Ba30  1  0.33265313  0.49320336  0.37715885  1
  Ba  Ba31  1  0.49973766  0.34309183  0.12670935  1
  Ba  Ba32  1  0.16940940  0.98469761  0.87842790  1
  Ba  Ba33  1  0.50361361  0.99081338  0.37666971  1
  Ba  Ba34  1  0.33426338  0.50921809  0.62294560  1
  Ba  Ba35  1  0.66849268  0.15871406  0.87390972  1
  La  La36  1  0.50240913  0.65786739  0.37552572  1
  La  La37  1  0.17369932  0.98313696  0.37593754  1
  La  La38  1  0.33496131  0.18359020  0.12065911  1
  La  La39  1  1.00202126  0.51295847  0.62512816  1
  La  La40  1  0.66692492  0.48755667  0.37554406  1
  La  La41  1  1.00457816  0.18539700  0.12632183  1
  La  La42  1  0.83082359  0.67921869  0.12573811  1
  La  La43  1  0.16072839  0.67642670  0.12179265  1
  La  La44  1  0.15912802  0.01958552  0.12131347  1
  La  La45  1  0.16877288  0.31383184  0.87687976  1
  La  La46  1  0.67405529  0.50882392  0.62688144  1
  La  La47  1  0.33787342  0.17542150  0.63216080  1
  La  La48  1  0.82914088  0.01563669  0.12366567  1
  La  La49  1  0.16637355  0.32288073  0.37638194  1
  La  La50  1  0.50418960  0.32224105  0.87481833  1
  La  La51  1  -0.00837286  0.15902534  0.37709086  1
  La  La52  1  1.00529193  0.51488341  0.12332900  1
  La  La53  1  0.16260204  0.34852736  0.62578759  1
  La  La54  1  0.17203407  0.65146054  0.86930822  1
  La  La55  1  0.49908199  0.68200479  0.62220252  1
  La  La56  1  0.32999544  0.47765417  0.87177732  1
  La  La57  1  0.33541427  0.82099706  0.87980290  1
  La  La58  1  0.16276457  0.67990008  0.62270245  1
  La  La59  1  0.83066820  0.35141164  0.12427324  1
  La  La60  1  0.66838735  0.48716348  0.87313840  1
  La  La61  1  0.83741917  0.32149836  0.87597889  1
  La  La62  1  0.99866691  0.17841535  0.62410678  1
  La  La63  1  0.33269133  0.81846386  0.37680412  1
  La  La64  1  0.51067818  0.32333001  0.37331597  1
  La  La65  1  -0.00427713  0.15258723  0.87491632  1
  La  La66  1  0.50670635  0.67184604  0.12142815  1
  La  La67  1  0.17062140  0.65550175  0.37343560  1
  La  La68  1  0.32948179  0.15196429  0.87547312  1
  La  La69  1  -0.00239321  0.48233249  0.87580751  1
  La  La70  1  0.66382514  0.16483768  0.13199504  1
  La  La71  1  0.83411913  0.67836987  0.62118762  1
  In  In72  1  0.49474221  0.16700158  0.50454243  1
  In  In73  1  0.66539337  -0.00040691  0.24894226  1
  In  In74  1  0.67022473  0.66184084  -0.00181944  1
  In  In75  1  0.33270787  0.66563930  0.24852927  1
  In  In76  1  0.32786370  0.00121820  0.50053757  1
  In  In77  1  0.66995150  0.33390623  0.24653922  1
  In  In78  1  0.00133111  0.66445718  0.49653000  1
  In  In79  1  0.83395887  0.16682645  0.75096367  1
  In  In80  1  0.83560120  0.83517235  0.00160825  1
  In  In81  1  0.33476405  0.33650586  0.25364955  1
  In  In82  1  0.33299323  0.66198388  0.74668424  1
  In  In83  1  0.83125373  0.16615853  0.50035596  1
  In  In84  1  0.49720660  0.83126165  0.25285914  1
  In  In85  1  0.66922593  0.66268717  0.74686420  1
  In  In86  1  0.16510732  0.16693987  0.25370725  1
  In  In87  1  0.00150763  0.00095864  0.75073442  1
  In  In88  1  0.83253328  0.83023659  0.74958539  1
  In  In89  1  0.32899364  -0.00085477  0.00557785  1
  In  In90  1  0.83616981  0.83565354  0.24929644  1
  In  In91  1  0.66687195  0.33564096  0.50265919  1
  In  In92  1  0.49870806  0.50090869  -0.00636251  1
  In  In93  1  0.16656938  0.82878861  0.75122855  1
  In  In94  1  0.16670830  0.83335547  0.24855081  1
  In  In95  1  0.66561400  0.00242175  -0.00164098  1
  In  In96  1  0.83545928  0.17221093  0.24924354  1
  In  In97  1  0.00252198  0.00159007  0.49714555  1
  In  In98  1  0.32896572  -0.00290984  0.75233886  1
  In  In99  1  0.50124443  0.50016813  0.74827783  1
  In  In100  1  0.66924925  0.33107592  -0.00265348  1
  In  In101  1  0.33183867  0.33507590  0.50186550  1
  In  In102  1  0.49892379  0.83078252  0.00042336  1
  In  In103  1  0.49385203  0.16591422  0.24876162  1
  In  In104  1  0.16536634  0.49889515  0.25144808  1
  In  In105  1  0.50152134  0.50133785  0.50130623  1
  In  In106  1  0.00369920  0.00307318  0.25002501  1
  In  In107  1  0.16754972  0.49665514  -0.00299141  1
  Ir  Ir108  1  0.16430236  0.49609635  0.75017954  1
  Ir  Ir109  1  0.00430492  0.33752207  0.50345178  1
  Ir  Ir110  1  0.66833343  0.33689510  0.75398552  1
  Ir  Ir111  1  0.66790295  0.66232640  0.49708996  1
  Ir  Ir112  1  -0.00195931  0.33764980  0.24949373  1
  Ir  Ir113  1  0.32815525  0.66602973  -0.00334276  1
  Ir  Ir114  1  0.16792759  0.83050066  0.49659009  1
  Ir  Ir115  1  0.32707048  -0.00058572  0.25170242  1
  Ir  Ir116  1  0.49783802  0.83327532  0.74666368  1
  Ir  Ir117  1  0.16498318  0.82534474  -0.00079834  1
  Ir  Ir118  1  0.16370510  0.16968704  -0.00145760  1
  Ir  Ir119  1  0.16212690  0.17494006  0.50183832  1
  Ir  Ir120  1  0.16618142  0.17509577  0.74975343  1
  Ir  Ir121  1  0.16531263  0.50216386  0.50461816  1
  Ir  Ir122  1  0.33243752  0.66773796  0.50075357  1
  Ir  Ir123  1  0.66819622  0.66040068  0.25385618  1
  Ir  Ir124  1  0.83830974  0.50215858  0.24713706  1
  Ir  Ir125  1  0.50211065  0.50630985  0.24986595  1
  Ir  Ir126  1  0.32853564  0.33057541  0.75450512  1
  Ir  Ir127  1  0.84193728  0.49791818  -0.00205594  1
  Ir  Ir128  1  0.83518100  0.50063950  0.50350728  1
  Ir  Ir129  1  0.84367045  0.17110986  0.00237605  1
  Ir  Ir130  1  0.00063289  0.33349603  -0.00041975  1
  Ir  Ir131  1  0.33283184  0.32938265  -0.00666857  1
  Ir  Ir132  1  0.49567290  0.17144017  -0.00310716  1
  Ir  Ir133  1  0.83027201  0.83041391  0.49940176  1
  Ir  Ir134  1  0.00345954  0.65679932  0.74999537  1
  Ir  Ir135  1  0.49701474  0.17172930  0.75498441  1
  Ir  Ir136  1  0.66404466  -0.00559939  0.50378699  1
  Ir  Ir137  1  0.66177632  0.00025867  0.74737834  1
  Ir  Ir138  1  0.00497280  0.33628961  0.75249708  1
  Ir  Ir139  1  0.00029550  0.66283482  0.24362339  1
  Ir  Ir140  1  0.49786524  0.82956353  0.50236205  1
  Ir  Ir141  1  0.00402276  0.66204067  -0.00276980  1
  Ir  Ir142  1  0.83857277  0.49597081  0.74986324  1
  Ir  Ir143  1  0.00113394  0.00457406  0.00230666  1
  O  O144  1  0.31257336  0.32720641  0.11410860  1
  O  O145  1  0.29618464  0.32381020  0.63599390  1
  O  O146  1  0.29973130  0.66306048  0.11719337  1
  O  O147  1  0.29893124  0.66591497  0.61844524  1
  O  O148  1  0.29357445  0.99360768  0.13179446  1
  O  O149  1  0.30880187  1.00089361  0.62782497  1
  O  O150  1  0.65028157  0.33352873  0.11992093  1
  O  O151  1  0.64963758  0.34405836  0.63526263  1
  O  O152  1  0.64131830  0.65699917  0.13466266  1
  O  O153  1  0.63699385  0.64963710  0.61569486  1
  O  O154  1  0.64728823  1.02485418  0.12073933  1
  O  O155  1  0.64384396  0.99861839  0.62751548  1
  O  O156  1  0.96764230  0.32439207  0.12398631  1
  O  O157  1  0.98193750  0.32013825  0.62866958  1
  O  O158  1  0.97072161  0.65401387  0.11949992  1
  O  O159  1  0.97480489  0.65099244  0.62969991  1
  O  O160  1  0.96969666  1.00170681  0.11884963  1
  O  O161  1  0.98899820  1.01135843  0.62292979  1
  O  O162  1  0.19606221  0.16631563  0.11886519  1
  O  O163  1  0.19774526  0.17481127  0.62573689  1
  O  O164  1  0.18593935  0.49698685  0.12234407  1
  O  O165  1  0.18889645  0.48532859  0.62806843  1
  O  O166  1  0.18542440  0.81545775  0.11919798  1
  O  O167  1  0.18487268  0.81854846  0.61730947  1
  O  O168  1  0.52615518  0.16916383  0.11523343  1
  O  O169  1  0.51685549  0.16832998  0.63686230  1
  O  O170  1  0.51680363  0.50414396  0.12762029  1
  O  O171  1  0.53782778  0.49428949  0.62496484  1
  O  O172  1  0.50718611  0.80814353  0.12816488  1
  O  O173  1  0.51809699  0.82330173  0.62342439  1
  O  O174  1  0.87291408  0.15670508  0.11907694  1
  O  O175  1  0.86408490  0.16534015  0.62666274  1
  O  O176  1  0.87125396  0.48946024  0.12176573  1
  O  O177  1  0.86773757  0.49357942  0.62676608  1
  O  O178  1  0.85685554  0.81525938  0.12521719  1
  O  O179  1  0.84939555  0.82604285  0.61819080  1
  O  O180  1  0.12861630  0.18331825  0.38297359  1
  O  O181  1  0.13269964  0.17798127  0.87365729  1
  O  O182  1  0.14248902  0.51640553  0.38474271  1
  O  O183  1  0.13368514  0.50983574  0.86957995  1
  O  O184  1  0.14424268  0.84074883  0.37874092  1
  O  O185  1  0.14500588  0.82094562  0.88140013  1
  O  O186  1  0.47993597  0.18211129  0.37682489  1
  O  O187  1  0.46365749  0.18057241  0.87602109  1
  O  O188  1  0.48125883  0.52013034  0.36890144  1
  O  O189  1  0.46124059  0.51008858  0.87059244  1
  O  O190  1  0.47277984  0.82509121  0.38394345  1
  O  O191  1  0.47408380  0.83031775  0.86779762  1
  O  O192  1  0.81171939  0.17697753  0.37469871  1
  O  O193  1  0.82217228  0.18230446  0.88257323  1
  O  O194  1  0.80642431  0.50324699  0.37567571  1
  O  O195  1  0.80853193  0.49856370  0.87356646  1
  O  O196  1  0.81662204  0.82810036  0.37949864  1
  O  O197  1  0.81836631  0.82790231  0.87613397  1
  O  O198  1  0.04233232  0.01908973  0.37585559  1
  O  O199  1  0.02511739  0.01537403  0.88339847  1
  O  O200  1  0.03155570  0.34295650  0.37465945  1
  O  O201  1  0.03479918  0.34645522  0.87638003  1
  O  O202  1  0.02855457  0.66231960  0.36617670  1
  O  O203  1  0.03549760  0.66143528  0.87409034  1
  O  O204  1  0.34972370  0.00688915  0.37042720  1
  O  O205  1  0.34415688  0.01600710  0.87811971  1
  O  O206  1  0.37317333  0.33302809  0.37708169  1
  O  O207  1  0.36316056  0.33560622  0.87365997  1
  O  O208  1  0.36314121  0.67170699  0.38314676  1
  O  O209  1  0.34610761  0.67939118  0.87612458  1
  O  O210  1  0.67883418  -0.00480872  0.38392786  1
  O  O211  1  0.67859149  0.00076337  0.86726155  1
  O  O212  1  0.68602232  0.34656725  0.37234473  1
  O  O213  1  0.70189578  0.34298846  0.87276005  1
  O  O214  1  0.69147683  0.66626095  0.37550724  1
  O  O215  1  0.68654661  0.67092669  0.87164672  1
  O  O216  1  0.06795301  0.10339546  0.02663281  1
  O  O217  1  0.07069090  0.11304797  0.52476511  1
  O  O218  1  0.06047308  0.43178024  0.01721884  1
  O  O219  1  0.07315127  0.43252583  0.53202281  1
  O  O220  1  0.07371954  0.75169981  0.02560411  1
  O  O221  1  0.08170576  0.75440250  0.51584548  1
  O  O222  1  0.39915696  0.10596199  0.01903998  1
  O  O223  1  0.39890491  0.09453923  0.52512193  1
  O  O224  1  0.39967588  0.42317602  0.00595824  1
  O  O225  1  0.40744405  0.42743826  0.51905398  1
  O  O226  1  0.39046387  0.75945028  0.00746375  1
  O  O227  1  0.40745688  0.75559315  0.52573199  1
  O  O228  1  0.74769473  0.10952399  0.02489724  1
  O  O229  1  0.73892315  0.07974512  0.51751106  1
  O  O230  1  0.75211853  0.42858078  0.01523405  1
  O  O231  1  0.73811120  0.43959949  0.51787670  1
  O  O232  1  0.74812097  0.74948990  0.02595656  1
  O  O233  1  0.74349037  0.74986615  0.52248476  1
  O  O234  1  0.09593687  0.26559659  0.01703508  1
  O  O235  1  0.09997693  0.27325727  0.52636990  1
  O  O236  1  0.09630621  0.59648209  0.02099303  1
  O  O237  1  0.09641273  0.59204796  0.53141106  1
  O  O238  1  0.10061819  0.93260930  0.02341258  1
  O  O239  1  0.10022645  0.92256842  0.51324768  1
  O  O240  1  0.42481817  0.26079944  0.01842575  1
  O  O241  1  0.40707678  0.24884252  0.53766354  1
  O  O242  1  0.42599182  0.60490174  0.01994504  1
  O  O243  1  0.42814787  0.60286184  0.52293307  1
  O  O244  1  0.42051724  0.92354629  0.01349766  1
  O  O245  1  0.42568050  0.91841848  0.51345428  1
  O  O246  1  0.78187610  0.26854273  0.01535952  1
  O  O247  1  0.75612495  0.25821510  0.52041316  1
  O  O248  1  0.77817757  0.58978704  0.02432354  1
  O  O249  1  0.76429584  0.59467542  0.52790840  1
  O  O250  1  0.76886460  0.93808143  0.02306550  1
  O  O251  1  0.75616611  0.91976559  0.51726044  1
  O  O252  1  0.23026702  0.06181992  0.27122997  1
  O  O253  1  0.23437202  0.08493405  0.76992766  1
  O  O254  1  0.23428709  0.40325937  0.27924248  1
  O  O255  1  0.23173708  0.39891927  0.78015510  1
  O  O256  1  0.23610005  0.73853477  0.27990706  1
  O  O257  1  0.22802523  0.72278967  0.76034349  1
  O  O258  1  0.57385066  0.07854170  0.26359903  1
  O  O259  1  0.56891932  0.08158709  0.77069327  1
  O  O260  1  0.56971022  0.41484346  0.27284498  1
  O  O261  1  0.57619570  0.40302215  0.78234725  1
  O  O262  1  0.57103906  0.72327967  0.27139209  1
  O  O263  1  0.56972769  0.74183063  0.75047185  1
  O  O264  1  0.91646562  0.08413603  0.27297024  1
  O  O265  1  0.91565053  0.08338202  0.77786481  1
  O  O266  1  0.90276471  0.40335416  0.26015625  1
  O  O267  1  0.90788434  0.40164092  0.77923648  1
  O  O268  1  0.91137224  0.73137154  0.25957740  1
  O  O269  1  0.91381887  0.72573256  0.75844187  1
  O  O270  1  0.25034888  0.24645242  0.27104765  1
  O  O271  1  0.26261996  0.23709649  0.78061343  1
  O  O272  1  0.25320016  0.57989465  0.27402602  1
  O  O273  1  0.25977928  0.55979230  0.77589451  1
  O  O274  1  0.26676417  0.90331923  0.28145481  1
  O  O275  1  0.26664903  0.89355994  0.77736322  1
  O  O276  1  0.58589413  0.24891646  0.26442401  1
  O  O277  1  0.58977525  0.24885167  0.78002735  1
  O  O278  1  0.60154393  0.56707993  0.27515241  1
  O  O279  1  0.60821521  0.55998389  0.76883259  1
  O  O280  1  0.59106907  0.90347792  0.25982884  1
  O  O281  1  0.58795262  0.90670073  0.76436279  1
  O  O282  1  0.93678176  0.24368851  0.27081206  1
  O  O283  1  0.93795787  0.24594030  0.77781731  1
  O  O284  1  0.93313146  0.56843520  0.25685011  1
  O  O285  1  0.93945483  0.55718775  0.76955911  1
  O  O286  1  0.93151669  0.90864523  0.26864855  1
  O  O287  1  0.92173929  0.90934180  0.75733080  1
  O  O288  1  0.24625000  0.24662319  0.47463118  1
  O  O289  1  0.26166712  0.23411804  0.97094680  1
  O  O290  1  0.25406207  0.58154629  0.47581244  1
  O  O291  1  0.26578228  0.57031093  0.96799158  1
  O  O292  1  0.25850688  0.90145416  0.47336873  1
  O  O293  1  0.25840517  0.89175050  0.97750644  1
  O  O294  1  0.57927077  0.25247998  0.48774172  1
  O  O295  1  0.58391613  0.24318590  0.97312406  1
  O  O296  1  0.60126058  0.57380910  0.46994851  1
  O  O297  1  0.60375753  0.56172685  0.97607579  1
  O  O298  1  0.58930042  0.90047167  0.48527953  1
  O  O299  1  0.59229145  0.90709868  0.99061132  1
  O  O300  1  0.94184422  0.24279400  0.48375102  1
  O  O301  1  0.94159714  0.23447046  0.97892111  1
  O  O302  1  0.92688905  0.56819220  0.49205156  1
  O  O303  1  0.94113803  0.56229667  0.97736234  1
  O  O304  1  0.91767540  0.90622964  0.48621074  1
  O  O305  1  0.93656666  0.91279575  0.98183655  1
  O  O306  1  0.22194022  0.07707131  0.47665305  1
  O  O307  1  0.23063010  0.07671939  0.98757644  1
  O  O308  1  0.22947936  0.40731098  0.48095011  1
  O  O309  1  0.24021472  0.39841219  0.96651531  1
  O  O310  1  0.23892950  0.73741171  0.47000466  1
  O  O311  1  0.22610579  0.72629507  0.97691198  1
  O  O312  1  0.57742007  0.06999043  0.49276119  1
  O  O313  1  0.56682700  0.08543981  0.97916841  1
  O  O314  1  0.57539273  0.41224843  0.46468830  1
  O  O315  1  0.57419264  0.40571668  0.96558297  1
  O  O316  1  0.56760551  0.72829419  0.48239120  1
  O  O317  1  0.56750273  0.72967445  0.99672596  1
  O  O318  1  0.91541820  0.08284793  0.47204725  1
  O  O319  1  0.90870527  0.07445865  0.97823057  1
  O  O320  1  0.90903733  0.40654054  0.48674178  1
  O  O321  1  0.90600011  0.39899663  0.97291387  1
  O  O322  1  0.90501831  0.74079213  0.49269619  1
  O  O323  1  0.91680243  0.73129023  0.98401690  1
  O  O324  1  0.08592758  0.26611029  0.23443537  1
  O  O325  1  0.10552896  0.27640053  0.73453980  1
  O  O326  1  0.09136102  0.59542636  0.21972604  1
  O  O327  1  0.09992812  0.59115701  0.72165463  1
  O  O328  1  0.10670435  0.93651318  0.22741788  1
  O  O329  1  0.09467427  0.92399875  0.74002653  1
  O  O330  1  0.41404756  0.25229621  0.21837308  1
  O  O331  1  0.42180586  0.26079270  0.73257485  1
  O  O332  1  0.43858597  0.60285824  0.23036733  1
  O  O333  1  0.43311103  0.60005989  0.71881397  1
  O  O334  1  0.41881470  0.93434649  0.23639143  1
  O  O335  1  0.42789036  0.92277536  0.73923288  1
  O  O336  1  0.76410395  0.26255155  0.20995256  1
  O  O337  1  0.75936275  0.26483590  0.74209359  1
  O  O338  1  0.76910440  0.59678328  0.22700203  1
  O  O339  1  0.77209360  0.58514243  0.71775795  1
  O  O340  1  0.76530824  0.93229004  0.22263700  1
  O  O341  1  0.74658393  0.92415528  0.73656272  1
  O  O342  1  0.07478385  0.09967769  0.21141333  1
  O  O343  1  0.07071202  0.11444680  0.73141169  1
  O  O344  1  0.06205173  0.43138723  0.22577568  1
  O  O345  1  0.06794762  0.43193032  0.72496119  1
  O  O346  1  0.07364981  0.74965931  0.22827294  1
  O  O347  1  0.07155191  0.74598882  0.72619010  1
  O  O348  1  0.38779608  0.09429690  0.22219436  1
  O  O349  1  0.40283489  0.10415721  0.73946806  1
  O  O350  1  0.41071416  0.43675577  0.23573706  1
  O  O351  1  0.39723777  0.42260724  0.73808052  1
  O  O352  1  0.39526838  0.76687516  0.25221421  1
  O  O353  1  0.40881342  0.76129133  0.73417753  1
  O  O354  1  0.74458132  0.09534543  0.22346821  1
  O  O355  1  0.73916007  0.08606732  0.73751002  1
  O  O356  1  0.74995257  0.43137124  0.23300737  1
  O  O357  1  0.73695010  0.43362913  0.73241897  1
  O  O358  1  0.73902131  0.74894755  0.23402944  1
  O  O359  1  0.75168147  0.74531722  0.71915193  1
