# generated using pymatgen
data_BaLaInIrO6
_symmetry_space_group_name_H-M   'P 1'
_cell_length_a   17.53376998
_cell_length_b   17.56196536
_cell_length_c   16.48791625
_cell_angle_alpha   90.00569830
_cell_angle_beta   90.00305356
_cell_angle_gamma   89.98576135
_symmetry_Int_Tables_number   1
_chemical_formula_structural   BaLaInIrO6
_chemical_formula_sum   'Ba36 La36 In36 Ir36 O216'
_cell_volume   5077.08200197
_cell_formula_units_Z   36
loop_
 _symmetry_equiv_pos_site_id
 _symmetry_equiv_pos_as_xyz
  1  'x, y, z'
loop_
 _atom_site_type_symbol
 _atom_site_label
 _atom_site_symmetry_multiplicity
 _atom_site_fract_x
 _atom_site_fract_y
 _atom_site_fract_z
 _atom_site_occupancy
  Ba  Ba0  1  0.49652979  0.67669420  0.62743081  1
  Ba  Ba1  1  -0.00257782  0.15923898  0.37707490  1
  Ba  Ba2  1  0.50074492  0.99147820  0.37537918  1
  Ba  Ba3  1  0.16274754  0.00716101  0.62378042  1
  Ba  Ba4  1  0.66511097  0.84002730  0.62826488  1
  Ba  Ba5  1  0.49959549  0.00859728  0.62620635  1
  Ba  Ba6  1  0.49583553  0.34090015  0.12683601  1
  Ba  Ba7  1  0.49601142  0.32494967  0.87396131  1
  Ba  Ba8  1  0.83461136  0.00803931  0.12213930  1
  Ba  Ba9  1  0.83363402  0.00770637  0.62860886  1
  Ba  Ba10  1  0.50173199  0.65818854  0.87544892  1
  Ba  Ba11  1  0.16650783  0.67647422  0.12944687  1
  Ba  Ba12  1  0.83221825  0.65663160  0.37172868  1
  Ba  Ba13  1  0.83802277  0.66035592  0.87198620  1
  Ba  Ba14  1  0.16870277  0.34576856  0.62497368  1
  Ba  Ba15  1  0.17122656  0.65301549  0.87838828  1
  Ba  Ba16  1  0.49677995  0.34244186  0.62134030  1
  Ba  Ba17  1  0.83381150  0.33681090  0.62165205  1
  Ba  Ba18  1  0.17100273  0.32511461  0.37677982  1
  Ba  Ba19  1  0.66848788  0.82799266  0.87522314  1
  Ba  Ba20  1  0.00827132  0.49555918  0.87821703  1
  Ba  Ba21  1  0.66701884  0.15438561  0.37467773  1
  Ba  Ba22  1  0.33245972  0.84395432  0.12315636  1
  Ba  Ba23  1  1.00277125  0.50568686  0.62520326  1
  Ba  Ba24  1  0.83646649  0.99086582  0.37398628  1
  Ba  Ba25  1  0.49859716  0.99186228  0.87666565  1
  Ba  Ba26  1  -0.00000912  0.82096761  0.87345596  1
  Ba  Ba27  1  0.50254362  0.00431859  0.12069847  1
  Ba  Ba28  1  0.49378021  0.67531131  0.12411282  1
  Ba  Ba29  1  0.66929073  0.50741351  0.62462964  1
  Ba  Ba30  1  0.16871425  0.67298691  0.62439330  1
  Ba  Ba31  1  0.66268279  0.50917145  0.12481649  1
  Ba  Ba32  1  0.33369624  0.82429805  0.37589927  1
  Ba  Ba33  1  0.32995722  0.48890058  0.36838836  1
  Ba  Ba34  1  0.83165258  0.67865795  0.12844575  1
  Ba  Ba35  1  0.17127002  0.32425510  0.87436515  1
  La  La36  1  0.17104272  0.98627937  0.37385575  1
  La  La37  1  0.66383402  0.48745670  0.87695642  1
  La  La38  1  1.00294369  0.52053258  0.12635106  1
  La  La39  1  0.32618643  0.48334337  0.87482958  1
  La  La40  1  0.66794137  0.17845701  0.62366595  1
  La  La41  1  -0.00072201  0.15779573  0.87323923  1
  La  La42  1  0.33951586  0.51340983  0.12262481  1
  La  La43  1  0.17301066  0.98135587  0.87366822  1
  La  La44  1  0.16343569  0.35567847  0.12777380  1
  La  La45  1  0.66431864  0.15735181  0.87336624  1
  La  La46  1  0.82889002  0.67985959  0.62633504  1
  La  La47  1  0.65927351  0.47850592  0.37275964  1
  La  La48  1  0.15957540  0.01598512  0.12428315  1
  La  La49  1  -0.00204545  0.48797741  0.37090502  1
  La  La50  1  0.33521369  0.18174247  0.12369571  1
  La  La51  1  0.83674249  0.97992668  0.87556252  1
  La  La52  1  0.82920172  0.34677219  0.12706860  1
  La  La53  1  0.34304613  0.84891070  0.62847561  1
  La  La54  1  0.50524989  0.65218790  0.37385445  1
  La  La55  1  0.16711549  0.64862421  0.37639665  1
  La  La56  1  1.00170647  0.83937923  0.62177673  1
  La  La57  1  0.83556738  0.32220151  0.37661074  1
  La  La58  1  0.34269927  0.51391190  0.62383800  1
  La  La59  1  0.32886321  0.81600482  0.87656771  1
  La  La60  1  0.50380509  0.31346975  0.37365831  1
  La  La61  1  1.00557762  0.18561828  0.62671873  1
  La  La62  1  0.66387857  0.83683242  0.12633007  1
  La  La63  1  0.32654623  0.15419823  0.87741675  1
  La  La64  1  0.66916078  0.18322552  0.12455603  1
  La  La65  1  -0.00530809  0.82089717  0.37538508  1
  La  La66  1  0.33707613  0.17940051  0.62681385  1
  La  La67  1  0.65926249  0.82156177  0.37484072  1
  La  La68  1  1.00374171  0.18494369  0.12557233  1
  La  La69  1  1.00293880  0.84789627  0.12556539  1
  La  La70  1  0.82750779  0.33507392  0.87571063  1
  La  La71  1  0.33682513  0.16357740  0.37755302  1
  In  In72  1  0.00361785  0.66388154  0.74802946  1
  In  In73  1  0.49802747  0.49786736  0.75047167  1
  In  In74  1  0.83544880  0.49892233  0.74886055  1
  In  In75  1  0.49788180  0.83123692  0.50037187  1
  In  In76  1  0.00148729  0.33437585  0.00164807  1
  In  In77  1  0.49849682  0.16771662  -0.00282394  1
  In  In78  1  0.49585301  0.83286793  0.24828736  1
  In  In79  1  0.00229801  0.33504063  0.75449918  1
  In  In80  1  0.83551372  0.16799200  -0.00115917  1
  In  In81  1  0.00123458  -0.00048313  0.49964931  1
  In  In82  1  0.16598594  0.16839472  0.25134913  1
  In  In83  1  0.00254584  0.00164233  0.75271591  1
  In  In84  1  0.66815914  0.66706911  0.00017471  1
  In  In85  1  0.33188819  0.00343053  0.49933113  1
  In  In86  1  0.49697745  0.49627782  -0.00174755  1
  In  In87  1  0.16661599  0.83257222  0.00266496  1
  In  In88  1  0.16822522  0.82972835  0.50000485  1
  In  In89  1  0.83361604  0.50015593  0.49616469  1
  In  In90  1  0.66657591  0.66404353  0.49947874  1
  In  In91  1  0.50191644  0.16205979  0.24713317  1
  In  In92  1  0.32923481  0.00374733  0.24603014  1
  In  In93  1  0.00267024  0.33595549  0.49639341  1
  In  In94  1  0.83616662  0.83442198  0.74744017  1
  In  In95  1  0.66579277  0.00410879  0.74935686  1
  In  In96  1  0.32929705  0.66717735  0.25366094  1
  In  In97  1  0.83368039  0.16763070  0.75398454  1
  In  In98  1  0.66940332  0.00315876  0.00172311  1
  In  In99  1  -0.00166343  0.66448254  0.49736621  1
  In  In100  1  0.83423574  0.16479734  0.24738112  1
  In  In101  1  0.83392194  0.16459600  0.50077805  1
  In  In102  1  0.00310851  0.00409177  -0.00240295  1
  In  In103  1  0.33120975  0.00253487  0.75118421  1
  In  In104  1  0.66776364  0.66454156  0.75003977  1
  In  In105  1  0.66563499  0.66406467  0.24994109  1
  In  In106  1  0.33481670  0.33459468  0.49872753  1
  In  In107  1  0.83434492  0.50090935  0.00221362  1
  Ir  Ir108  1  0.66800691  0.33314595  0.00232327  1
  Ir  Ir109  1  0.16319380  0.49980280  0.24895059  1
  Ir  Ir110  1  0.00359067  -0.00095008  0.24819528  1
  Ir  Ir111  1  0.00163251  0.66763894  0.00646035  1
  Ir  Ir112  1  0.17109853  0.50270562  0.49903619  1
  Ir  Ir113  1  0.17323521  0.83099812  0.74943714  1
  Ir  Ir114  1  0.49808091  0.49857348  0.49431931  1
  Ir  Ir115  1  0.49516405  0.83440929  0.75356256  1
  Ir  Ir116  1  0.49584094  0.83470126  -0.00300243  1
  Ir  Ir117  1  0.33352852  0.66450940  -0.00246419  1
  Ir  Ir118  1  0.50267196  0.16687010  0.50303575  1
  Ir  Ir119  1  0.83524941  0.83660551  0.25155565  1
  Ir  Ir120  1  0.33246087  0.66690554  0.74903683  1
  Ir  Ir121  1  0.32772142  0.00184290  -0.00211665  1
  Ir  Ir122  1  0.16862457  0.16766086  0.00143428  1
  Ir  Ir123  1  -0.00148294  0.33769916  0.24760855  1
  Ir  Ir124  1  0.66735095  -0.00141948  0.49840392  1
  Ir  Ir125  1  0.49727420  0.17064384  0.74941381  1
  Ir  Ir126  1  0.33220699  0.33211198  0.24853698  1
  Ir  Ir127  1  0.17668852  0.50000930  0.74892270  1
  Ir  Ir128  1  0.32584619  0.33180311  0.00336680  1
  Ir  Ir129  1  0.17032116  0.50135295  0.00454249  1
  Ir  Ir130  1  0.49571845  0.49464684  0.25335412  1
  Ir  Ir131  1  0.66695579  0.33415746  0.24895150  1
  Ir  Ir132  1  0.00040863  0.66958436  0.25031871  1
  Ir  Ir133  1  0.66369784  0.33156288  0.75044271  1
  Ir  Ir134  1  0.16770633  0.16646510  0.50327194  1
  Ir  Ir135  1  0.66168276  0.33176519  0.49775390  1
  Ir  Ir136  1  0.15912075  0.83450576  0.25218408  1
  Ir  Ir137  1  0.16718708  0.16710710  0.75108455  1
  Ir  Ir138  1  0.33329457  0.66301597  0.50057723  1
  Ir  Ir139  1  0.83919812  0.83363552  0.00625807  1
  Ir  Ir140  1  0.67035059  -0.00645647  0.25016832  1
  Ir  Ir141  1  0.33283992  0.33024383  0.75052937  1
  Ir  Ir142  1  0.83186660  0.83519589  0.49346019  1
  Ir  Ir143  1  0.83369920  0.49555114  0.25101676  1
  O  O144  1  0.29903845  0.31871424  0.12632940  1
  O  O145  1  0.31848875  0.31619113  0.62840524  1
  O  O146  1  0.31595828  0.65127366  0.11976602  1
  O  O147  1  0.31354504  0.64921667  0.62529858  1
  O  O148  1  0.29518837  0.99807805  0.11530522  1
  O  O149  1  0.31289380  0.99073821  0.62688025  1
  O  O150  1  0.64161239  0.32155774  0.12448870  1
  O  O151  1  0.64069192  0.31593319  0.62584155  1
  O  O152  1  0.64564621  0.67944644  0.12617708  1
  O  O153  1  0.64345845  0.66383800  0.62376745  1
  O  O154  1  0.65425512  0.97836619  0.13027754  1
  O  O155  1  0.64930890  0.99714586  0.61746675  1
  O  O156  1  0.96858390  0.32597170  0.12995673  1
  O  O157  1  0.98941952  0.32735680  0.62509558  1
  O  O158  1  0.97988991  0.65754305  0.12959338  1
  O  O159  1  0.96811466  0.65944801  0.62066478  1
  O  O160  1  0.98520756  0.98857880  0.12813934  1
  O  O161  1  0.98489580  0.97811538  0.62823778  1
  O  O162  1  0.20099723  0.15544434  0.11972265  1
  O  O163  1  0.20072172  0.16352836  0.62859812  1
  O  O164  1  0.19962326  0.49857419  0.12676849  1
  O  O165  1  0.20498366  0.50261527  0.62424581  1
  O  O166  1  0.18150625  0.83277555  0.13347891  1
  O  O167  1  0.20576664  0.83167308  0.62985412  1
  O  O168  1  0.53106104  0.16941064  0.12285815  1
  O  O169  1  0.53116158  0.16879340  0.62671035  1
  O  O170  1  0.50956823  0.49612033  0.13203998  1
  O  O171  1  0.51500601  0.49937473  0.61536974  1
  O  O172  1  0.52490154  0.83316582  0.11807823  1
  O  O173  1  0.51141353  0.83404486  0.63232654  1
  O  O174  1  0.86922390  0.16779813  0.12563212  1
  O  O175  1  0.86704422  0.16850039  0.62705618  1
  O  O176  1  0.86775035  0.48507165  0.13344079  1
  O  O177  1  0.85346029  0.48578891  0.62094056  1
  O  O178  1  0.86800662  0.83745068  0.13070942  1
  O  O179  1  0.86444053  0.83162803  0.61266639  1
  O  O180  1  0.14749437  0.16988119  0.38210045  1
  O  O181  1  0.13666755  0.17254351  0.87539887  1
  O  O182  1  0.13639323  0.50711819  0.37240599  1
  O  O183  1  0.15779765  0.49551880  0.87557314  1
  O  O184  1  0.13022201  0.84273812  0.36857997  1
  O  O185  1  0.15191314  0.83405906  0.87117647  1
  O  O186  1  0.47604114  0.16925693  0.37875569  1
  O  O187  1  0.46389860  0.17137884  0.86906899  1
  O  O188  1  0.47609804  0.50612110  0.37445683  1
  O  O189  1  0.46148308  0.49255449  0.87465517  1
  O  O190  1  0.48437590  0.83926704  0.37488697  1
  O  O191  1  0.46432745  0.83464862  0.87565749  1
  O  O192  1  0.81514754  0.18152076  0.37133206  1
  O  O193  1  0.79859651  0.19427894  0.87806306  1
  O  O194  1  0.79672596  0.49622248  0.36669676  1
  O  O195  1  0.79955872  0.49372773  0.87720293  1
  O  O196  1  0.79895581  0.83584851  0.37187412  1
  O  O197  1  0.82250072  0.83168958  0.88636781  1
  O  O198  1  0.03372629  0.00285521  0.36659514  1
  O  O199  1  0.04272471  0.01863558  0.87511011  1
  O  O200  1  0.02630455  0.34718789  0.36474892  1
  O  O201  1  0.02571606  0.33771989  0.87932358  1
  O  O202  1  0.03180726  0.68116849  0.36786468  1
  O  O203  1  0.02069976  0.66849796  0.88626366  1
  O  O204  1  0.34968661  0.02841429  0.37374267  1
  O  O205  1  0.35032317  0.01598424  0.87905242  1
  O  O206  1  0.36271171  0.33167876  0.36957050  1
  O  O207  1  0.34665352  0.34662041  0.87890595  1
  O  O208  1  0.36490678  0.66642223  0.38240891  1
  O  O209  1  0.35217418  0.67991607  0.87247631  1
  O  O210  1  0.68676580  -0.00089611  0.37389778  1
  O  O211  1  0.70065943  0.01985148  0.87659419  1
  O  O212  1  0.69510871  0.34035193  0.37242676  1
  O  O213  1  0.69215665  0.34573861  0.87722858  1
  O  O214  1  0.68535583  0.68224074  0.37347399  1
  O  O215  1  0.68669274  0.67524684  0.87588000  1
  O  O216  1  0.07454917  0.10471389  0.03044248  1
  O  O217  1  0.07262692  0.10372554  0.52669648  1
  O  O218  1  0.07570900  0.43454221  0.03414173  1
  O  O219  1  0.07960568  0.43395861  0.50838946  1
  O  O220  1  0.06540357  0.76424316  0.02545455  1
  O  O221  1  0.06667401  0.76386182  0.52072927  1
  O  O222  1  0.39272628  0.09754399  0.02053050  1
  O  O223  1  0.40649916  0.10489084  0.52498513  1
  O  O224  1  0.39069030  0.42675691  0.02326874  1
  O  O225  1  0.40368191  0.43397737  0.51893105  1
  O  O226  1  0.39997954  0.76340074  0.01039550  1
  O  O227  1  0.39182880  0.75861284  0.52621827  1
  O  O228  1  0.73316256  0.10594419  0.02913699  1
  O  O229  1  0.73127524  0.09470958  0.52028354  1
  O  O230  1  0.73601136  0.42134681  0.02398493  1
  O  O231  1  0.72872016  0.42289096  0.50616571  1
  O  O232  1  0.74310998  0.77296314  0.02671813  1
  O  O233  1  0.74444328  0.76663210  0.51546795  1
  O  O234  1  0.10584894  0.26116541  0.03507008  1
  O  O235  1  0.09752069  0.25525154  0.51898508  1
  O  O236  1  0.09720790  0.59422420  0.02299790  1
  O  O237  1  0.10384689  0.59514197  0.50557571  1
  O  O238  1  0.10423281  0.93620094  0.01560190  1
  O  O239  1  0.08949830  0.92077048  0.51644080  1
  O  O240  1  0.41601511  0.26032064  0.01874167  1
  O  O241  1  0.43274577  0.25789763  0.50805641  1
  O  O242  1  0.41925170  0.59093289  0.01522765  1
  O  O243  1  0.42811903  0.59251802  0.51885320  1
  O  O244  1  0.42052503  0.93060828  0.01551922  1
  O  O245  1  0.41934034  0.92148243  0.51906966  1
  O  O246  1  0.76229541  0.26969984  0.02861004  1
  O  O247  1  0.74804000  0.25782698  0.51647168  1
  O  O248  1  0.76179732  0.59257978  0.02235976  1
  O  O249  1  0.76950385  0.60085929  0.52020529  1
  O  O250  1  0.77125748  0.92708004  0.00599525  1
  O  O251  1  0.76225360  0.93074294  0.51488670  1
  O  O252  1  0.22203930  0.06200973  0.26263428  1
  O  O253  1  0.23196010  0.07434449  0.77879579  1
  O  O254  1  0.23089986  0.40197058  0.25743906  1
  O  O255  1  0.24713604  0.40740372  0.76968867  1
  O  O256  1  0.22346285  0.73962732  0.27805082  1
  O  O257  1  0.24240533  0.73980943  0.77046005  1
  O  O258  1  0.57880840  0.06322127  0.26136429  1
  O  O259  1  0.56944236  0.08414707  0.77166137  1
  O  O260  1  0.57096003  0.40285035  0.27923547  1
  O  O261  1  0.57406503  0.40069552  0.76621701  1
  O  O262  1  0.56629019  0.73361759  0.27517336  1
  O  O263  1  0.56709034  0.74837417  0.76645400  1
  O  O264  1  0.91489459  0.06932219  0.26457377  1
  O  O265  1  0.90332625  0.07143374  0.78695989  1
  O  O266  1  0.90310588  0.40324797  0.27752850  1
  O  O267  1  0.89808112  0.39598788  0.77442577  1
  O  O268  1  0.90970975  0.74629863  0.27520657  1
  O  O269  1  0.91562147  0.74493792  0.75468588  1
  O  O270  1  0.27029141  0.23387833  0.27009422  1
  O  O271  1  0.26775413  0.22999450  0.77226978  1
  O  O272  1  0.24753897  0.57713283  0.27208424  1
  O  O273  1  0.27263804  0.56627792  0.76962384  1
  O  O274  1  0.24777686  0.90478650  0.27407729  1
  O  O275  1  0.26344579  0.90064119  0.77738936  1
  O  O276  1  0.59198075  0.24720060  0.27094526  1
  O  O277  1  0.59636680  0.23458866  0.77289795  1
  O  O278  1  0.58861950  0.56342162  0.27636762  1
  O  O279  1  0.59677515  0.56384683  0.77647420  1
  O  O280  1  0.60929524  0.89496889  0.26368555  1
  O  O281  1  0.58337388  0.90840300  0.76795262  1
  O  O282  1  0.92793535  0.25113615  0.27005534  1
  O  O283  1  0.93926538  0.22999346  0.77046904  1
  O  O284  1  0.93293994  0.56507345  0.26907080  1
  O  O285  1  0.93254672  0.56977396  0.77084944  1
  O  O286  1  0.93790590  0.90123176  0.27117625  1
  O  O287  1  0.92376378  0.91306375  0.77819388  1
  O  O288  1  0.26705823  0.22972343  0.48448281  1
  O  O289  1  0.26541134  0.23088855  0.97904911  1
  O  O290  1  0.26485011  0.57128038  0.47964551  1
  O  O291  1  0.27007678  0.56424751  0.98072758  1
  O  O292  1  0.25132113  0.91320602  0.47084183  1
  O  O293  1  0.26356252  0.90834271  0.97041585  1
  O  O294  1  0.58980423  0.24113809  0.47628404  1
  O  O295  1  0.60371634  0.23962028  0.97746055  1
  O  O296  1  0.59290122  0.56308317  0.46745708  1
  O  O297  1  0.59383164  0.56686815  0.97874836  1
  O  O298  1  0.60264532  0.90335045  0.48024946  1
  O  O299  1  0.58696355  0.90586668  0.98650184  1
  O  O300  1  0.92000442  0.24966229  0.47976567  1
  O  O301  1  0.94516060  0.22559294  0.98567298  1
  O  O302  1  0.93510145  0.56698843  0.46326445  1
  O  O303  1  0.93835466  0.57063103  0.99763359  1
  O  O304  1  0.92632627  0.89846921  0.47211140  1
  O  O305  1  0.93169827  0.90144284  0.98979513  1
  O  O306  1  0.23069381  0.07550730  0.47935932  1
  O  O307  1  0.23239100  0.07000697  0.97182495  1
  O  O308  1  0.23998777  0.41116777  0.48527743  1
  O  O309  1  0.23131583  0.40188743  0.99547402  1
  O  O310  1  0.23780764  0.72684622  0.47368492  1
  O  O311  1  0.24690490  0.74042530  0.98637235  1
  O  O312  1  0.57235898  0.07001228  0.48638811  1
  O  O313  1  0.57618165  0.07884323  0.97706504  1
  O  O314  1  0.56515466  0.40267648  0.46748082  1
  O  O315  1  0.57767068  0.40272777  0.98183275  1
  O  O316  1  0.56545148  0.73295552  0.47472319  1
  O  O317  1  0.56608608  0.74794186  0.98378705  1
  O  O318  1  0.90851090  0.07169418  0.48375860  1
  O  O319  1  0.90309755  0.06729183  0.96866554  1
  O  O320  1  0.90711508  0.40756073  0.46223721  1
  O  O321  1  0.89454851  0.39419649  0.98812327  1
  O  O322  1  0.90242916  0.74650162  0.47510228  1
  O  O323  1  0.90664638  0.73497660  0.99322306  1
  O  O324  1  0.09153514  0.26701522  0.22139254  1
  O  O325  1  0.10042500  0.25475605  0.72907043  1
  O  O326  1  0.08968754  0.59177951  0.22974668  1
  O  O327  1  0.10567526  0.58909669  0.73727683  1
  O  O328  1  0.09626653  0.93098532  0.22245164  1
  O  O329  1  0.10539775  0.92212535  0.74191448  1
  O  O330  1  0.42401270  0.26427963  0.23819092  1
  O  O331  1  0.42253569  0.25715640  0.72626123  1
  O  O332  1  0.42167019  0.58202511  0.23661783  1
  O  O333  1  0.42008563  0.59402124  0.73231861  1
  O  O334  1  0.42248949  0.92987462  0.23228322  1
  O  O335  1  0.42279926  0.92092254  0.73643280  1
  O  O336  1  0.75641895  0.26366308  0.22179726  1
  O  O337  1  0.75331822  0.26495109  0.73370172  1
  O  O338  1  0.76206972  0.58407116  0.23145180  1
  O  O339  1  0.76866322  0.59722423  0.72257357  1
  O  O340  1  0.76636810  0.92693909  0.23068070  1
  O  O341  1  0.76016645  0.92896367  0.74780367  1
  O  O342  1  0.06727010  0.09446171  0.21962644  1
  O  O343  1  0.07135391  0.10514901  0.72510726  1
  O  O344  1  0.06903570  0.43098907  0.22002895  1
  O  O345  1  0.08647537  0.43004227  0.73540681  1
  O  O346  1  0.06099284  0.76896034  0.22851408  1
  O  O347  1  0.07949017  0.76612596  0.72226943  1
  O  O348  1  0.39629500  0.10581193  0.22488476  1
  O  O349  1  0.40305302  0.10342133  0.72881810  1
  O  O350  1  0.39742554  0.42801673  0.22518363  1
  O  O351  1  0.39727171  0.42570821  0.72682576  1
  O  O352  1  0.40129372  0.75714173  0.23097395  1
  O  O353  1  0.39496133  0.76738194  0.73318732  1
  O  O354  1  0.73230836  0.09201648  0.22676059  1
  O  O355  1  0.72951118  0.10696836  0.72789463  1
  O  O356  1  0.74405090  0.42266247  0.22390268  1
  O  O357  1  0.72820468  0.42296963  0.74011395  1
  O  O358  1  0.74051791  0.77284561  0.23132113  1
  O  O359  1  0.74951649  0.75511067  0.72468735  1
