# generated using pymatgen
data_BaLaInIrO6
_symmetry_space_group_name_H-M   'P 1'
_cell_length_a   17.53918821
_cell_length_b   17.57253290
_cell_length_c   16.51354544
_cell_angle_alpha   89.98300729
_cell_angle_beta   90.00760290
_cell_angle_gamma   89.98150391
_symmetry_Int_Tables_number   1
_chemical_formula_structural   BaLaInIrO6
_chemical_formula_sum   'Ba36 La36 In36 Ir36 O216'
_cell_volume   5089.60564850
_cell_formula_units_Z   36
loop_
 _symmetry_equiv_pos_site_id
 _symmetry_equiv_pos_as_xyz
  1  'x, y, z'
loop_
 _atom_site_type_symbol
 _atom_site_label
 _atom_site_symmetry_multiplicity
 _atom_site_fract_x
 _atom_site_fract_y
 _atom_site_fract_z
 _atom_site_occupancy
  Ba  Ba0  1  0.83673976  0.98916491  0.37148999  1
  Ba  Ba1  1  0.66989507  0.84421227  0.12483168  1
  Ba  Ba2  1  0.16563026  0.32630468  0.87684054  1
  Ba  Ba3  1  0.99946221  0.84598915  0.12743145  1
  Ba  Ba4  1  -0.00109776  0.82413676  0.87732478  1
  Ba  Ba5  1  0.50174387  0.32959495  0.87774810  1
  Ba  Ba6  1  0.32962261  0.17507279  0.12550318  1
  Ba  Ba7  1  0.83345615  0.68299587  0.13082513  1
  Ba  Ba8  1  0.00006363  0.15989541  0.37078111  1
  Ba  Ba9  1  0.49728661  0.67551989  0.12504728  1
  Ba  Ba10  1  0.50076450  0.01179844  0.62555800  1
  Ba  Ba11  1  0.33678496  0.17777837  0.62227213  1
  Ba  Ba12  1  0.32929125  0.82469585  0.87699632  1
  Ba  Ba13  1  0.33711013  0.50488219  0.62191002  1
  Ba  Ba14  1  0.83116908  0.67588628  0.62509530  1
  Ba  Ba15  1  0.34107141  0.84441095  0.62612831  1
  Ba  Ba16  1  0.99741075  0.17562981  0.13056811  1
  Ba  Ba17  1  -0.00274591  0.82529559  0.37247760  1
  Ba  Ba18  1  0.49974756  0.66055323  0.87310802  1
  Ba  Ba19  1  0.66984598  0.49317396  0.87788506  1
  Ba  Ba20  1  0.16568675  0.67659519  0.62369872  1
  Ba  Ba21  1  0.49638682  0.67369367  0.62809389  1
  Ba  Ba22  1  0.16745194  0.33915605  0.62566791  1
  Ba  Ba23  1  0.16252064  0.67373323  0.12942668  1
  Ba  Ba24  1  0.82997558  0.34908790  0.13335323  1
  Ba  Ba25  1  0.66685609  0.50680542  0.62515223  1
  Ba  Ba26  1  0.33150329  0.16426400  0.87454822  1
  Ba  Ba27  1  0.33578373  0.15634881  0.37127237  1
  Ba  Ba28  1  0.83068939  0.34013440  0.62310431  1
  Ba  Ba29  1  0.66261368  0.82458193  0.87585764  1
  Ba  Ba30  1  0.33529415  0.48420413  0.37137241  1
  Ba  Ba31  1  0.16338419  0.33603876  0.12677771  1
  Ba  Ba32  1  0.33129257  0.50305965  0.12289925  1
  Ba  Ba33  1  0.83740680  0.65698017  0.37099517  1
  Ba  Ba34  1  0.16362524  0.00830899  0.12362167  1
  Ba  Ba35  1  0.66528162  0.83939051  0.62314484  1
  La  La36  1  0.65988381  0.14693774  0.37494478  1
  La  La37  1  0.17464104  0.31421891  0.37156671  1
  La  La38  1  0.33290048  0.48422441  0.87197679  1
  La  La39  1  -0.00060678  0.48951483  0.36922676  1
  La  La40  1  0.49509958  0.34352538  0.62972910  1
  La  La41  1  0.66070686  0.15974711  0.87635726  1
  La  La42  1  -0.00878170  0.15450352  0.88360595  1
  La  La43  1  0.17409831  0.64877354  0.87824542  1
  La  La44  1  0.50293620  0.98782627  0.86845801  1
  La  La45  1  0.66619588  0.48247694  0.37238263  1
  La  La46  1  0.67378067  0.18281183  0.12629437  1
  La  La47  1  1.01237010  0.51280663  0.62600918  1
  La  La48  1  -0.00687505  0.48630577  0.88145139  1
  La  La49  1  0.50296583  0.31511711  0.37785990  1
  La  La50  1  0.49497251  0.34298468  0.12454456  1
  La  La51  1  0.50456559  0.64971303  0.37399790  1
  La  La52  1  0.17146025  0.98649110  0.87790567  1
  La  La53  1  0.16879805  0.98318237  0.36774058  1
  La  La54  1  0.83626412  0.64966938  0.87712364  1
  La  La55  1  0.83305666  0.00687692  0.12356782  1
  La  La56  1  0.50387798  0.98355353  0.37848024  1
  La  La57  1  0.67174042  0.51822289  0.12591069  1
  La  La58  1  0.83664444  0.98577838  0.87489852  1
  La  La59  1  1.00719460  0.17996740  0.61755275  1
  La  La60  1  1.00268043  0.85042704  0.62310816  1
  La  La61  1  0.82513790  0.01347620  0.61483874  1
  La  La62  1  0.16848535  0.65119398  0.37652101  1
  La  La63  1  1.00432932  0.51656286  0.12921269  1
  La  La64  1  0.16466760  0.01117299  0.62502446  1
  La  La65  1  0.49468517  0.00904810  0.12456932  1
  La  La66  1  0.83660192  0.32281544  0.37327992  1
  La  La67  1  0.66855757  0.81584534  0.37280967  1
  La  La68  1  0.66900949  0.17946949  0.62318476  1
  La  La69  1  0.32743327  0.81915823  0.37354131  1
  La  La70  1  0.33546792  0.84955834  0.12623078  1
  La  La71  1  0.83967723  0.32091435  0.88328855  1
  In  In72  1  0.16432194  0.83315245  0.74924709  1
  In  In73  1  0.83016084  0.16502970  0.25212705  1
  In  In74  1  -0.00208471  0.00359474  0.49766644  1
  In  In75  1  0.32959015  0.66510160  0.74986398  1
  In  In76  1  0.00078337  0.66845299  0.49921911  1
  In  In77  1  0.49982907  0.83407744  0.00312725  1
  In  In78  1  0.16849902  0.49546101  0.25079249  1
  In  In79  1  0.33457665  0.00398272  -0.00053515  1
  In  In80  1  0.16098822  0.16754499  -0.00045377  1
  In  In81  1  0.83456026  0.83281606  -0.00104534  1
  In  In82  1  -0.00004195  0.33544412  0.49706524  1
  In  In83  1  0.66713360  0.00503370  0.00052834  1
  In  In84  1  0.83859118  0.49878614  0.49779104  1
  In  In85  1  0.83811752  0.49824742  0.74889548  1
  In  In86  1  -0.00282512  0.33165504  0.75202697  1
  In  In87  1  0.50170319  0.49766394  0.24775995  1
  In  In88  1  0.33252309  0.00348419  0.75131838  1
  In  In89  1  0.49935440  0.83428428  0.74966495  1
  In  In90  1  0.16543872  0.49553061  0.00052187  1
  In  In91  1  0.83283842  0.16578575  0.74988589  1
  In  In92  1  0.67178371  0.00229962  0.74783314  1
  In  In93  1  0.16136299  0.16620676  0.75130960  1
  In  In94  1  0.33333682  0.00095564  0.49607965  1
  In  In95  1  0.50088663  0.83040170  0.25127587  1
  In  In96  1  0.16487270  0.82994416  0.00269397  1
  In  In97  1  0.50082472  0.49918651  0.75184187  1
  In  In98  1  0.50243120  0.49588061  0.49547076  1
  In  In99  1  0.50214598  0.50082210  0.00186778  1
  In  In100  1  -0.00090292  0.66834650  0.75328719  1
  In  In101  1  0.16789712  0.83431220  0.50097032  1
  In  In102  1  0.16992551  0.49779037  0.49944694  1
  In  In103  1  0.66940785  0.66686826  0.75109190  1
  In  In104  1  0.66853528  0.66351950  0.49807280  1
  In  In105  1  0.66824239  0.33326012  0.75269865  1
  In  In106  1  -0.00381367  0.00372995  0.74693281  1
  In  In107  1  0.50329811  0.16397087  0.24651750  1
  Ir  Ir108  1  0.33677974  0.33052011  0.00252239  1
  Ir  Ir109  1  0.50180049  0.17010938  0.75372696  1
  Ir  Ir110  1  0.16513091  0.16340091  0.25348038  1
  Ir  Ir111  1  0.33295606  0.33285844  0.74934534  1
  Ir  Ir112  1  -0.00631284  0.33525184  0.00715461  1
  Ir  Ir113  1  0.50508560  0.16705999  0.50076466  1
  Ir  Ir114  1  0.83408896  0.50028765  0.00808050  1
  Ir  Ir115  1  0.00074114  0.66389102  0.00113193  1
  Ir  Ir116  1  -0.00096451  0.33592982  0.25129576  1
  Ir  Ir117  1  0.83615300  0.83552291  0.74834819  1
  Ir  Ir118  1  0.16519681  0.49752476  0.75298098  1
  Ir  Ir119  1  0.82895688  0.16710403  0.49780603  1
  Ir  Ir120  1  0.33001600  0.66390610  0.00473012  1
  Ir  Ir121  1  0.50570771  0.16831959  -0.00151550  1
  Ir  Ir122  1  0.66403733  -0.00118502  0.25311474  1
  Ir  Ir123  1  0.66606479  0.33184201  0.25219748  1
  Ir  Ir124  1  0.16738626  0.16484245  0.49570423  1
  Ir  Ir125  1  0.33616208  0.32784165  0.24877224  1
  Ir  Ir126  1  0.33657433  0.32681853  0.49693507  1
  Ir  Ir127  1  0.83210272  0.50025618  0.24895870  1
  Ir  Ir128  1  0.33182066  0.66963425  0.24946706  1
  Ir  Ir129  1  0.83243751  0.83904065  0.25123106  1
  Ir  Ir130  1  0.33694211  0.66848906  0.49017473  1
  Ir  Ir131  1  -0.00358563  0.00407512  -0.00082564  1
  Ir  Ir132  1  0.00145337  -0.00092496  0.24810693  1
  Ir  Ir133  1  0.00166254  0.66878638  0.24863357  1
  Ir  Ir134  1  0.83257171  0.83519961  0.49931597  1
  Ir  Ir135  1  0.33509460  -0.00031464  0.25040288  1
  Ir  Ir136  1  0.82762093  0.16883389  0.00255953  1
  Ir  Ir137  1  0.67019250  0.33213201  0.00650612  1
  Ir  Ir138  1  0.16814369  0.83174023  0.25157008  1
  Ir  Ir139  1  0.66682242  0.32647960  0.49346030  1
  Ir  Ir140  1  0.67172721  0.66585486  0.00488562  1
  Ir  Ir141  1  0.66652912  -0.00199750  0.49481092  1
  Ir  Ir142  1  0.67049327  0.66553098  0.25123144  1
  Ir  Ir143  1  0.49750408  0.83307990  0.49137373  1
  O  O144  1  0.31200888  0.33058619  0.12508079  1
  O  O145  1  0.31508174  0.33366140  0.62407321  1
  O  O146  1  0.30939113  0.65880427  0.12831313  1
  O  O147  1  0.31788372  0.66532389  0.60953269  1
  O  O148  1  0.31214755  0.99499858  0.13319706  1
  O  O149  1  0.30322939  1.00337016  0.62115750  1
  O  O150  1  0.63312829  0.32064577  0.13010509  1
  O  O151  1  0.63276957  0.31890608  0.61127972  1
  O  O152  1  0.64843494  0.65803141  0.12964799  1
  O  O153  1  0.65073574  0.66780586  0.62237635  1
  O  O154  1  0.63347620  0.99836450  0.13426857  1
  O  O155  1  0.65005225  0.99554566  0.61357344  1
  O  O156  1  0.97479987  0.32902010  0.12898511  1
  O  O157  1  0.97730067  0.31736650  0.62228544  1
  O  O158  1  0.97745914  0.65299862  0.12459587  1
  O  O159  1  0.98133478  0.64431713  0.62612745  1
  O  O160  1  0.96703898  1.00080429  0.12261507  1
  O  O161  1  0.95906376  0.99513999  0.62098841  1
  O  O162  1  0.17844999  0.16540469  0.13216770  1
  O  O163  1  0.18698278  0.15469684  0.61404164  1
  O  O164  1  0.18028882  0.49636432  0.12598103  1
  O  O165  1  0.18592943  0.49837385  0.63223200  1
  O  O166  1  0.19792460  0.83036066  0.13214829  1
  O  O167  1  0.19509527  0.83161418  0.62404389  1
  O  O168  1  0.53788420  0.15473744  0.11843475  1
  O  O169  1  0.53234024  0.16790775  0.62897215  1
  O  O170  1  0.53316939  0.48602282  0.12651668  1
  O  O171  1  0.51398159  0.48358556  0.61964603  1
  O  O172  1  0.52108936  0.83165529  0.12867759  1
  O  O173  1  0.51526656  0.82854978  0.61002003  1
  O  O174  1  0.84667312  0.15141881  0.12277184  1
  O  O175  1  0.86697884  0.15858910  0.61756684  1
  O  O176  1  0.86606398  0.50072852  0.12870534  1
  O  O177  1  0.87713593  0.49186302  0.62366127  1
  O  O178  1  0.84882266  0.84329375  0.12984397  1
  O  O179  1  0.86463254  0.83034507  0.62363609  1
  O  O180  1  0.14738481  0.17701912  0.37500220  1
  O  O181  1  0.12532457  0.17329312  0.87615254  1
  O  O182  1  0.13896150  0.50668408  0.37256410  1
  O  O183  1  0.13432869  0.50038099  0.87390230  1
  O  O184  1  0.14663678  0.84132023  0.37013038  1
  O  O185  1  0.14415038  0.84970160  0.87781709  1
  O  O186  1  0.48740579  0.17520766  0.37886655  1
  O  O187  1  0.47758229  0.17848353  0.87632761  1
  O  O188  1  0.48278657  0.50787194  0.37053054  1
  O  O189  1  0.47074837  0.49605644  0.87995842  1
  O  O190  1  0.46719760  0.84500472  0.37318126  1
  O  O191  1  0.47973368  0.84743696  0.87963166  1
  O  O192  1  0.79533554  0.17658026  0.37843938  1
  O  O193  1  0.79780558  0.18109418  0.88383028  1
  O  O194  1  0.80030893  0.49764258  0.36538909  1
  O  O195  1  0.81728265  0.50623946  0.88988288  1
  O  O196  1  0.80357725  0.83859380  0.37621673  1
  O  O197  1  0.81389272  0.84876275  0.86898755  1
  O  O198  1  0.02915581  -0.00042060  0.36890402  1
  O  O199  1  0.02936365  0.01144556  0.87914293  1
  O  O200  1  0.03365674  0.34496042  0.36845227  1
  O  O201  1  0.01412335  0.34448355  0.88857487  1
  O  O202  1  0.03155366  0.67318434  0.36672598  1
  O  O203  1  0.03431343  0.66826987  0.88343556  1
  O  O204  1  0.36689282  0.00350526  0.36735384  1
  O  O205  1  0.37033765  0.00867233  0.87776236  1
  O  O206  1  0.36635804  0.32343218  0.37260485  1
  O  O207  1  0.35467843  0.34102694  0.87554173  1
  O  O208  1  0.36645021  0.67996050  0.36845072  1
  O  O209  1  0.34792498  0.66533734  0.88778090  1
  O  O210  1  0.68931252  0.00996255  0.37370196  1
  O  O211  1  0.70523085  0.02307700  0.87358325  1
  O  O212  1  0.70082659  0.33986936  0.37164985  1
  O  O213  1  0.70108509  0.33318510  0.88653423  1
  O  O214  1  0.68822942  0.67604644  0.36895098  1
  O  O215  1  0.70019109  0.66561506  0.88709507  1
  O  O216  1  0.06044851  0.09520416  0.01583494  1
  O  O217  1  0.07277620  0.10119654  0.51884447  1
  O  O218  1  0.05803861  0.43028959  0.02319915  1
  O  O219  1  0.06682581  0.43472333  0.52157667  1
  O  O220  1  0.06722421  0.75447021  0.02179667  1
  O  O221  1  0.06491660  0.77035053  0.52328351  1
  O  O222  1  0.42109654  0.09515501  0.02572940  1
  O  O223  1  0.41429429  0.09791205  0.51305341  1
  O  O224  1  0.41497470  0.41292874  0.02328719  1
  O  O225  1  0.40974082  0.41307944  0.51107201  1
  O  O226  1  0.39266147  0.76004292  0.02739348  1
  O  O227  1  0.39927485  0.76998065  0.50198841  1
  O  O228  1  0.73349475  0.10444827  0.02780658  1
  O  O229  1  0.73327703  0.09543952  0.52093176  1
  O  O230  1  0.73664125  0.43283930  0.03192251  1
  O  O231  1  0.73481313  0.41678997  0.51019606  1
  O  O232  1  0.74041038  0.75647343  0.01669841  1
  O  O233  1  0.73863877  0.77001171  0.50418310  1
  O  O234  1  0.08213717  0.26412988  0.01858378  1
  O  O235  1  0.09576164  0.25556435  0.51137978  1
  O  O236  1  0.08686773  0.59105689  0.01891800  1
  O  O237  1  0.10441697  0.60075073  0.50475766  1
  O  O238  1  0.08385578  0.93213912  0.01601707  1
  O  O239  1  0.09753453  0.93668154  0.52302428  1
  O  O240  1  0.43451513  0.25929762  0.02833742  1
  O  O241  1  0.44051854  0.26474783  0.51894555  1
  O  O242  1  0.42071524  0.59361635  0.02089902  1
  O  O243  1  0.43107475  0.60258741  0.50117904  1
  O  O244  1  0.42303700  0.92741539  0.03780682  1
  O  O245  1  0.43537972  0.92906497  0.50777721  1
  O  O246  1  0.76061594  0.26109785  0.03058517  1
  O  O247  1  0.75252868  0.25165963  0.52467890  1
  O  O248  1  0.76376261  0.59178013  0.02872921  1
  O  O249  1  0.76266181  0.58857857  0.51319956  1
  O  O250  1  0.76742061  0.93705889  0.01684947  1
  O  O251  1  0.76475187  0.93289532  0.51848138  1
  O  O252  1  0.23495832  0.06611858  0.27428567  1
  O  O253  1  0.23016369  0.07082248  0.77540788  1
  O  O254  1  0.24163208  0.39533685  0.27231107  1
  O  O255  1  0.24311599  0.40883480  0.77497855  1
  O  O256  1  0.23676254  0.73812216  0.27866883  1
  O  O257  1  0.22857467  0.72794314  0.77716478  1
  O  O258  1  0.56966046  0.06375321  0.27747272  1
  O  O259  1  0.57114568  0.08001023  0.77793249  1
  O  O260  1  0.57413846  0.39617476  0.27850883  1
  O  O261  1  0.56819684  0.39692633  0.75313966  1
  O  O262  1  0.57426177  0.73132757  0.27619915  1
  O  O263  1  0.57865912  0.74498871  0.76660513  1
  O  O264  1  0.90963106  0.07101283  0.26023276  1
  O  O265  1  0.90326339  0.07352857  0.78798507  1
  O  O266  1  0.90461855  0.40665507  0.27774236  1
  O  O267  1  0.90475947  0.40297660  0.78723303  1
  O  O268  1  0.90507037  0.74510093  0.26598821  1
  O  O269  1  0.89458606  0.73749648  0.77728860  1
  O  O270  1  0.25577633  0.24005570  0.27286540  1
  O  O271  1  0.25833567  0.24676293  0.76097812  1
  O  O272  1  0.25913262  0.58210224  0.27351593  1
  O  O273  1  0.25508617  0.56462461  0.78238195  1
  O  O274  1  0.26488875  0.90352496  0.27494843  1
  O  O275  1  0.25217458  0.91518028  0.77789069  1
  O  O276  1  0.60230279  0.23618538  0.27623118  1
  O  O277  1  0.59673764  0.23169031  0.77218944  1
  O  O278  1  0.60626372  0.56884807  0.26864683  1
  O  O279  1  0.59436387  0.57257066  0.76746347  1
  O  O280  1  0.59952696  0.90549084  0.28135960  1
  O  O281  1  0.59159810  0.91803811  0.76849658  1
  O  O282  1  0.92027502  0.25005334  0.27281067  1
  O  O283  1  0.92262714  0.23883219  0.78826309  1
  O  O284  1  0.93270668  0.56615326  0.26773272  1
  O  O285  1  0.93234890  0.57118435  0.78760059  1
  O  O286  1  0.92836606  0.90935007  0.26486084  1
  O  O287  1  0.92639788  0.90172459  0.76483812  1
  O  O288  1  0.25948985  0.23929975  0.47529945  1
  O  O289  1  0.25815616  0.24772488  0.98754684  1
  O  O290  1  0.26809447  0.57739956  0.47327389  1
  O  O291  1  0.26189435  0.57063883  0.97545493  1
  O  O292  1  0.26144007  0.90745521  0.46264029  1
  O  O293  1  0.25602852  0.91009877  0.99057811  1
  O  O294  1  0.60003159  0.23258941  0.47114742  1
  O  O295  1  0.60555714  0.23523848  0.98233596  1
  O  O296  1  0.59758115  0.56830139  0.46609306  1
  O  O297  1  0.60206395  0.57494462  0.99490750  1
  O  O298  1  0.59617425  0.90130171  0.46645123  1
  O  O299  1  0.58660707  0.92064729  0.97889873  1
  O  O300  1  0.91415971  0.24227038  0.47379241  1
  O  O301  1  0.92313255  0.23907271  0.97763149  1
  O  O302  1  0.93791720  0.56677810  0.46749423  1
  O  O303  1  0.93113516  0.56659155  0.98118185  1
  O  O304  1  0.92301269  0.90327529  0.48661523  1
  O  O305  1  0.92480485  0.91738923  0.97946384  1
  O  O306  1  0.22889455  0.06946521  0.47194353  1
  O  O307  1  0.23511179  0.07325115  0.97763241  1
  O  O308  1  0.24094961  0.39523954  0.47476210  1
  O  O309  1  0.25385507  0.40960644  0.97969384  1
  O  O310  1  0.24227105  0.73443335  0.46612191  1
  O  O311  1  0.23417255  0.72711849  0.98253419  1
  O  O312  1  0.57185472  0.06876100  0.47056595  1
  O  O313  1  0.57250981  0.08137503  0.96538843  1
  O  O314  1  0.57864095  0.39614791  0.46418009  1
  O  O315  1  0.58234787  0.40108912  0.99025104  1
  O  O316  1  0.56538661  0.74091625  0.46587309  1
  O  O317  1  0.58158544  0.73584432  0.98776886  1
  O  O318  1  0.90067857  0.08051013  0.47743604  1
  O  O319  1  0.89734725  0.07426128  0.97488277  1
  O  O320  1  0.90493000  0.40356142  0.46024487  1
  O  O321  1  0.89893175  0.40478877  0.98258227  1
  O  O322  1  0.89947327  0.74388760  0.48338426  1
  O  O323  1  0.90681216  0.73133693  0.97929566  1
  O  O324  1  0.09439691  0.26285717  0.24130990  1
  O  O325  1  0.08561624  0.25556338  0.72536368  1
  O  O326  1  0.08481992  0.59216136  0.23495232  1
  O  O327  1  0.09774675  0.58679372  0.73612531  1
  O  O328  1  0.09904868  0.92853755  0.23542869  1
  O  O329  1  0.09013629  0.93189346  0.71501995  1
  O  O330  1  0.43341087  0.26298276  0.22843300  1
  O  O331  1  0.43064222  0.26567210  0.72720455  1
  O  O332  1  0.42519250  0.59995215  0.23953742  1
  O  O333  1  0.41739961  0.58541798  0.73658449  1
  O  O334  1  0.42835156  0.93357960  0.22735800  1
  O  O335  1  0.42958433  0.93293900  0.73591285  1
  O  O336  1  0.75360224  0.26037398  0.23091282  1
  O  O337  1  0.75165054  0.25179317  0.72321941  1
  O  O338  1  0.76039282  0.59011408  0.22372004  1
  O  O339  1  0.77098020  0.59884134  0.74997830  1
  O  O340  1  0.76390915  0.93724092  0.22799640  1
  O  O341  1  0.77705404  0.93478793  0.72741783  1
  O  O342  1  0.07282833  0.09019784  0.23318615  1
  O  O343  1  0.06645998  0.09585825  0.71024882  1
  O  O344  1  0.06180448  0.43053795  0.22955206  1
  O  O345  1  0.06965652  0.43296532  0.73291466  1
  O  O346  1  0.07343603  0.76245519  0.22932572  1
  O  O347  1  0.06008023  0.76856494  0.72464903  1
  O  O348  1  0.40880689  0.08724103  0.22612065  1
  O  O349  1  0.41222899  0.10413982  0.73590890  1
  O  O350  1  0.41026395  0.41487399  0.22751792  1
  O  O351  1  0.40325485  0.41991979  0.73736308  1
  O  O352  1  0.39230708  0.76716637  0.23061922  1
  O  O353  1  0.40529919  0.75713579  0.73960365  1
  O  O354  1  0.72671910  0.09541369  0.23214268  1
  O  O355  1  0.74147938  0.09374910  0.71003752  1
  O  O356  1  0.72901651  0.43391063  0.23029983  1
  O  O357  1  0.74234052  0.42555056  0.73310656  1
  O  O358  1  0.73474197  0.76954693  0.24183401  1
  O  O359  1  0.74590892  0.77090086  0.73671003  1
