# generated using pymatgen
data_BaLaInIrO6
_symmetry_space_group_name_H-M   'P 1'
_cell_length_a   17.52454696
_cell_length_b   17.54998724
_cell_length_c   16.49620032
_cell_angle_alpha   90.00294761
_cell_angle_beta   89.99104659
_cell_angle_gamma   90.01553742
_symmetry_Int_Tables_number   1
_chemical_formula_structural   BaLaInIrO6
_chemical_formula_sum   'Ba36 La36 In36 Ir36 O216'
_cell_volume   5073.49812847
_cell_formula_units_Z   36
loop_
 _symmetry_equiv_pos_site_id
 _symmetry_equiv_pos_as_xyz
  1  'x, y, z'
loop_
 _atom_site_type_symbol
 _atom_site_label
 _atom_site_symmetry_multiplicity
 _atom_site_fract_x
 _atom_site_fract_y
 _atom_site_fract_z
 _atom_site_occupancy
  Ba  Ba0  1  0.83513003  0.32339461  0.87797115  1
  Ba  Ba1  1  0.50041245  0.66236121  0.37759418  1
  Ba  Ba2  1  0.66373635  0.18204799  0.62533407  1
  Ba  Ba3  1  0.33582118  0.84069136  0.12602717  1
  Ba  Ba4  1  1.00247423  0.50751972  0.12155949  1
  Ba  Ba5  1  0.33651864  0.50306844  0.62457734  1
  Ba  Ba6  1  0.16155810  0.67342596  0.12564227  1
  Ba  Ba7  1  0.49521599  0.33622597  0.62698461  1
  Ba  Ba8  1  0.33691931  0.17492912  0.62220691  1
  Ba  Ba9  1  0.66864571  0.50852059  0.12137515  1
  Ba  Ba10  1  0.83237413  0.67432298  0.12100403  1
  Ba  Ba11  1  0.83110977  0.01133613  0.62965807  1
  Ba  Ba12  1  -0.00144107  0.16097602  0.37709616  1
  Ba  Ba13  1  0.17158729  0.33935008  0.12395139  1
  Ba  Ba14  1  0.83062752  0.34426933  0.62382003  1
  Ba  Ba15  1  0.16668364  0.32363271  0.87482057  1
  Ba  Ba16  1  0.66813521  0.84213171  0.12707951  1
  Ba  Ba17  1  0.16426815  0.67971015  0.62487702  1
  Ba  Ba18  1  0.16730994  0.98843742  0.87433426  1
  Ba  Ba19  1  0.67032372  0.82643804  0.37830909  1
  Ba  Ba20  1  0.17133097  0.98885586  0.37975917  1
  Ba  Ba21  1  0.33019354  0.48781384  0.37572219  1
  Ba  Ba22  1  0.66209174  0.15797192  0.87411848  1
  Ba  Ba23  1  0.49782003  0.67550222  0.62228973  1
  Ba  Ba24  1  0.49883366  0.99554227  0.87398503  1
  Ba  Ba25  1  0.16758916  0.34045253  0.62167073  1
  Ba  Ba26  1  0.49769907  0.99690005  0.37705808  1
  Ba  Ba27  1  0.00337746  0.49323358  0.87794403  1
  Ba  Ba28  1  0.50352755  0.32088519  0.87299981  1
  Ba  Ba29  1  0.33097956  0.84317082  0.62361289  1
  Ba  Ba30  1  0.16442254  0.00832250  0.62934818  1
  Ba  Ba31  1  0.66581064  0.16151440  0.37746306  1
  Ba  Ba32  1  0.49893292  0.01227154  0.62193424  1
  Ba  Ba33  1  -0.00376978  0.82290483  0.86955883  1
  Ba  Ba34  1  0.16924547  0.32279874  0.37302626  1
  Ba  Ba35  1  0.32749595  0.15702300  0.37556094  1
  La  La36  1  0.49513352  0.34683070  0.12756504  1
  La  La37  1  0.33212015  0.15003012  0.86995817  1
  La  La38  1  0.83381363  0.64903285  0.37286005  1
  La  La39  1  0.34157582  0.51549528  0.12960073  1
  La  La40  1  0.82892164  0.34764896  0.12382146  1
  La  La41  1  0.50071489  0.31689481  0.37821864  1
  La  La42  1  0.32898177  0.81916218  0.38319767  1
  La  La43  1  -0.00632860  0.15435260  0.87562043  1
  La  La44  1  0.83364220  0.32259868  0.37937423  1
  La  La45  1  0.00148925  0.48367026  0.37312999  1
  La  La46  1  1.00391176  0.18144778  0.12321640  1
  La  La47  1  0.83237238  0.67758161  0.62618975  1
  La  La48  1  1.01081297  0.84642971  0.12583541  1
  La  La49  1  0.16891694  0.65184657  0.87620047  1
  La  La50  1  0.84233442  0.98592393  0.37294742  1
  La  La51  1  0.17183839  0.65268683  0.37541182  1
  La  La52  1  0.50007456  0.01822136  0.12494239  1
  La  La53  1  0.49521789  0.68351003  0.13397608  1
  La  La54  1  0.66847910  0.17940291  0.12135244  1
  La  La55  1  1.00610183  0.17931352  0.62814645  1
  La  La56  1  -0.00495498  0.81598042  0.38004464  1
  La  La57  1  0.66570829  0.48476504  0.87242758  1
  La  La58  1  0.32442996  0.48301970  0.87414821  1
  La  La59  1  0.66660866  0.85200500  0.62259027  1
  La  La60  1  1.01038451  0.85014440  0.62418689  1
  La  La61  1  0.83330978  0.98725777  0.87359406  1
  La  La62  1  0.83025440  0.01302362  0.12197348  1
  La  La63  1  0.66289418  0.49368956  0.37773693  1
  La  La64  1  0.83801063  0.64880748  0.87502276  1
  La  La65  1  0.65577302  0.49869979  0.63006306  1
  La  La66  1  0.66570202  0.82433954  0.87271316  1
  La  La67  1  0.16039708  0.01419981  0.12302692  1
  La  La68  1  0.33234688  0.17601336  0.12258487  1
  La  La69  1  1.00784058  0.51649312  0.62642193  1
  La  La70  1  0.49836389  0.66001889  0.87178423  1
  La  La71  1  0.32673068  0.82145704  0.86444446  1
  In  In72  1  0.66740562  0.66637950  0.24898376  1
  In  In73  1  0.83734659  0.83055739  0.50461230  1
  In  In74  1  0.33168982  0.32836652  0.75119150  1
  In  In75  1  -0.00125951  0.33517335  0.50133691  1
  In  In76  1  0.83205931  0.16688871  0.24603016  1
  In  In77  1  0.49976472  0.83682802  -0.00134235  1
  In  In78  1  0.66504261  0.33143515  -0.00111028  1
  In  In79  1  0.83291010  0.16646089  0.50189731  1
  In  In80  1  0.33159955  -0.00387139  0.00061660  1
  In  In81  1  0.33347292  0.66606587  0.74841049  1
  In  In82  1  0.66541021  0.66805615  -0.00625379  1
  In  In83  1  0.00175347  0.33371716  0.00104195  1
  In  In84  1  0.16642767  0.49979518  0.74784377  1
  In  In85  1  0.83955204  0.83259130  0.24555195  1
  In  In86  1  0.00046086  -0.00067008  0.24806968  1
  In  In87  1  0.66441862  0.33517914  0.24967829  1
  In  In88  1  0.66865097  0.66579779  0.75002243  1
  In  In89  1  0.83349740  0.83114851  0.74904344  1
  In  In90  1  0.67095936  0.00289731  0.24883501  1
  In  In91  1  0.83516664  0.49926440  0.25016801  1
  In  In92  1  0.16706262  0.83200462  0.25184840  1
  In  In93  1  0.49738221  0.49999383  0.75393683  1
  In  In94  1  0.49928547  0.50336247  -0.00015587  1
  In  In95  1  0.16607046  0.16575216  0.25044978  1
  In  In96  1  0.16783596  0.16560811  -0.00468718  1
  In  In97  1  0.16706135  0.49648161  0.24801679  1
  In  In98  1  0.33433582  0.66769099  0.00338385  1
  In  In99  1  0.50036601  0.83480981  0.49931031  1
  In  In100  1  0.66919204  0.66423208  0.50414619  1
  In  In101  1  -0.00017239  0.66951957  0.00000808  1
  In  In102  1  0.00182638  0.00138992  0.49967464  1
  In  In103  1  0.67121308  0.00413433  0.49874201  1
  In  In104  1  0.50158791  0.83927526  0.25238732  1
  In  In105  1  0.49755776  0.83540816  0.75178540  1
  In  In106  1  0.33056662  -0.00277171  0.24865988  1
  In  In107  1  -0.00266118  0.33517904  0.75057481  1
  Ir  Ir108  1  0.16781991  0.16788978  0.50561995  1
  Ir  Ir109  1  0.16489565  0.83180451  -0.00458734  1
  Ir  Ir110  1  0.49734533  0.17156856  0.49656463  1
  Ir  Ir111  1  0.17418626  0.49848146  0.00073030  1
  Ir  Ir112  1  0.83634597  0.50273069  0.74614639  1
  Ir  Ir113  1  0.33236396  0.33476318  0.49514769  1
  Ir  Ir114  1  0.66874151  0.00287434  0.75517064  1
  Ir  Ir115  1  0.49991235  0.17028683  0.24757408  1
  Ir  Ir116  1  0.16333659  0.16389894  0.74977145  1
  Ir  Ir117  1  0.83540292  0.16127862  -0.00066984  1
  Ir  Ir118  1  0.49850692  0.49667417  0.25542989  1
  Ir  Ir119  1  -0.00528144  -0.00255914  -0.00224551  1
  Ir  Ir120  1  0.33090872  0.66282920  0.25456341  1
  Ir  Ir121  1  0.33836180  0.33229484  0.00485602  1
  Ir  Ir122  1  -0.00275474  0.00256312  0.75446828  1
  Ir  Ir123  1  -0.00230878  0.66505917  0.74780048  1
  Ir  Ir124  1  -0.00293979  0.33255611  0.24935620  1
  Ir  Ir125  1  0.66959753  0.33424295  0.74707698  1
  Ir  Ir126  1  0.50045210  0.16658616  0.00378800  1
  Ir  Ir127  1  0.49947635  0.16490678  0.75164578  1
  Ir  Ir128  1  0.66613042  0.34373839  0.49974033  1
  Ir  Ir129  1  0.83505463  0.83739158  -0.00260455  1
  Ir  Ir130  1  0.33158887  0.00146726  0.50335966  1
  Ir  Ir131  1  0.16208300  0.82990559  0.50296511  1
  Ir  Ir132  1  0.33135203  0.00223136  0.74792175  1
  Ir  Ir133  1  0.83382532  0.16509141  0.75586649  1
  Ir  Ir134  1  0.49805754  0.49626199  0.49332739  1
  Ir  Ir135  1  0.66864601  0.00223469  -0.00113657  1
  Ir  Ir136  1  0.16022407  0.83252117  0.75241803  1
  Ir  Ir137  1  0.00258481  0.66504562  0.25612728  1
  Ir  Ir138  1  0.32964192  0.66252790  0.49712909  1
  Ir  Ir139  1  0.83352795  0.49913268  -0.00391880  1
  Ir  Ir140  1  0.33804651  0.33216494  0.24775134  1
  Ir  Ir141  1  -0.00063182  0.66176905  0.49766870  1
  Ir  Ir142  1  0.16357612  0.50256796  0.49930174  1
  Ir  Ir143  1  0.83618017  0.50263991  0.50181400  1
  O  O144  1  0.31932298  0.31584923  0.12554374  1
  O  O145  1  0.31869097  0.33283942  0.61712515  1
  O  O146  1  0.30914573  0.65481285  0.13469863  1
  O  O147  1  0.31193497  0.65847625  0.61667938  1
  O  O148  1  0.29312729  0.99666181  0.12260911  1
  O  O149  1  0.31266889  1.00449538  0.62615829  1
  O  O150  1  0.63169977  0.32658101  0.12420699  1
  O  O151  1  0.64471975  0.34467339  0.62238969  1
  O  O152  1  0.63385356  0.66117256  0.11902845  1
  O  O153  1  0.64852705  0.63496173  0.62693425  1
  O  O154  1  0.63760614  0.99832023  0.11588832  1
  O  O155  1  0.64947719  0.99238889  0.63685076  1
  O  O156  1  0.96709912  0.32772840  0.12804756  1
  O  O157  1  0.98105292  0.31685353  0.62633292  1
  O  O158  1  0.98352829  0.66129092  0.13366016  1
  O  O159  1  0.96811671  0.65255385  0.62185246  1
  O  O160  1  0.96633551  0.98288985  0.11569170  1
  O  O161  1  0.98213935  0.99374893  0.63326441  1
  O  O162  1  0.19666273  0.15676039  0.12159292  1
  O  O163  1  0.18796644  0.16955336  0.62895852  1
  O  O164  1  0.19960164  0.50024082  0.12112192  1
  O  O165  1  0.18373715  0.50310750  0.61764172  1
  O  O166  1  0.18291539  0.82820755  0.11429194  1
  O  O167  1  0.18066807  0.83385608  0.62965065  1
  O  O168  1  0.53174835  0.16315789  0.12582255  1
  O  O169  1  0.51635160  0.17223950  0.62312732  1
  O  O170  1  0.51951421  0.48583504  0.13672680  1
  O  O171  1  0.51994881  0.49280971  0.61513668  1
  O  O172  1  0.52022784  0.81960555  0.12521609  1
  O  O173  1  0.52935634  0.83526550  0.62746680  1
  O  O174  1  0.86892616  0.15164795  0.11605799  1
  O  O175  1  0.86647956  0.16582288  0.63740062  1
  O  O176  1  0.85344069  0.49064813  0.11805236  1
  O  O177  1  0.87076622  0.49921620  0.62414248  1
  O  O178  1  0.87298109  0.83011165  0.11356308  1
  O  O179  1  0.87755080  0.81605615  0.62926990  1
  O  O180  1  0.15059220  0.16656501  0.38363013  1
  O  O181  1  0.13276050  0.16503000  0.86836505  1
  O  O182  1  0.13794897  0.50527013  0.37841850  1
  O  O183  1  0.15456587  0.50314689  0.88099712  1
  O  O184  1  0.13367603  0.82924861  0.38327608  1
  O  O185  1  0.14214211  0.83386756  0.87495089  1
  O  O186  1  0.47456872  0.17816911  0.37038227  1
  O  O187  1  0.46978435  0.16391381  0.87963600  1
  O  O188  1  0.47649702  0.50468666  0.37346866  1
  O  O189  1  0.45641128  0.51467306  0.87970443  1
  O  O190  1  0.46278652  0.83872125  0.37552661  1
  O  O191  1  0.46043960  0.84345862  0.87584455  1
  O  O192  1  0.81459635  0.18738190  0.37125066  1
  O  O193  1  0.80973217  0.16566440  0.87871846  1
  O  O194  1  0.80335098  0.50796706  0.38319209  1
  O  O195  1  0.80427847  0.50909205  0.86957900  1
  O  O196  1  0.82325710  0.84854549  0.37621747  1
  O  O197  1  0.80382598  0.84563350  0.87756543  1
  O  O198  1  0.02144319  0.00483530  0.37365087  1
  O  O199  1  0.01985481  0.01514015  0.87643919  1
  O  O200  1  0.01821404  0.34103859  0.37090342  1
  O  O201  1  0.01582208  0.33332072  0.87552618  1
  O  O202  1  0.03500268  0.67424783  0.37808013  1
  O  O203  1  0.02995877  0.66630979  0.86825132  1
  O  O204  1  0.34505495  0.00081894  0.38399182  1
  O  O205  1  0.34776711  0.00693636  0.86805736  1
  O  O206  1  0.36298118  0.33489368  0.36914396  1
  O  O207  1  0.35419994  0.34380489  0.88574139  1
  O  O208  1  0.35010968  0.67430529  0.37588849  1
  O  O209  1  0.36167312  0.68247141  0.87853137  1
  O  O210  1  0.71038494  0.00959219  0.37315885  1
  O  O211  1  0.69843354  0.00667070  0.87771374  1
  O  O212  1  0.69644686  0.35123124  0.37877925  1
  O  O213  1  0.68612200  0.33888983  0.86909029  1
  O  O214  1  0.69777343  0.65711787  0.37906568  1
  O  O215  1  0.70939489  0.68543228  0.87158869  1
  O  O216  1  0.06433961  0.08720219  0.02479911  1
  O  O217  1  0.07378518  0.10174519  0.52713294  1
  O  O218  1  0.08502139  0.42636193  0.01772230  1
  O  O219  1  0.06670280  0.43762676  0.51698641  1
  O  O220  1  0.06737589  0.76922332  0.01801962  1
  O  O221  1  0.06216076  0.76241946  0.52278639  1
  O  O222  1  0.40641745  0.10205561  0.02454746  1
  O  O223  1  0.40463451  0.09436535  0.51472745  1
  O  O224  1  0.40297742  0.42473401  0.03298611  1
  O  O225  1  0.40454555  0.42524599  0.51120271  1
  O  O226  1  0.41406975  0.75232577  0.02860621  1
  O  O227  1  0.40005566  0.75266951  0.51164900  1
  O  O228  1  0.73729455  0.09724793  0.02615373  1
  O  O229  1  0.73848714  0.09931306  0.52415376  1
  O  O230  1  0.74936944  0.42083376  0.01466415  1
  O  O231  1  0.73364011  0.44231101  0.52334393  1
  O  O232  1  0.74661735  0.76934156  0.01610170  1
  O  O233  1  0.74423144  0.75719591  0.53784256  1
  O  O234  1  0.08793994  0.25102753  0.02553466  1
  O  O235  1  0.09375910  0.25399938  0.51672713  1
  O  O236  1  0.10110987  0.59031800  0.00733277  1
  O  O237  1  0.09249447  0.59312970  0.52100191  1
  O  O238  1  0.09257497  0.92930711  0.02362901  1
  O  O239  1  0.09533850  0.92033797  0.52326721  1
  O  O240  1  0.43425107  0.26434120  0.02937535  1
  O  O241  1  0.42824331  0.26768086  0.50488392  1
  O  O242  1  0.42789233  0.59215135  0.04163427  1
  O  O243  1  0.42302942  0.58936879  0.51644893  1
  O  O244  1  0.43492469  0.93906900  0.02661336  1
  O  O245  1  0.41680266  0.92918749  0.51718867  1
  O  O246  1  0.76706628  0.25521787  0.02840430  1
  O  O247  1  0.75593001  0.27370557  0.50929451  1
  O  O248  1  0.76138565  0.58656695  0.00697210  1
  O  O249  1  0.78127979  0.59966695  0.51997751  1
  O  O250  1  0.76957231  0.93907675  0.01652517  1
  O  O251  1  0.75677415  0.91900391  0.52905471  1
  O  O252  1  0.23571926  0.06912566  0.26318296  1
  O  O253  1  0.23863290  0.07590433  0.77102736  1
  O  O254  1  0.24595834  0.40160688  0.26150902  1
  O  O255  1  0.24261610  0.40799296  0.76685948  1
  O  O256  1  0.23762201  0.73036402  0.27673040  1
  O  O257  1  0.22906053  0.74052125  0.77626874  1
  O  O258  1  0.56667373  0.07968490  0.26068243  1
  O  O259  1  0.57431013  0.07535307  0.76443093  1
  O  O260  1  0.56343698  0.40354973  0.27921648  1
  O  O261  1  0.58346780  0.40812978  0.76539930  1
  O  O262  1  0.56971326  0.73584097  0.26270100  1
  O  O263  1  0.57002986  0.73608970  0.77840941  1
  O  O264  1  0.89466376  0.06178222  0.26422985  1
  O  O265  1  0.90449955  0.07379909  0.78307643  1
  O  O266  1  0.90487824  0.40023749  0.27463642  1
  O  O267  1  0.89781808  0.40987753  0.76446115  1
  O  O268  1  0.91132526  0.72845336  0.28129549  1
  O  O269  1  0.90152352  0.72644476  0.77278742  1
  O  O270  1  0.26838146  0.24104746  0.25688728  1
  O  O271  1  0.25776775  0.23005588  0.77595607  1
  O  O272  1  0.25831778  0.57567150  0.27096311  1
  O  O273  1  0.25784531  0.57603754  0.78127921  1
  O  O274  1  0.26816432  0.89253298  0.27691145  1
  O  O275  1  0.26116133  0.90232152  0.76868690  1
  O  O276  1  0.58847367  0.24070360  0.27016437  1
  O  O277  1  0.59479529  0.24043123  0.76449265  1
  O  O278  1  0.59422339  0.55964800  0.27339397  1
  O  O279  1  0.60259216  0.56328460  0.77619216  1
  O  O280  1  0.59796539  0.91135690  0.27114296  1
  O  O281  1  0.60381423  0.90787122  0.77462611  1
  O  O282  1  0.93126376  0.24106447  0.25908837  1
  O  O283  1  0.92751410  0.22894921  0.77568653  1
  O  O284  1  0.93530211  0.57075402  0.28322768  1
  O  O285  1  0.93317072  0.56732449  0.76560796  1
  O  O286  1  0.94595317  0.88990421  0.26611846  1
  O  O287  1  0.92137560  0.91668451  0.77208030  1
  O  O288  1  0.26002071  0.24354235  0.48250628  1
  O  O289  1  0.27422678  0.23730203  0.98134285  1
  O  O290  1  0.25075434  0.57701248  0.47143098  1
  O  O291  1  0.26569176  0.56732436  0.97816087  1
  O  O292  1  0.26088626  0.89896943  0.48187760  1
  O  O293  1  0.26246847  0.89292836  0.97415342  1
  O  O294  1  0.58843711  0.25190087  0.47393146  1
  O  O295  1  0.59291752  0.23290244  0.98828302  1
  O  O296  1  0.59450074  0.55954907  0.48023341  1
  O  O297  1  0.59233386  0.57570003  0.95766839  1
  O  O298  1  0.59192113  0.91497877  0.48702637  1
  O  O299  1  0.60796041  0.90751325  0.97356143  1
  O  O300  1  0.92021754  0.24670216  0.48258088  1
  O  O301  1  0.93099733  0.22538459  0.98278098  1
  O  O302  1  0.93538780  0.56285736  0.47305473  1
  O  O303  1  0.91925018  0.57799774  0.97936290  1
  O  O304  1  0.93991748  0.89524137  0.48635795  1
  O  O305  1  0.92145000  0.91090114  0.96925934  1
  O  O306  1  0.23828809  0.07600039  0.49163298  1
  O  O307  1  0.24531686  0.07739219  0.97347698  1
  O  O308  1  0.23498323  0.40746382  0.48134491  1
  O  O309  1  0.24641360  0.40525517  0.98016885  1
  O  O310  1  0.23634858  0.73580936  0.47354348  1
  O  O311  1  0.22887052  0.73645300  0.97282403  1
  O  O312  1  0.57063997  0.08572200  0.48488473  1
  O  O313  1  0.56933346  0.06932918  0.98686734  1
  O  O314  1  0.56989507  0.40811854  0.46791263  1
  O  O315  1  0.57862157  0.41406944  0.97845567  1
  O  O316  1  0.57869157  0.74212595  0.48584346  1
  O  O317  1  0.57692477  0.74643382  0.95819072  1
  O  O318  1  0.89984145  0.06549261  0.47751937  1
  O  O319  1  0.90099551  0.06642683  0.97128477  1
  O  O320  1  0.89820713  0.40906252  0.47314110  1
  O  O321  1  0.90615181  0.41148800  0.98829902  1
  O  O322  1  0.90659912  0.72535875  0.47158668  1
  O  O323  1  0.89835627  0.74166576  0.97211542  1
  O  O324  1  0.08649737  0.26030824  0.22782989  1
  O  O325  1  0.09157274  0.25040107  0.73012300  1
  O  O326  1  0.09311960  0.59643164  0.24292097  1
  O  O327  1  0.08895206  0.59680337  0.73164689  1
  O  O328  1  0.10007294  0.92913188  0.21620182  1
  O  O329  1  0.08486418  0.92473205  0.73204159  1
  O  O330  1  0.43653980  0.26899301  0.22932510  1
  O  O331  1  0.42616971  0.25096477  0.74341176  1
  O  O332  1  0.42660443  0.59133213  0.22806329  1
  O  O333  1  0.43510324  0.60133609  0.73935987  1
  O  O334  1  0.43321651  0.93942896  0.22213539  1
  O  O335  1  0.42019749  0.93443456  0.73159087  1
  O  O336  1  0.75992688  0.26250892  0.21475283  1
  O  O337  1  0.76355235  0.25898141  0.73328669  1
  O  O338  1  0.76607234  0.59449739  0.23796973  1
  O  O339  1  0.77866962  0.60052810  0.73277808  1
  O  O340  1  0.77555138  0.93669692  0.22371770  1
  O  O341  1  0.75668423  0.93147963  0.74067691  1
  O  O342  1  0.06888111  0.09570850  0.21345901  1
  O  O343  1  0.06496626  0.09824817  0.72992863  1
  O  O344  1  0.06564790  0.42540891  0.23878873  1
  O  O345  1  0.06768065  0.43276469  0.72532575  1
  O  O346  1  0.06563070  0.76094689  0.23284384  1
  O  O347  1  0.06194090  0.76433852  0.72709735  1
  O  O348  1  0.40778560  0.10372067  0.21992921  1
  O  O349  1  0.39828285  0.09909672  0.74190982  1
  O  O350  1  0.40317580  0.42848312  0.22585850  1
  O  O351  1  0.40785000  0.42167802  0.74289906  1
  O  O352  1  0.40204178  0.74992979  0.23722833  1
  O  O353  1  0.39726792  0.76712649  0.73790742  1
  O  O354  1  0.73486995  0.10019342  0.21134387  1
  O  O355  1  0.74012760  0.09598177  0.73547634  1
  O  O356  1  0.74412129  0.42265337  0.22783730  1
  O  O357  1  0.73514798  0.43880633  0.73184175  1
  O  O358  1  0.74646707  0.75900572  0.23431319  1
  O  O359  1  0.73305316  0.76873470  0.71903662  1
