# generated using pymatgen
data_BaLaInIrO6
_symmetry_space_group_name_H-M   'P 1'
_cell_length_a   17.55104217
_cell_length_b   17.57497026
_cell_length_c   16.50708958
_cell_angle_alpha   90.02453083
_cell_angle_beta   90.01024165
_cell_angle_gamma   90.02074771
_symmetry_Int_Tables_number   1
_chemical_formula_structural   BaLaInIrO6
_chemical_formula_sum   'Ba36 La36 In36 Ir36 O216'
_cell_volume   5091.76019226
_cell_formula_units_Z   36
loop_
 _symmetry_equiv_pos_site_id
 _symmetry_equiv_pos_as_xyz
  1  'x, y, z'
loop_
 _atom_site_type_symbol
 _atom_site_label
 _atom_site_symmetry_multiplicity
 _atom_site_fract_x
 _atom_site_fract_y
 _atom_site_fract_z
 _atom_site_occupancy
  Ba  Ba0  1  0.16659137  0.00586447  0.12334888  1
  Ba  Ba1  1  0.16807802  0.32912225  0.87191330  1
  Ba  Ba2  1  0.33270722  0.82590301  0.37050296  1
  Ba  Ba3  1  0.83234342  0.32601829  0.87795605  1
  Ba  Ba4  1  0.00389097  0.82847947  0.87564016  1
  Ba  Ba5  1  0.99785518  0.84050383  0.62633098  1
  Ba  Ba6  1  0.33455563  0.16366844  0.87040857  1
  Ba  Ba7  1  0.33558452  0.84066106  0.62384773  1
  Ba  Ba8  1  0.33740483  0.17556981  0.62089359  1
  Ba  Ba9  1  1.00038523  0.50647225  0.62525261  1
  Ba  Ba10  1  0.00499858  0.49406208  0.37638471  1
  Ba  Ba11  1  0.16980484  0.00377569  0.62324490  1
  Ba  Ba12  1  0.17304979  0.66193164  0.37505059  1
  Ba  Ba13  1  0.33395396  0.84170423  0.12338453  1
  Ba  Ba14  1  0.99939307  0.84199643  0.12681785  1
  Ba  Ba15  1  0.33464831  0.17411838  0.12326806  1
  Ba  Ba16  1  0.49419007  0.34795073  0.62034383  1
  Ba  Ba17  1  0.83607185  0.34164570  0.12721019  1
  Ba  Ba18  1  0.66359083  0.48828653  0.87833016  1
  Ba  Ba19  1  0.00280519  0.16290446  0.87310617  1
  Ba  Ba20  1  0.17254691  0.66361724  0.87742251  1
  Ba  Ba21  1  0.50275019  0.65094461  0.87491624  1
  Ba  Ba22  1  0.33235719  0.82357389  0.87451036  1
  Ba  Ba23  1  0.50243561  0.98323065  0.37436219  1
  Ba  Ba24  1  1.00170219  0.50695254  0.12450325  1
  Ba  Ba25  1  0.33522504  0.15734402  0.37516731  1
  Ba  Ba26  1  0.49658125  0.00725234  0.12691946  1
  Ba  Ba27  1  0.66991342  0.50899275  0.12673764  1
  Ba  Ba28  1  0.49811477  0.65999948  0.37876296  1
  Ba  Ba29  1  0.83336264  0.67581415  0.12802958  1
  Ba  Ba30  1  0.33924629  0.51339935  0.12867262  1
  Ba  Ba31  1  -0.00099568  0.82576723  0.37791854  1
  Ba  Ba32  1  0.99968933  0.17033557  0.62205953  1
  Ba  Ba33  1  0.16281141  1.00000306  0.87255549  1
  Ba  Ba34  1  0.82952932  0.98562356  0.37703520  1
  Ba  Ba35  1  1.00058486  0.17260777  0.12631728  1
  La  La36  1  0.83955376  0.64868730  0.87888576  1
  La  La37  1  0.65939729  0.81897861  0.37354800  1
  La  La38  1  0.67221187  0.85250472  0.62063826  1
  La  La39  1  0.16473226  0.68497696  0.12716505  1
  La  La40  1  0.17083529  0.31978104  0.37475420  1
  La  La41  1  0.83925702  0.98637652  0.87795229  1
  La  La42  1  0.83697574  0.65828081  0.37292615  1
  La  La43  1  0.16321664  0.68261778  0.62717933  1
  La  La44  1  0.65707052  0.15413625  0.87624406  1
  La  La45  1  0.50438512  0.97964759  0.87362287  1
  La  La46  1  0.15993528  0.34603480  0.12658315  1
  La  La47  1  -0.00394761  0.14832991  0.37294524  1
  La  La48  1  0.33877990  0.51744106  0.62578752  1
  La  La49  1  0.49271005  0.68487573  0.12452271  1
  La  La50  1  0.67139830  0.51587173  0.62786541  1
  La  La51  1  0.83309950  0.34587653  0.62851941  1
  La  La52  1  0.49705588  0.68434615  0.62503811  1
  La  La53  1  0.49196582  0.01337809  0.62168190  1
  La  La54  1  0.82630013  0.01417132  0.62634640  1
  La  La55  1  0.49815476  0.33261118  0.87542926  1
  La  La56  1  0.66016165  0.48329789  0.37586992  1
  La  La57  1  0.65648518  0.81439472  0.87589306  1
  La  La58  1  0.83659598  0.31226491  0.37532646  1
  La  La59  1  0.49869156  0.31746426  0.37344455  1
  La  La60  1  0.66988407  0.85028962  0.12680903  1
  La  La61  1  -0.00066234  0.48991871  0.88298118  1
  La  La62  1  0.67355936  0.18053216  0.12804128  1
  La  La63  1  0.16643984  0.98464631  0.37331137  1
  La  La64  1  0.65972259  0.14559563  0.37629736  1
  La  La65  1  0.32651871  0.48589952  0.37789154  1
  La  La66  1  0.33186862  0.49269307  0.87513190  1
  La  La67  1  0.49661644  0.34965001  0.12701060  1
  La  La68  1  0.16567672  0.34274121  0.62225174  1
  La  La69  1  0.82998242  0.00967966  0.12591074  1
  La  La70  1  0.82998560  0.68416018  0.62190024  1
  La  La71  1  0.66920272  0.18085901  0.62274426  1
  In  In72  1  0.17042045  0.50152077  0.74923317  1
  In  In73  1  0.00205227  0.33070039  0.00012783  1
  In  In74  1  0.82459239  0.83062612  0.75391194  1
  In  In75  1  0.82855584  0.49983270  0.49742742  1
  In  In76  1  0.83225187  0.49986219  0.00285203  1
  In  In77  1  0.33345418  0.33161574  0.24731482  1
  In  In78  1  0.00181744  0.66796382  0.00117638  1
  In  In79  1  -0.00140402  0.33090342  0.74594761  1
  In  In80  1  -0.00459121  -0.00122067  0.50093893  1
  In  In81  1  0.00064542  0.33151172  0.25510190  1
  In  In82  1  0.50196708  0.16770545  0.00288995  1
  In  In83  1  0.16863790  0.83732866  -0.00024721  1
  In  In84  1  0.16691214  0.83162403  0.49883953  1
  In  In85  1  -0.00561673  0.00037062  0.74836358  1
  In  In86  1  0.83043294  0.49776230  0.25690259  1
  In  In87  1  0.33692856  0.00146154  0.74970044  1
  In  In88  1  0.00175717  0.66517297  0.25348481  1
  In  In89  1  0.82623067  0.83240127  -0.00166350  1
  In  In90  1  0.00028106  0.66354863  0.75017921  1
  In  In91  1  0.82861901  0.16507448  -0.00307576  1
  In  In92  1  0.83260163  0.49982508  0.74867123  1
  In  In93  1  0.66384626  0.33360170  0.49888045  1
  In  In94  1  -0.00352894  0.00204711  0.00181793  1
  In  In95  1  -0.00140067  0.33124560  0.49773038  1
  In  In96  1  0.66558511  0.66422287  0.49935784  1
  In  In97  1  0.33499559  0.33817111  0.74560989  1
  In  In98  1  0.66324843  0.33205549  0.74775402  1
  In  In99  1  0.16771115  0.83585831  0.74912240  1
  In  In100  1  0.50054608  0.50430262  0.25401444  1
  In  In101  1  0.33465841  0.00250780  0.24811319  1
  In  In102  1  0.33355645  0.00045899  0.49566798  1
  In  In103  1  0.66469491  0.32956235  0.00373181  1
  In  In104  1  0.66363278  0.66750994  0.00572370  1
  In  In105  1  0.17107994  0.16934789  0.00176791  1
  In  In106  1  0.50332940  0.16913583  0.74941555  1
  In  In107  1  0.16945332  0.50262559  0.50208176  1
  Ir  Ir108  1  0.33361429  0.33415539  0.49615312  1
  Ir  Ir109  1  0.33968912  0.66402261  0.50052340  1
  Ir  Ir110  1  -0.00351378  0.66651269  0.50109286  1
  Ir  Ir111  1  0.66480142  -0.00029591  -0.00161761  1
  Ir  Ir112  1  -0.00420340  0.00035098  0.25404143  1
  Ir  Ir113  1  0.16868653  0.16852511  0.74217910  1
  Ir  Ir114  1  0.17407052  0.50149223  0.24938621  1
  Ir  Ir115  1  0.66457870  -0.00108437  0.24939886  1
  Ir  Ir116  1  0.16371425  0.16640387  0.25566886  1
  Ir  Ir117  1  0.66584631  0.32868902  0.25644960  1
  Ir  Ir118  1  0.50926802  0.83173657  0.74788586  1
  Ir  Ir119  1  0.82646119  0.83258936  0.49962674  1
  Ir  Ir120  1  0.50456277  0.82957250  0.24982153  1
  Ir  Ir121  1  0.50631614  0.83135194  0.50080175  1
  Ir  Ir122  1  0.82756515  0.16111349  0.25580152  1
  Ir  Ir123  1  0.50214471  0.83321247  -0.00244180  1
  Ir  Ir124  1  0.66524314  0.00027301  0.75114385  1
  Ir  Ir125  1  0.16605842  0.83498326  0.24966520  1
  Ir  Ir126  1  0.49639527  0.49802176  0.00013181  1
  Ir  Ir127  1  0.34212801  0.66513542  0.74873395  1
  Ir  Ir128  1  0.34016337  0.00238074  -0.00248463  1
  Ir  Ir129  1  0.82353194  0.16368905  0.74540066  1
  Ir  Ir130  1  0.50237119  0.50311102  0.74575127  1
  Ir  Ir131  1  0.82649822  0.83676758  0.25363912  1
  Ir  Ir132  1  0.82888541  0.16470182  0.49899290  1
  Ir  Ir133  1  0.33575665  0.34024146  0.00208256  1
  Ir  Ir134  1  0.17478758  0.50215730  0.00427483  1
  Ir  Ir135  1  0.66476156  0.67131416  0.25251543  1
  Ir  Ir136  1  0.49647389  0.49941237  0.49945576  1
  Ir  Ir137  1  0.16541485  0.16956317  0.49720241  1
  Ir  Ir138  1  0.33493809  0.66804497  0.24874607  1
  Ir  Ir139  1  0.66357246  -0.00051851  0.50343682  1
  Ir  Ir140  1  0.50789218  0.16708690  0.25131952  1
  Ir  Ir141  1  0.50544140  0.16564975  0.49521752  1
  Ir  Ir142  1  0.33772708  0.66475776  0.00183880  1
  Ir  Ir143  1  0.66364394  0.66751565  0.74526506  1
  O  O144  1  0.30178939  0.33419737  0.12115967  1
  O  O145  1  0.30524742  0.33445233  0.61553197  1
  O  O146  1  0.30699929  0.66506489  0.12559069  1
  O  O147  1  0.31202299  0.65560436  0.62451975  1
  O  O148  1  0.32155224  1.00213556  0.12004354  1
  O  O149  1  0.32683297  1.00054796  0.62074543  1
  O  O150  1  0.63033142  0.32232948  0.13817824  1
  O  O151  1  0.64018332  0.31655084  0.62125675  1
  O  O152  1  0.63022007  0.66521443  0.13448131  1
  O  O153  1  0.63108141  0.65637674  0.62746976  1
  O  O154  1  0.64085802  0.98558064  0.12359986  1
  O  O155  1  0.63018067  0.99065329  0.62772073  1
  O  O156  1  0.99001298  0.33527353  0.13012567  1
  O  O157  1  0.96515042  0.32256783  0.61985424  1
  O  O158  1  0.98257781  0.66521900  0.12915244  1
  O  O159  1  0.96411696  0.66385024  0.61877448  1
  O  O160  1  0.96712923  1.00077796  0.13466487  1
  O  O161  1  0.96303825  1.00482999  0.62376696  1
  O  O162  1  0.18578606  0.16045682  0.13710048  1
  O  O163  1  0.19066463  0.15988261  0.61751236  1
  O  O164  1  0.19604784  0.48272904  0.12764164  1
  O  O165  1  0.20805791  0.48368112  0.62274947  1
  O  O166  1  0.18364478  0.83414783  0.13103237  1
  O  O167  1  0.18737448  0.82089870  0.62261399  1
  O  O168  1  0.53475181  0.16170175  0.13308595  1
  O  O169  1  0.53243702  0.15389507  0.61534255  1
  O  O170  1  0.51841894  0.48927367  0.12227094  1
  O  O171  1  0.53308033  0.50055162  0.62292795  1
  O  O172  1  0.53288281  0.82412628  0.12404180  1
  O  O173  1  0.53845600  0.82282271  0.62426016  1
  O  O174  1  0.84654176  0.14849449  0.13686272  1
  O  O175  1  0.85035720  0.15074603  0.62223886  1
  O  O176  1  0.84767576  0.50117244  0.13188282  1
  O  O177  1  0.84964716  0.48486784  0.62153195  1
  O  O178  1  0.84450297  0.83776566  0.13450502  1
  O  O179  1  0.84509564  0.82486571  0.62016890  1
  O  O180  1  0.13410412  0.18236052  0.37673096  1
  O  O181  1  0.15514421  0.17275078  0.86314397  1
  O  O182  1  0.15734912  0.50765796  0.36992760  1
  O  O183  1  0.14202759  0.50766590  0.88492545  1
  O  O184  1  0.15152946  0.83335450  0.36922356  1
  O  O185  1  0.15865752  0.82529299  0.87492437  1
  O  O186  1  0.48278495  0.17917866  0.37247630  1
  O  O187  1  0.49066809  0.19420445  0.87715802  1
  O  O188  1  0.46283013  0.50438416  0.38168669  1
  O  O189  1  0.47034939  0.49654514  0.87260457  1
  O  O190  1  0.48121082  0.83031923  0.37616175  1
  O  O191  1  0.48172414  0.84178384  0.87175015  1
  O  O192  1  0.79529475  0.17265764  0.37890133  1
  O  O193  1  0.79251921  0.16904241  0.86451954  1
  O  O194  1  0.79063384  0.52072319  0.37707699  1
  O  O195  1  0.81006192  0.51296801  0.87285437  1
  O  O196  1  0.79537196  0.83309012  0.37634469  1
  O  O197  1  0.78540232  0.85275216  0.87416149  1
  O  O198  1  0.02427319  0.00710362  0.37301313  1
  O  O199  1  0.00434507  0.01157225  0.87337775  1
  O  O200  1  0.03584282  0.33176344  0.37613650  1
  O  O201  1  0.01846519  0.34571044  0.87162732  1
  O  O202  1  0.02081912  0.66972828  0.38222188  1
  O  O203  1  0.02314800  0.67004183  0.87542692  1
  O  O204  1  0.35485209  0.00099335  0.37164821  1
  O  O205  1  0.36876754  0.00482145  0.87794471  1
  O  O206  1  0.36383612  0.34170807  0.37641752  1
  O  O207  1  0.36564121  0.34648696  0.88153650  1
  O  O208  1  0.35441475  0.67159066  0.37399085  1
  O  O209  1  0.35942616  0.66607118  0.87471042  1
  O  O210  1  0.68518065  0.01024029  0.37643626  1
  O  O211  1  0.69894262  0.01303145  0.87586007  1
  O  O212  1  0.69990714  0.33937024  0.37400777  1
  O  O213  1  0.67227079  0.32622858  0.87456731  1
  O  O214  1  0.69706254  0.68208024  0.37241605  1
  O  O215  1  0.69476819  0.67740929  0.86502134  1
  O  O216  1  0.07644804  0.09546455  0.01332821  1
  O  O217  1  0.07216318  0.10294092  0.50334183  1
  O  O218  1  0.08874532  0.42992200  0.01971981  1
  O  O219  1  0.08088926  0.42214844  0.52052211  1
  O  O220  1  0.08536818  0.75199381  0.02704438  1
  O  O221  1  0.07110121  0.75142603  0.52039257  1
  O  O222  1  0.40948323  0.09152395  0.01358266  1
  O  O223  1  0.41918886  0.09235566  0.51470659  1
  O  O224  1  0.40518702  0.43002523  0.01945333  1
  O  O225  1  0.39684743  0.43538881  0.51955744  1
  O  O226  1  0.41377472  0.75619796  0.02579371  1
  O  O227  1  0.41651023  0.75482755  0.52439269  1
  O  O228  1  0.72452945  0.09234769  0.02643440  1
  O  O229  1  0.73250062  0.09427348  0.52658714  1
  O  O230  1  0.73866805  0.42165878  0.01668948  1
  O  O231  1  0.72042583  0.43842425  0.51642833  1
  O  O232  1  0.72163856  0.77418449  0.02026421  1
  O  O233  1  0.73423240  0.76684545  0.52260081  1
  O  O234  1  0.10549052  0.26837763  0.02222553  1
  O  O235  1  0.10504529  0.26387561  0.52101446  1
  O  O236  1  0.11106497  0.59117312  0.03104893  1
  O  O237  1  0.09247000  0.60104289  0.52352174  1
  O  O238  1  0.08819533  0.92510685  0.01316106  1
  O  O239  1  0.08935476  0.92573934  0.50642047  1
  O  O240  1  0.43034437  0.27373817  0.02680949  1
  O  O241  1  0.43420416  0.26196143  0.50770972  1
  O  O242  1  0.43372378  0.59752661  0.02207988  1
  O  O243  1  0.43326739  0.59456262  0.52951601  1
  O  O244  1  0.43536232  0.92827056  0.00911439  1
  O  O245  1  0.43980505  0.92326990  0.52209863  1
  O  O246  1  0.75636428  0.25262765  0.03314347  1
  O  O247  1  0.76609995  0.25930317  0.52227583  1
  O  O248  1  0.76163898  0.60218492  0.00810036  1
  O  O249  1  0.76040307  0.60012652  0.53302209  1
  O  O250  1  0.75634608  0.93707339  0.02745733  1
  O  O251  1  0.75797188  0.93050654  0.52781628  1
  O  O252  1  0.22739645  0.07280953  0.27669875  1
  O  O253  1  0.24268079  0.08310710  0.75983338  1
  O  O254  1  0.24018424  0.40820284  0.27629050  1
  O  O255  1  0.25325189  0.41780954  0.78041724  1
  O  O256  1  0.23521018  0.73723543  0.25511172  1
  O  O257  1  0.25144704  0.73052262  0.75521664  1
  O  O258  1  0.57610010  0.07407748  0.27479803  1
  O  O259  1  0.57483379  0.06441412  0.78232569  1
  O  O260  1  0.57518496  0.39969987  0.28144425  1
  O  O261  1  0.55976829  0.40450917  0.76832343  1
  O  O262  1  0.57557202  0.74059574  0.27250897  1
  O  O263  1  0.57362615  0.73713975  0.76985328  1
  O  O264  1  0.90315818  0.07133274  0.27829411  1
  O  O265  1  0.88029220  0.06676552  0.76472796  1
  O  O266  1  0.90070258  0.39899694  0.28259667  1
  O  O267  1  0.89660886  0.39594378  0.75527318  1
  O  O268  1  0.89373157  0.74541208  0.27559340  1
  O  O269  1  0.88813484  0.72673386  0.76492127  1
  O  O270  1  0.25436030  0.23824455  0.27267751  1
  O  O271  1  0.25394255  0.24392074  0.75300123  1
  O  O272  1  0.27138799  0.56929876  0.27268822  1
  O  O273  1  0.27929667  0.57127627  0.76634917  1
  O  O274  1  0.25106022  0.91112734  0.26574286  1
  O  O275  1  0.26477575  0.90892445  0.76182853  1
  O  O276  1  0.60220765  0.23359614  0.27952096  1
  O  O277  1  0.61112997  0.22046367  0.75638196  1
  O  O278  1  0.60224094  0.57338570  0.27843292  1
  O  O279  1  0.60058565  0.56866986  0.76308957  1
  O  O280  1  0.60187378  0.89843842  0.27011459  1
  O  O281  1  0.60333783  0.90143157  0.77653586  1
  O  O282  1  0.91980523  0.23048640  0.27954741  1
  O  O283  1  0.91556999  0.22760885  0.76326154  1
  O  O284  1  0.91828771  0.58117785  0.28085255  1
  O  O285  1  0.93691810  0.56156014  0.77697964  1
  O  O286  1  0.92512769  0.90413191  0.27026125  1
  O  O287  1  0.91325026  0.90831198  0.77271498  1
  O  O288  1  0.25923214  0.24345979  0.47320563  1
  O  O289  1  0.26970499  0.25054248  0.98260973  1
  O  O290  1  0.27629226  0.56816803  0.48332040  1
  O  O291  1  0.27108225  0.57012549  0.97873152  1
  O  O292  1  0.25238172  0.91385383  0.47467830  1
  O  O293  1  0.26805625  0.91615486  0.98528773  1
  O  O294  1  0.59674024  0.23365243  0.47106965  1
  O  O295  1  0.60743916  0.22236907  0.99523857  1
  O  O296  1  0.59362451  0.56179522  0.47691688  1
  O  O297  1  0.58642398  0.56790455  0.98689837  1
  O  O298  1  0.60311833  0.89939815  0.48005982  1
  O  O299  1  0.59770881  0.90300959  0.97085377  1
  O  O300  1  0.92113882  0.23048959  0.46759009  1
  O  O301  1  0.92407481  0.23715148  0.98598400  1
  O  O302  1  0.92373888  0.58046310  0.47742840  1
  O  O303  1  0.93206476  0.57159368  0.97414513  1
  O  O304  1  0.91571318  0.90208464  0.48470472  1
  O  O305  1  0.91620031  0.90880898  0.98004409  1
  O  O306  1  0.22909109  0.07670959  0.47293788  1
  O  O307  1  0.25304962  0.07559286  0.98339655  1
  O  O308  1  0.24357767  0.40092207  0.46905196  1
  O  O309  1  0.24870803  0.41432035  0.97436058  1
  O  O310  1  0.24938023  0.73319211  0.49022653  1
  O  O311  1  0.25080514  0.73716302  0.99643576  1
  O  O312  1  0.57423275  0.07217099  0.47703225  1
  O  O313  1  0.57237280  0.06302202  0.96929665  1
  O  O314  1  0.55975875  0.40490263  0.46862312  1
  O  O315  1  0.55705777  0.39815591  0.98771938  1
  O  O316  1  0.57651151  0.74300112  0.48165679  1
  O  O317  1  0.56866654  0.74269444  0.98013066  1
  O  O318  1  0.90019986  0.07726960  0.47858203  1
  O  O319  1  0.88654489  0.06211086  0.99123115  1
  O  O320  1  0.89413382  0.39676640  0.47329767  1
  O  O321  1  0.91806641  0.41553532  0.97989264  1
  O  O322  1  0.89257181  0.73380675  0.48065423  1
  O  O323  1  0.89471171  0.73466802  0.97572162  1
  O  O324  1  0.10423627  0.26244044  0.23373188  1
  O  O325  1  0.09836829  0.25716673  0.71991890  1
  O  O326  1  0.10806625  0.59318388  0.22818175  1
  O  O327  1  0.10440693  0.59612749  0.71863188  1
  O  O328  1  0.09673022  0.93313001  0.24386142  1
  O  O329  1  0.08708975  0.92560588  0.73357626  1
  O  O330  1  0.44216731  0.26290098  0.23247422  1
  O  O331  1  0.42974425  0.26671998  0.73750690  1
  O  O332  1  0.43122591  0.60461153  0.22920769  1
  O  O333  1  0.43842883  0.59986226  0.72323924  1
  O  O334  1  0.43024838  0.91566408  0.23499408  1
  O  O335  1  0.44854484  0.92804555  0.73012056  1
  O  O336  1  0.75723140  0.25468505  0.23071486  1
  O  O337  1  0.76560681  0.25897035  0.71666898  1
  O  O338  1  0.75244278  0.60480940  0.23737541  1
  O  O339  1  0.75748908  0.60360763  0.71984749  1
  O  O340  1  0.75764917  0.93153121  0.22608742  1
  O  O341  1  0.75339133  0.93353259  0.71667152  1
  O  O342  1  0.06274034  0.10131145  0.24672169  1
  O  O343  1  0.08163787  0.09612772  0.73296558  1
  O  O344  1  0.08611842  0.42958112  0.23473965  1
  O  O345  1  0.08580877  0.41664190  0.72202110  1
  O  O346  1  0.07953802  0.76006019  0.23415811  1
  O  O347  1  0.07861363  0.75226835  0.72316628  1
  O  O348  1  0.41524878  0.10009544  0.23496902  1
  O  O349  1  0.41876555  0.08872550  0.72726315  1
  O  O350  1  0.41408046  0.42150879  0.23364625  1
  O  O351  1  0.40660452  0.44284669  0.72539324  1
  O  O352  1  0.41206921  0.75708669  0.22385677  1
  O  O353  1  0.41748929  0.75815327  0.72342080  1
  O  O354  1  0.73115932  0.09374646  0.22998744  1
  O  O355  1  0.72741214  0.09621133  0.71928793  1
  O  O356  1  0.72894891  0.42183668  0.24073589  1
  O  O357  1  0.72991757  0.43051992  0.72282672  1
  O  O358  1  0.72668177  0.77252285  0.23236404  1
  O  O359  1  0.72283549  0.76337477  0.72018583  1
