# generated using pymatgen
data_BaLaInIrO6
_symmetry_space_group_name_H-M   'P 1'
_cell_length_a   17.50702662
_cell_length_b   17.52845373
_cell_length_c   16.48486550
_cell_angle_alpha   89.99577437
_cell_angle_beta   90.01260815
_cell_angle_gamma   90.01968937
_symmetry_Int_Tables_number   1
_chemical_formula_structural   BaLaInIrO6
_chemical_formula_sum   'Ba36 La36 In36 Ir36 O216'
_cell_volume   5058.72847496
_cell_formula_units_Z   36
loop_
 _symmetry_equiv_pos_site_id
 _symmetry_equiv_pos_as_xyz
  1  'x, y, z'
loop_
 _atom_site_type_symbol
 _atom_site_label
 _atom_site_symmetry_multiplicity
 _atom_site_fract_x
 _atom_site_fract_y
 _atom_site_fract_z
 _atom_site_occupancy
  Ba  Ba0  1  0.66888635  0.84159125  0.62199119  1
  Ba  Ba1  1  0.16218239  0.66124689  0.87569267  1
  Ba  Ba2  1  0.82959659  0.34301233  0.62937443  1
  Ba  Ba3  1  0.83612838  0.99671416  0.37118264  1
  Ba  Ba4  1  0.32906154  0.50825676  0.62993489  1
  Ba  Ba5  1  0.66789334  0.51653378  0.12083440  1
  Ba  Ba6  1  0.16740239  0.67289272  0.62562956  1
  Ba  Ba7  1  0.67142172  0.17969261  0.63091171  1
  Ba  Ba8  1  0.16575974  0.34111385  0.12828765  1
  Ba  Ba9  1  0.82474515  0.34906214  0.12449611  1
  Ba  Ba10  1  0.16422781  0.32485088  0.87381124  1
  Ba  Ba11  1  0.83509366  0.31660533  0.87696280  1
  Ba  Ba12  1  1.00130047  0.84017886  0.62418005  1
  Ba  Ba13  1  0.33088181  0.82561732  0.37538697  1
  Ba  Ba14  1  0.32900304  0.15653192  0.37014806  1
  Ba  Ba15  1  0.33495707  0.82230621  0.87833693  1
  Ba  Ba16  1  0.66777358  0.17203651  0.12906596  1
  Ba  Ba17  1  0.17008102  0.99056259  0.37365664  1
  Ba  Ba18  1  0.49881059  0.65969987  0.37278437  1
  Ba  Ba19  1  0.50234350  0.99081859  0.37069600  1
  Ba  Ba20  1  0.50356722  0.98631853  0.87629965  1
  Ba  Ba21  1  0.83249059  0.68012798  0.12283810  1
  Ba  Ba22  1  0.66734299  0.83796235  0.12072088  1
  Ba  Ba23  1  0.66563886  0.82131407  0.87168839  1
  Ba  Ba24  1  0.16820640  0.98726615  0.87410680  1
  Ba  Ba25  1  0.66733312  0.15633923  0.87768479  1
  Ba  Ba26  1  0.50193836  0.68076126  0.12519709  1
  Ba  Ba27  1  -0.00231377  0.49492578  0.37560866  1
  Ba  Ba28  1  0.00322842  0.82976372  0.37778542  1
  Ba  Ba29  1  0.16875879  0.31925760  0.37319825  1
  Ba  Ba30  1  0.32620247  0.49517359  0.37616949  1
  Ba  Ba31  1  0.16511583  0.00574546  0.62379464  1
  Ba  Ba32  1  0.49702842  0.34787281  0.12513496  1
  Ba  Ba33  1  1.00113375  0.17121052  0.62414405  1
  Ba  Ba34  1  0.83325243  0.00701172  0.62419338  1
  Ba  Ba35  1  1.00296470  0.84051623  0.12329578  1
  La  La36  1  -0.00625388  0.14293881  0.87591892  1
  La  La37  1  0.82816405  0.68108192  0.62323170  1
  La  La38  1  0.82972277  0.00488759  0.12261834  1
  La  La39  1  0.84065891  0.65146010  0.87756286  1
  La  La40  1  0.49252272  0.68023489  0.62594461  1
  La  La41  1  0.66525536  0.48554191  0.87577083  1
  La  La42  1  0.65799168  0.81569450  0.36966485  1
  La  La43  1  0.33953641  0.84691983  0.12279967  1
  La  La44  1  1.00610646  0.50773955  0.63060153  1
  La  La45  1  0.65972876  0.15319264  0.38094727  1
  La  La46  1  0.49813790  0.00856845  0.11956833  1
  La  La47  1  -0.00082244  0.15608593  0.37549137  1
  La  La48  1  0.83271965  0.98246479  0.87257503  1
  La  La49  1  0.33321490  0.49272517  0.87845449  1
  La  La50  1  0.50268479  0.32113371  0.37427696  1
  La  La51  1  0.50967894  0.31978242  0.87297025  1
  La  La52  1  0.33306265  0.18133816  0.62614967  1
  La  La53  1  0.83327505  0.66049934  0.37250333  1
  La  La54  1  0.49775905  0.35267011  0.62677666  1
  La  La55  1  0.83453503  0.31695681  0.37625335  1
  La  La56  1  0.16689698  0.67698111  0.12531873  1
  La  La57  1  0.33705910  0.84929048  0.62840885  1
  La  La58  1  0.34016276  0.52062457  0.12443936  1
  La  La59  1  1.00380193  0.17265082  0.12642489  1
  La  La60  1  0.49457216  0.01680147  0.63034146  1
  La  La61  1  0.15817768  0.34353834  0.61730723  1
  La  La62  1  0.33002508  0.14888024  0.87692315  1
  La  La63  1  0.50565416  0.65795288  0.87729875  1
  La  La64  1  0.00046706  0.82119467  0.87656288  1
  La  La65  1  0.17534706  0.65841028  0.37413277  1
  La  La66  1  -0.00908136  0.48221408  0.87768224  1
  La  La67  1  0.34167922  0.18326880  0.12215252  1
  La  La68  1  1.00038075  0.51963700  0.12140214  1
  La  La69  1  0.67192468  0.51379149  0.62985951  1
  La  La70  1  0.66268835  0.49331750  0.36996394  1
  La  La71  1  0.16756055  0.01065871  0.12148728  1
  In  In72  1  0.33512485  0.00243847  0.50005648  1
  In  In73  1  -0.00682546  0.33646670  0.25022992  1
  In  In74  1  0.50017221  0.50452916  -0.00112004  1
  In  In75  1  0.16615000  0.16549307  -0.00126496  1
  In  In76  1  0.00285205  -0.00382303  0.24663874  1
  In  In77  1  0.83441586  0.16606360  0.24893378  1
  In  In78  1  0.00202150  0.67128479  0.25086051  1
  In  In79  1  0.16416636  0.50047132  0.75570510  1
  In  In80  1  0.83237871  0.50057247  0.50245581  1
  In  In81  1  0.83022014  0.83655193  0.49425073  1
  In  In82  1  0.49867480  0.17065776  0.50444225  1
  In  In83  1  0.33395049  0.33747580  0.25037558  1
  In  In84  1  0.66787764  0.33217170  0.00021620  1
  In  In85  1  0.33266781  0.33624609  0.50247733  1
  In  In86  1  -0.00167220  0.32848369  0.74938707  1
  In  In87  1  0.50121649  0.83635117  0.50059652  1
  In  In88  1  -0.00201921  0.66640982  0.49735542  1
  In  In89  1  0.16608740  0.16685497  0.75025750  1
  In  In90  1  0.83115324  0.16677605  0.50297815  1
  In  In91  1  0.16557447  0.50165439  0.00045733  1
  In  In92  1  0.33458775  0.33580138  -0.00365482  1
  In  In93  1  0.66763668  -0.00421009  0.24845241  1
  In  In94  1  -0.00291547  0.33078059  0.00612840  1
  In  In95  1  0.49997118  0.16569402  0.25124019  1
  In  In96  1  0.33408202  0.66636705  0.50249131  1
  In  In97  1  0.50026092  0.16402908  -0.00295742  1
  In  In98  1  0.33481797  0.33355497  0.75402188  1
  In  In99  1  0.00084294  -0.00662835  0.74933846  1
  In  In100  1  0.50172670  0.83103397  0.75262064  1
  In  In101  1  0.66828454  0.33640285  0.25225080  1
  In  In102  1  0.16862400  0.83128003  0.50097390  1
  In  In103  1  0.16484513  0.50042996  0.24615834  1
  In  In104  1  0.66640932  -0.00058199  0.74914110  1
  In  In105  1  0.66356447  0.66384779  0.50245812  1
  In  In106  1  0.66707520  0.33820296  0.50088333  1
  In  In107  1  -0.00274511  0.66631492  0.74823416  1
  Ir  Ir108  1  0.16956548  0.16071080  0.24484771  1
  Ir  Ir109  1  0.49753927  0.50621789  0.25378467  1
  Ir  Ir110  1  0.83293043  0.50550346  -0.00157836  1
  Ir  Ir111  1  0.33476164  0.67151957  -0.00190673  1
  Ir  Ir112  1  0.66432675  0.00019737  0.49868854  1
  Ir  Ir113  1  0.66878668  0.66782102  0.24779823  1
  Ir  Ir114  1  0.83465567  0.83246593  -0.00160306  1
  Ir  Ir115  1  0.16134650  0.49848790  0.50187035  1
  Ir  Ir116  1  0.00000054  0.67081158  -0.00077320  1
  Ir  Ir117  1  0.33191673  -0.00325763  0.24268837  1
  Ir  Ir118  1  0.16889920  0.83180380  0.00116106  1
  Ir  Ir119  1  0.66326046  0.33625434  0.75154021  1
  Ir  Ir120  1  0.16637323  0.16534606  0.49662102  1
  Ir  Ir121  1  0.00241065  0.00246763  0.49780545  1
  Ir  Ir122  1  0.50200334  0.49973282  0.49934812  1
  Ir  Ir123  1  0.83657976  0.15466533  -0.00213715  1
  Ir  Ir124  1  0.66831823  0.66076404  0.75291510  1
  Ir  Ir125  1  -0.00154072  -0.00641338  0.00153809  1
  Ir  Ir126  1  0.83171655  0.82749162  0.75383868  1
  Ir  Ir127  1  0.49811559  0.16885688  0.74877082  1
  Ir  Ir128  1  0.66831720  -0.00463902  0.00093598  1
  Ir  Ir129  1  -0.00067496  0.33187813  0.49693416  1
  Ir  Ir130  1  0.82824824  0.50665709  0.25056740  1
  Ir  Ir131  1  0.17283881  0.83068739  0.75382441  1
  Ir  Ir132  1  0.83220093  0.50111229  0.75317096  1
  Ir  Ir133  1  0.17388309  0.83252927  0.24297496  1
  Ir  Ir134  1  0.50096020  0.83280482  0.00314922  1
  Ir  Ir135  1  0.33254152  0.67029295  0.24638120  1
  Ir  Ir136  1  0.33114041  -0.00426777  0.00045777  1
  Ir  Ir137  1  0.67284521  0.66828605  -0.00574213  1
  Ir  Ir138  1  0.50321279  0.50509708  0.74758089  1
  Ir  Ir139  1  0.83021221  0.83229125  0.24762278  1
  Ir  Ir140  1  0.83310756  0.16218758  0.75655419  1
  Ir  Ir141  1  0.33734575  0.66844697  0.75410880  1
  Ir  Ir142  1  0.33445620  0.00025544  0.75235488  1
  Ir  Ir143  1  0.49908511  0.83357739  0.24611069  1
  O  O144  1  0.31372201  0.32039254  0.12319682  1
  O  O145  1  0.29685481  0.32424394  0.62849840  1
  O  O146  1  0.30478803  0.66164397  0.12073837  1
  O  O147  1  0.31803744  0.66311555  0.63499069  1
  O  O148  1  0.30351685  0.98498885  0.12108116  1
  O  O149  1  0.31555941  0.99202143  0.63425191  1
  O  O150  1  0.64907008  0.33587999  0.12523992  1
  O  O151  1  0.63518039  0.33542524  0.63157770  1
  O  O152  1  0.64926878  0.67078694  0.11941563  1
  O  O153  1  0.63080607  0.65275184  0.63503361  1
  O  O154  1  0.63565509  0.99402125  0.11905736  1
  O  O155  1  0.63390379  0.99578227  0.61907487  1
  O  O156  1  0.96712351  0.30700993  0.12841930  1
  O  O157  1  0.97941383  0.32952300  0.61630005  1
  O  O158  1  0.98122786  0.66605757  0.12007919  1
  O  O159  1  0.96233367  0.65443313  0.62515405  1
  O  O160  1  0.96791316  0.99431730  0.11960072  1
  O  O161  1  0.98550482  1.00007012  0.61911061  1
  O  O162  1  0.20319876  0.15380186  0.12646868  1
  O  O163  1  0.19444947  0.16437845  0.61796677  1
  O  O164  1  0.20531914  0.50474156  0.12208675  1
  O  O165  1  0.17824429  0.48471575  0.62273814  1
  O  O166  1  0.20116472  0.81925938  0.12190547  1
  O  O167  1  0.20161134  0.82836236  0.63516036  1
  O  O168  1  0.51699630  0.14712871  0.12383878  1
  O  O169  1  0.52427007  0.15513350  0.63191196  1
  O  O170  1  0.51762125  0.50835766  0.13262410  1
  O  O171  1  0.53594069  0.49306465  0.62296654  1
  O  O172  1  0.51794796  0.84313159  0.12493912  1
  O  O173  1  0.52115860  0.81501995  0.62758963  1
  O  O174  1  0.86663182  0.14947961  0.11585087  1
  O  O175  1  0.84912803  0.16772404  0.63543606  1
  O  O176  1  0.86238990  0.50307987  0.12429603  1
  O  O177  1  0.86660017  0.49836916  0.63442520  1
  O  O178  1  0.85513134  0.83370855  0.12193188  1
  O  O179  1  0.84956493  0.82122278  0.63220242  1
  O  O180  1  0.13735549  0.16267278  0.37019656  1
  O  O181  1  0.12879157  0.16642743  0.87615998  1
  O  O182  1  0.14839944  0.51761067  0.37972996  1
  O  O183  1  0.12435529  0.50733521  0.87880326  1
  O  O184  1  0.15568608  0.83513274  0.36325974  1
  O  O185  1  0.13891661  0.83398511  0.87832886  1
  O  O186  1  0.47599144  0.17723990  0.37842698  1
  O  O187  1  0.46574213  0.17679587  0.86752765  1
  O  O188  1  0.47390069  0.50552659  0.37896047  1
  O  O189  1  0.47102407  0.51801780  0.86671212  1
  O  O190  1  0.48153899  0.83116530  0.36639610  1
  O  O191  1  0.48491574  0.82247608  0.88282858  1
  O  O192  1  0.79720088  0.16871781  0.37674903  1
  O  O193  1  0.81493773  0.15085634  0.87771548  1
  O  O194  1  0.79773853  0.51907324  0.36937934  1
  O  O195  1  0.80071332  0.51230753  0.87500411  1
  O  O196  1  0.79740795  0.83691452  0.36451065  1
  O  O197  1  0.81282471  0.84349516  0.87757193  1
  O  O198  1  0.02003048  0.00567199  0.37660685  1
  O  O199  1  0.01793791  -0.00176360  0.88175095  1
  O  O200  1  0.02235937  0.33960317  0.37965835  1
  O  O201  1  0.01354014  0.34417154  0.87904965  1
  O  O202  1  0.03927267  0.66855900  0.37255032  1
  O  O203  1  0.01154730  0.67991946  0.87796922  1
  O  O204  1  0.34998997  -0.00169700  0.36449342  1
  O  O205  1  0.35581021  0.00927250  0.87775007  1
  O  O206  1  0.36587995  0.33444102  0.37789411  1
  O  O207  1  0.37813682  0.35380501  0.87372899  1
  O  O208  1  0.34801822  0.66804626  0.36764631  1
  O  O209  1  0.36890131  0.67209885  0.87622390  1
  O  O210  1  0.68660296  0.01179889  0.37951332  1
  O  O211  1  0.69670421  -0.00198542  0.88157791  1
  O  O212  1  0.70036772  0.35908580  0.37603967  1
  O  O213  1  0.68614434  0.34438315  0.87086528  1
  O  O214  1  0.69293059  0.66966243  0.36917469  1
  O  O215  1  0.70376499  0.66600861  0.87223378  1
  O  O216  1  0.06603239  0.08580557  0.02651648  1
  O  O217  1  0.07243848  0.09842785  0.50820319  1
  O  O218  1  0.06322810  0.43443587  0.03026436  1
  O  O219  1  0.06828010  0.42504543  0.52606532  1
  O  O220  1  0.07082364  0.76644646  0.01111868  1
  O  O221  1  0.07528086  0.75741932  0.52017842  1
  O  O222  1  0.39713263  0.08927065  0.01950431  1
  O  O223  1  0.40202277  0.09862826  0.53297491  1
  O  O224  1  0.39936257  0.44282190  0.02296771  1
  O  O225  1  0.41319113  0.43186218  0.52614722  1
  O  O226  1  0.40265317  0.76718173  0.02546465  1
  O  O227  1  0.40178172  0.76480456  0.52607061  1
  O  O228  1  0.74382972  0.08262193  0.02765381  1
  O  O229  1  0.73191026  0.09145635  0.51759005  1
  O  O230  1  0.73982921  0.43631818  0.00652179  1
  O  O231  1  0.73016449  0.43996618  0.52723832  1
  O  O232  1  0.74167099  0.76196239  0.01165683  1
  O  O233  1  0.74231069  0.75508667  0.51487992  1
  O  O234  1  0.08744637  0.25112628  0.03047443  1
  O  O235  1  0.09673142  0.26368391  0.51857684  1
  O  O236  1  0.09283511  0.60394448  0.02752507  1
  O  O237  1  0.08325163  0.57850844  0.52723490  1
  O  O238  1  0.09973257  0.92956679  0.02418539  1
  O  O239  1  0.08838571  0.92650944  0.51077021  1
  O  O240  1  0.42448136  0.25554078  0.01924717  1
  O  O241  1  0.42734252  0.26577533  0.53890477  1
  O  O242  1  0.42817271  0.60618615  0.01141093  1
  O  O243  1  0.43757485  0.59590525  0.52313224  1
  O  O244  1  0.43033448  0.92876770  0.02450279  1
  O  O245  1  0.43663452  0.93604975  0.52735301  1
  O  O246  1  0.76557048  0.24607590  0.01344159  1
  O  O247  1  0.76588673  0.26820423  0.50978708  1
  O  O248  1  0.76893832  0.60229766  0.00801082  1
  O  O249  1  0.75785222  0.59521186  0.53857996  1
  O  O250  1  0.76853648  0.93034826  0.01870466  1
  O  O251  1  0.75541316  0.93196483  0.51481431  1
  O  O252  1  0.23658859  0.06270411  0.25739693  1
  O  O253  1  0.24799743  0.07231759  0.77150359  1
  O  O254  1  0.23800967  0.40842363  0.26940260  1
  O  O255  1  0.24985204  0.41769485  0.77767996  1
  O  O256  1  0.23570735  0.73428871  0.26454757  1
  O  O257  1  0.24397942  0.73711266  0.77280915  1
  O  O258  1  0.58301277  0.07934169  0.27049237  1
  O  O259  1  0.56719424  0.07819001  0.76785579  1
  O  O260  1  0.56435121  0.41398175  0.28001103  1
  O  O261  1  0.56925324  0.40795487  0.77547670  1
  O  O262  1  0.57627468  0.74188852  0.27041277  1
  O  O263  1  0.57302911  0.72463395  0.77291743  1
  O  O264  1  0.92474623  0.08540800  0.26904097  1
  O  O265  1  0.90103260  0.06788872  0.77530979  1
  O  O266  1  0.88916406  0.41063163  0.27537609  1
  O  O267  1  0.90151292  0.41176753  0.77395478  1
  O  O268  1  0.89954507  0.74064893  0.27412061  1
  O  O269  1  0.89696021  0.73482616  0.77277543  1
  O  O270  1  0.25403797  0.23423091  0.26118808  1
  O  O271  1  0.27161987  0.23011101  0.77600618  1
  O  O272  1  0.25850911  0.58554897  0.26460758  1
  O  O273  1  0.26973019  0.57657828  0.77792501  1
  O  O274  1  0.26893436  0.89824936  0.25371209  1
  O  O275  1  0.27007087  0.90238544  0.76714402  1
  O  O276  1  0.59341546  0.24473980  0.28434000  1
  O  O277  1  0.58836738  0.24368217  0.77629350  1
  O  O278  1  0.59847231  0.57275868  0.27179228  1
  O  O279  1  0.60037502  0.56860716  0.77927456  1
  O  O280  1  0.59503729  0.89769808  0.27045104  1
  O  O281  1  0.59211884  0.90793071  0.76418590  1
  O  O282  1  0.92536909  0.24251410  0.28875458  1
  O  O283  1  0.93044682  0.22629078  0.77642544  1
  O  O284  1  0.91850470  0.57600782  0.26553252  1
  O  O285  1  0.92325307  0.56727062  0.78329045  1
  O  O286  1  0.92088361  0.90191738  0.26384247  1
  O  O287  1  0.92633707  0.89600516  0.77579882  1
  O  O288  1  0.25645589  0.23458909  0.48524337  1
  O  O289  1  0.26627095  0.23120332  0.97158797  1
  O  O290  1  0.24864522  0.57430485  0.49039038  1
  O  O291  1  0.27141429  0.57757311  0.97521651  1
  O  O292  1  0.26643163  0.90326835  0.49971784  1
  O  O293  1  0.26507169  0.89709080  0.99097551  1
  O  O294  1  0.59540201  0.24243580  0.47366493  1
  O  O295  1  0.58741402  0.24522921  0.97505868  1
  O  O296  1  0.59718705  0.56130743  0.47825083  1
  O  O297  1  0.60125505  0.57817862  0.96945851  1
  O  O298  1  0.60290321  0.90487594  0.47169983  1
  O  O299  1  0.59570923  0.90382114  0.97951038  1
  O  O300  1  0.93283506  0.23988796  0.47168052  1
  O  O301  1  0.92961312  0.22039862  0.97611139  1
  O  O302  1  0.91307083  0.58216327  0.46774464  1
  O  O303  1  0.93360489  0.57301072  0.97816865  1
  O  O304  1  0.92684499  0.91606237  0.48665070  1
  O  O305  1  0.93082612  0.89877363  0.97334137  1
  O  O306  1  0.23629532  0.07606434  0.48318237  1
  O  O307  1  0.23919262  0.06401540  0.98641728  1
  O  O308  1  0.23366927  0.41029697  0.48547253  1
  O  O309  1  0.24415280  0.41362452  0.96915311  1
  O  O310  1  0.23560161  0.73225271  0.47667106  1
  O  O311  1  0.23436163  0.73440610  0.98819692  1
  O  O312  1  0.57532764  0.07177199  0.48338060  1
  O  O313  1  0.57678703  0.06558709  0.98432148  1
  O  O314  1  0.56113413  0.40277126  0.47638797  1
  O  O315  1  0.57164941  0.41098211  0.96925915  1
  O  O316  1  0.57608396  0.74192324  0.47967598  1
  O  O317  1  0.57227367  0.73381899  0.97888733  1
  O  O318  1  0.91716133  0.08003531  0.48051365  1
  O  O319  1  0.90292084  0.05739073  0.97389924  1
  O  O320  1  0.90320457  0.39783845  0.47633697  1
  O  O321  1  0.90232823  0.41575929  0.98268152  1
  O  O322  1  0.90145462  0.74087513  0.47255407  1
  O  O323  1  0.90417647  0.73988424  0.97038516  1
  O  O324  1  0.09159689  0.24425764  0.23107778  1
  O  O325  1  0.10254824  0.26815199  0.72341657  1
  O  O326  1  0.09206821  0.59437050  0.21608614  1
  O  O327  1  0.08563872  0.58870306  0.72562800  1
  O  O328  1  0.10577221  0.92595746  0.22205018  1
  O  O329  1  0.09928022  0.91645505  0.73696684  1
  O  O330  1  0.42348976  0.25688529  0.22903679  1
  O  O331  1  0.43417418  0.26197309  0.72213513  1
  O  O332  1  0.42236673  0.59794568  0.22640387  1
  O  O333  1  0.43830716  0.60481090  0.73048265  1
  O  O334  1  0.42960338  0.92968820  0.22001735  1
  O  O335  1  0.42635053  0.93123235  0.72791126  1
  O  O336  1  0.76460033  0.26340226  0.23825204  1
  O  O337  1  0.75893697  0.26239490  0.74014649  1
  O  O338  1  0.76337086  0.60239018  0.23165939  1
  O  O339  1  0.76502856  0.59615761  0.72639934  1
  O  O340  1  0.76505358  0.92318752  0.22221005  1
  O  O341  1  0.76666314  0.92226135  0.74075054  1
  O  O342  1  0.08344158  0.08828653  0.21505467  1
  O  O343  1  0.07193845  0.08957322  0.74026537  1
  O  O344  1  0.06087384  0.43327347  0.22223868  1
  O  O345  1  0.06570914  0.42811431  0.73011638  1
  O  O346  1  0.08631993  0.76115802  0.22507813  1
  O  O347  1  0.07970905  0.76171371  0.74109738  1
  O  O348  1  0.39915988  0.08702244  0.22022843  1
  O  O349  1  0.40267994  0.09868214  0.72488613  1
  O  O350  1  0.40410740  0.44196154  0.22890987  1
  O  O351  1  0.41965082  0.42951758  0.72218503  1
  O  O352  1  0.40127528  0.76581627  0.22349062  1
  O  O353  1  0.40248294  0.76059398  0.72711034  1
  O  O354  1  0.75406341  0.07892088  0.22259896  1
  O  O355  1  0.74227988  0.09309544  0.73744220  1
  O  O356  1  0.73592031  0.44311195  0.23543599  1
  O  O357  1  0.73091792  0.43582783  0.73219578  1
  O  O358  1  0.73528427  0.76431745  0.23543045  1
  O  O359  1  0.73984498  0.75176819  0.72600450  1
