# generated using pymatgen
data_BaLaInIrO6
_symmetry_space_group_name_H-M   'P 1'
_cell_length_a   17.50866406
_cell_length_b   17.53840920
_cell_length_c   16.47593806
_cell_angle_alpha   89.98737731
_cell_angle_beta   89.96109556
_cell_angle_gamma   89.95736254
_symmetry_Int_Tables_number   1
_chemical_formula_structural   BaLaInIrO6
_chemical_formula_sum   'Ba36 La36 In36 Ir36 O216'
_cell_volume   5059.33140555
_cell_formula_units_Z   36
loop_
 _symmetry_equiv_pos_site_id
 _symmetry_equiv_pos_as_xyz
  1  'x, y, z'
loop_
 _atom_site_type_symbol
 _atom_site_label
 _atom_site_symmetry_multiplicity
 _atom_site_fract_x
 _atom_site_fract_y
 _atom_site_fract_z
 _atom_site_occupancy
  Ba  Ba0  1  0.83564890  0.67517152  0.62430172  1
  Ba  Ba1  1  0.16625861  0.32547333  0.87443345  1
  Ba  Ba2  1  0.33158915  0.50547731  0.62528948  1
  Ba  Ba3  1  0.83634564  0.34125320  0.62447675  1
  Ba  Ba4  1  0.16767426  0.99330473  0.87508011  1
  Ba  Ba5  1  0.16581488  0.34266024  0.12114492  1
  Ba  Ba6  1  0.33300766  0.82362686  0.37522492  1
  Ba  Ba7  1  0.49716966  0.32714571  0.87565629  1
  Ba  Ba8  1  0.16933935  0.01018118  0.12476871  1
  Ba  Ba9  1  1.00497624  0.17859650  0.62779717  1
  Ba  Ba10  1  0.66836615  0.16348644  0.37191970  1
  Ba  Ba11  1  0.33136743  0.49521055  0.37329932  1
  Ba  Ba12  1  0.16585176  0.67479350  0.12859930  1
  Ba  Ba13  1  0.49949187  0.66016668  0.37377640  1
  Ba  Ba14  1  0.66250625  0.50300145  0.12374311  1
  Ba  Ba15  1  0.49882780  0.34415732  0.12520021  1
  Ba  Ba16  1  0.83455014  0.65147965  0.37907221  1
  Ba  Ba17  1  0.49769494  0.68080444  0.62679189  1
  Ba  Ba18  1  0.83459641  0.99156866  0.87396029  1
  Ba  Ba19  1  -0.00350972  0.48858874  0.86805675  1
  Ba  Ba20  1  0.33185371  0.50948619  0.12527249  1
  Ba  Ba21  1  0.33219055  0.15767727  0.37200870  1
  Ba  Ba22  1  0.49647991  0.67457822  0.12412707  1
  Ba  Ba23  1  0.16523353  0.65883778  0.87677406  1
  Ba  Ba24  1  0.82890352  0.34180803  0.12940003  1
  Ba  Ba25  1  0.32771082  0.49015494  0.87542796  1
  Ba  Ba26  1  -0.00460229  0.82609293  0.88195662  1
  Ba  Ba27  1  0.83616839  0.00822917  0.62635486  1
  Ba  Ba28  1  0.33470096  0.84458337  0.62943549  1
  Ba  Ba29  1  -0.00152403  0.48508403  0.37717818  1
  Ba  Ba30  1  1.00274215  0.51170529  0.62437859  1
  Ba  Ba31  1  0.17130331  0.32512661  0.37177842  1
  Ba  Ba32  1  0.66438858  0.17548161  0.12753418  1
  Ba  Ba33  1  0.67034592  0.84222723  0.62073404  1
  Ba  Ba34  1  0.33169692  0.17422622  0.62620197  1
  Ba  Ba35  1  0.49897321  0.99516981  0.37416139  1
  La  La36  1  0.65750910  0.81886943  0.37751284  1
  La  La37  1  0.50202363  0.98963093  0.87352957  1
  La  La38  1  0.50009353  0.32322806  0.37203788  1
  La  La39  1  0.15851830  0.34928481  0.62332816  1
  La  La40  1  0.66575815  0.82041765  0.87471294  1
  La  La41  1  0.00035399  0.81703494  0.37540410  1
  La  La42  1  0.33467199  0.84537915  0.12624921  1
  La  La43  1  0.49400857  0.34272499  0.62341205  1
  La  La44  1  1.00655737  0.18203315  0.12544507  1
  La  La45  1  0.33715093  0.18729254  0.12609595  1
  La  La46  1  1.00641196  0.85039562  0.13031494  1
  La  La47  1  -0.00133693  0.15497123  0.87559779  1
  La  La48  1  0.66364800  0.48401295  0.87664809  1
  La  La49  1  0.32490708  0.82149262  0.87612192  1
  La  La50  1  0.15917012  0.01575861  0.62280976  1
  La  La51  1  0.83753699  0.65071298  0.87374930  1
  La  La52  1  0.49924703  0.01186617  0.62432917  1
  La  La53  1  0.16255007  0.67960876  0.62790993  1
  La  La54  1  0.17468042  0.65084819  0.37743267  1
  La  La55  1  0.83297010  0.32230450  0.37920354  1
  La  La56  1  0.32617457  0.15642325  0.87957060  1
  La  La57  1  0.84258705  0.31885041  0.87443095  1
  La  La58  1  0.83639850  0.98478858  0.37399892  1
  La  La59  1  1.00783117  0.51253580  0.12445345  1
  La  La60  1  0.67877419  0.51349573  0.62130383  1
  La  La61  1  0.66949922  0.17484179  0.62529896  1
  La  La62  1  0.66439897  0.15028890  0.87366243  1
  La  La63  1  0.83116686  0.01208919  0.11702557  1
  La  La64  1  0.49016167  0.01913081  0.12986773  1
  La  La65  1  -0.00339459  0.15669782  0.37333551  1
  La  La66  1  0.83036183  0.67158454  0.12359450  1
  La  La67  1  0.66031277  0.48315141  0.37072852  1
  La  La68  1  0.17748017  0.98606295  0.37451537  1
  La  La69  1  1.00511384  0.84217902  0.62833269  1
  La  La70  1  0.49876324  0.64771726  0.87520489  1
  La  La71  1  0.66776647  0.84327803  0.13012750  1
  In  In72  1  0.66998321  0.00044475  0.24728532  1
  In  In73  1  0.83699445  0.16437017  0.24753798  1
  In  In74  1  0.83258682  0.16491676  0.74786325  1
  In  In75  1  0.33234834  0.33251814  0.50085108  1
  In  In76  1  0.16440894  0.49697915  0.24950122  1
  In  In77  1  -0.00104783  0.66559836  0.25175309  1
  In  In78  1  0.67170916  0.00280598  0.49740643  1
  In  In79  1  0.83614264  0.83184013  0.24693137  1
  In  In80  1  0.00125417  -0.00264318  0.75258877  1
  In  In81  1  0.49746076  0.16770614  -0.00399181  1
  In  In82  1  0.49698988  0.16661497  0.75090129  1
  In  In83  1  0.33206844  0.66774730  0.50400076  1
  In  In84  1  0.67062784  0.32967751  -0.00211063  1
  In  In85  1  0.83344224  0.49836194  0.00282478  1
  In  In86  1  -0.00164478  0.33438795  0.00042886  1
  In  In87  1  0.49924098  0.83758112  0.50123021  1
  In  In88  1  0.66762425  0.66258032  0.24648951  1
  In  In89  1  0.50086207  0.83557622  0.24699399  1
  In  In90  1  0.83216757  0.83136153  0.00395616  1
  In  In91  1  0.00173792  -0.00136226  0.49520116  1
  In  In92  1  0.16747775  0.16553008  0.00134351  1
  In  In93  1  0.16474686  0.16810475  0.49620818  1
  In  In94  1  0.66738302  0.32963900  0.75073090  1
  In  In95  1  0.50310303  0.49834794  0.50055858  1
  In  In96  1  0.66484673  0.66707348  -0.00134078  1
  In  In97  1  0.33312493  0.66682629  0.75060193  1
  In  In98  1  0.50433844  0.49774717  0.74886881  1
  In  In99  1  0.33307653  0.66911160  0.00107163  1
  In  In100  1  0.66628131  0.66734522  0.75280998  1
  In  In101  1  0.16347583  0.83442451  0.00172445  1
  In  In102  1  0.66207592  -0.00346977  0.00094743  1
  In  In103  1  0.33167396  0.00072312  0.50367822  1
  In  In104  1  -0.00088561  0.66896924  0.75161804  1
  In  In105  1  0.83545537  0.83368495  0.49800952  1
  In  In106  1  0.66541083  0.33248142  0.50216037  1
  In  In107  1  0.66771544  0.66424357  0.49827167  1
  Ir  Ir108  1  0.66735468  0.33509448  0.25173987  1
  Ir  Ir109  1  0.33361297  0.00137960  0.75324655  1
  Ir  Ir110  1  -0.00387109  0.00312813  0.00679876  1
  Ir  Ir111  1  0.33481715  0.33309612  0.24762511  1
  Ir  Ir112  1  0.16919483  0.83654872  0.74857719  1
  Ir  Ir113  1  0.49660076  0.49783495  0.24971172  1
  Ir  Ir114  1  0.83625263  0.16421184  -0.00158110  1
  Ir  Ir115  1  0.49769093  0.49870643  -0.00080900  1
  Ir  Ir116  1  0.33022041  0.00262544  0.24549263  1
  Ir  Ir117  1  0.50338921  0.16611594  0.50031584  1
  Ir  Ir118  1  0.16364894  0.83251214  0.50028089  1
  Ir  Ir119  1  -0.00098760  0.32892344  0.25302121  1
  Ir  Ir120  1  0.83532087  0.16866265  0.49791138  1
  Ir  Ir121  1  0.16488053  0.16683453  0.24759666  1
  Ir  Ir122  1  0.49752351  0.83947118  0.75795250  1
  Ir  Ir123  1  0.83623093  0.49359473  0.25344298  1
  Ir  Ir124  1  0.83493582  0.49684337  0.50032012  1
  Ir  Ir125  1  0.00608929  0.00164248  0.25265095  1
  Ir  Ir126  1  0.49745400  0.83727093  -0.00507301  1
  Ir  Ir127  1  0.00538582  0.66884137  0.50028554  1
  Ir  Ir128  1  -0.00490484  0.66344492  0.00111880  1
  Ir  Ir129  1  0.16642875  0.83695746  0.25225860  1
  Ir  Ir130  1  0.32921407  0.33252670  0.74975985  1
  Ir  Ir131  1  0.16352184  0.50154123  0.50319152  1
  Ir  Ir132  1  0.49723950  0.17006750  0.25129745  1
  Ir  Ir133  1  0.32923439  0.67003535  0.25024396  1
  Ir  Ir134  1  0.16336201  0.50196129  -0.00229782  1
  Ir  Ir135  1  0.83126054  0.83437530  0.75195261  1
  Ir  Ir136  1  0.66334772  -0.00395663  0.75174994  1
  Ir  Ir137  1  0.00078602  0.33253967  0.49879458  1
  Ir  Ir138  1  0.33245182  0.33584365  -0.00175602  1
  Ir  Ir139  1  0.16607522  0.49836655  0.75042785  1
  Ir  Ir140  1  0.33898473  0.00023562  0.00024495  1
  Ir  Ir141  1  0.83083795  0.49888869  0.74602073  1
  Ir  Ir142  1  0.00241799  0.33202811  0.74827249  1
  Ir  Ir143  1  0.16939622  0.16748147  0.75189841  1
  O  O144  1  0.31235644  0.32425291  0.12246816  1
  O  O145  1  0.29892418  0.32964689  0.63258325  1
  O  O146  1  0.31663865  0.67298914  0.12986685  1
  O  O147  1  0.29760746  0.66720802  0.62840746  1
  O  O148  1  0.31540336  0.98454500  0.12153887  1
  O  O149  1  0.29559418  0.99962223  0.63533713  1
  O  O150  1  0.65071455  0.33125166  0.13019426  1
  O  O151  1  0.63105357  0.31632802  0.62560014  1
  O  O152  1  0.64463747  0.65494879  0.12169040  1
  O  O153  1  0.64623453  0.65013206  0.62805389  1
  O  O154  1  0.62502977  0.98935873  0.12361415  1
  O  O155  1  0.63647859  0.99785368  0.63160118  1
  O  O156  1  0.97786749  0.32227854  0.13209004  1
  O  O157  1  0.98451451  0.33654742  0.62235798  1
  O  O158  1  0.96775416  0.65199638  0.12178631  1
  O  O159  1  0.98753845  0.67653853  0.62111621  1
  O  O160  1  0.96893375  0.99116972  0.13165555  1
  O  O161  1  0.98594232  0.98273133  0.62408995  1
  O  O162  1  0.19809438  0.16484515  0.12917101  1
  O  O163  1  0.18413813  0.15581709  0.63152692  1
  O  O164  1  0.17703699  0.50103782  0.11760961  1
  O  O165  1  0.18370312  0.48782884  0.62770488  1
  O  O166  1  0.19696358  0.83341135  0.13174863  1
  O  O167  1  0.18665777  0.81648997  0.62244045  1
  O  O168  1  0.51361976  0.16181586  0.12834169  1
  O  O169  1  0.53039418  0.15517087  0.62215845  1
  O  O170  1  0.51316768  0.50311795  0.12488473  1
  O  O171  1  0.54210660  0.48028045  0.62587897  1
  O  O172  1  0.53013722  0.83219270  0.11294029  1
  O  O173  1  0.52059346  0.83958197  0.63951953  1
  O  O174  1  0.87133944  0.15676682  0.11795340  1
  O  O175  1  0.85566085  0.16427392  0.61632769  1
  O  O176  1  0.86952594  0.49308916  0.13302077  1
  O  O177  1  0.85707407  0.49690646  0.62337536  1
  O  O178  1  0.87729089  0.81035540  0.12387039  1
  O  O179  1  0.86665292  0.83320502  0.63097688  1
  O  O180  1  0.13356803  0.16984140  0.36612193  1
  O  O181  1  0.13890647  0.16768362  0.87197378  1
  O  O182  1  0.14866800  0.50998526  0.38122571  1
  O  O183  1  0.14455277  0.50060722  0.87339412  1
  O  O184  1  0.13556963  0.84811175  0.37690935  1
  O  O185  1  0.14662334  0.84062130  0.86930528  1
  O  O186  1  0.47874702  0.18222988  0.37738576  1
  O  O187  1  0.45902396  0.16559931  0.87326247  1
  O  O188  1  0.47906399  0.49447867  0.36748223  1
  O  O189  1  0.47785969  0.50061568  0.88097827  1
  O  O190  1  0.48078249  0.84185369  0.37238002  1
  O  O191  1  0.46099712  0.85204933  0.87748306  1
  O  O192  1  0.82037620  0.17928469  0.37782248  1
  O  O193  1  0.80196788  0.17335067  0.87847582  1
  O  O194  1  0.80320138  0.49153089  0.37662146  1
  O  O195  1  0.80441151  0.50939780  0.86572862  1
  O  O196  1  0.79691874  0.84868662  0.36872390  1
  O  O197  1  0.80352753  0.83778779  0.87320380  1
  O  O198  1  0.04237516  0.01518326  0.36870481  1
  O  O199  1  0.01803352  0.01129025  0.88422479  1
  O  O200  1  0.02221811  0.32477387  0.37716871  1
  O  O201  1  0.01592442  0.32884258  0.86813804  1
  O  O202  1  0.03773531  0.67272607  0.38119728  1
  O  O203  1  0.01589710  0.67005871  0.88118687  1
  O  O204  1  0.34511348  0.00223768  0.36740353  1
  O  O205  1  0.36675362  0.01432708  0.87753678  1
  O  O206  1  0.36075376  0.33628362  0.36866599  1
  O  O207  1  0.35070220  0.33379187  0.87397476  1
  O  O208  1  0.34202744  0.66530012  0.37022768  1
  O  O209  1  0.36166983  0.68086215  0.87593366  1
  O  O210  1  0.70476554  0.01407948  0.37045782  1
  O  O211  1  0.68623565  0.00602913  0.87123157  1
  O  O212  1  0.69547414  0.34123577  0.37225468  1
  O  O213  1  0.70799106  0.34186214  0.87302088  1
  O  O214  1  0.68788680  0.68013351  0.37050338  1
  O  O215  1  0.70269708  0.68225045  0.87577550  1
  O  O216  1  0.06525223  0.09473951  0.02347209  1
  O  O217  1  0.07280907  0.09278959  0.51909830  1
  O  O218  1  0.06848436  0.43427989  0.01814132  1
  O  O219  1  0.07324047  0.42582708  0.52068725  1
  O  O220  1  0.06162919  0.75929244  0.02721132  1
  O  O221  1  0.06566869  0.76989214  0.52011519  1
  O  O222  1  0.40056324  0.09402104  0.02856049  1
  O  O223  1  0.41306240  0.09628269  0.51693058  1
  O  O224  1  0.40451467  0.42807561  0.01747256  1
  O  O225  1  0.41445003  0.41571177  0.52778336  1
  O  O226  1  0.40115101  0.77847953  0.01986800  1
  O  O227  1  0.40388344  0.76272084  0.51690220  1
  O  O228  1  0.74669681  0.09166165  0.01849149  1
  O  O229  1  0.73891202  0.10680555  0.52378847  1
  O  O230  1  0.73420164  0.43267751  0.00845501  1
  O  O231  1  0.73969020  0.43173628  0.51993417  1
  O  O232  1  0.72502573  0.77309620  0.02133385  1
  O  O233  1  0.74682115  0.75622461  0.51468085  1
  O  O234  1  0.08655797  0.25380426  0.01961037  1
  O  O235  1  0.09566863  0.26889561  0.52118074  1
  O  O236  1  0.08843892  0.59288481  0.02288924  1
  O  O237  1  0.10107991  0.60224849  0.52425977  1
  O  O238  1  0.08260893  0.92509470  0.02611105  1
  O  O239  1  0.10234897  0.92679170  0.52359507  1
  O  O240  1  0.41882051  0.26130267  0.01859101  1
  O  O241  1  0.43814721  0.26032687  0.52137302  1
  O  O242  1  0.43100460  0.59392117  0.00565613  1
  O  O243  1  0.42550668  0.58985603  0.51674484  1
  O  O244  1  0.43833706  0.93709200  0.02170105  1
  O  O245  1  0.43024944  0.93706819  0.52786747  1
  O  O246  1  0.76924503  0.25317809  0.01753042  1
  O  O247  1  0.76534726  0.26039118  0.51170053  1
  O  O248  1  0.77323372  0.60462392  0.01418731  1
  O  O249  1  0.76554993  0.58502685  0.51980467  1
  O  O250  1  0.75835249  0.92753976  0.03169521  1
  O  O251  1  0.77252645  0.93721242  0.51042460  1
  O  O252  1  0.23206041  0.07083391  0.27224605  1
  O  O253  1  0.24775360  0.08136074  0.78067863  1
  O  O254  1  0.24556712  0.40612133  0.26070941  1
  O  O255  1  0.23498813  0.40265463  0.76472399  1
  O  O256  1  0.23247798  0.73862196  0.27573626  1
  O  O257  1  0.23972372  0.74881042  0.77068111  1
  O  O258  1  0.56932569  0.08079673  0.26169081  1
  O  O259  1  0.57112581  0.06343191  0.77430906  1
  O  O260  1  0.56921595  0.40486600  0.27381770  1
  O  O261  1  0.58275890  0.41020052  0.78199805  1
  O  O262  1  0.57653271  0.74286210  0.26347344  1
  O  O263  1  0.56554388  0.74680913  0.78410606  1
  O  O264  1  0.91460545  0.06820932  0.28117923  1
  O  O265  1  0.91585816  0.08148195  0.76967686  1
  O  O266  1  0.90135757  0.39336785  0.27822136  1
  O  O267  1  0.90132775  0.40034280  0.77080171  1
  O  O268  1  0.91540073  0.74438033  0.28312352  1
  O  O269  1  0.89803935  0.74111663  0.77530093  1
  O  O270  1  0.26332611  0.23592945  0.26149271  1
  O  O271  1  0.26325268  0.23655273  0.77643738  1
  O  O272  1  0.25333864  0.58261614  0.26467956  1
  O  O273  1  0.25262503  0.57124027  0.76616896  1
  O  O274  1  0.25833692  0.90993640  0.27065985  1
  O  O275  1  0.26490901  0.90682992  0.77783350  1
  O  O276  1  0.58497683  0.24951162  0.27645981  1
  O  O277  1  0.59846804  0.22732060  0.77856832  1
  O  O278  1  0.59219215  0.56124648  0.27303664  1
  O  O279  1  0.59458345  0.57552174  0.78903137  1
  O  O280  1  0.60765744  0.89842184  0.26843236  1
  O  O281  1  0.59391878  0.90425682  0.78246464  1
  O  O282  1  0.93700703  0.23223963  0.26833693  1
  O  O283  1  0.93006952  0.24222918  0.77428413  1
  O  O284  1  0.92400312  0.56336977  0.26849121  1
  O  O285  1  0.91776414  0.57563813  0.76512761  1
  O  O286  1  0.94107188  0.90791357  0.27679565  1
  O  O287  1  0.92357734  0.90175198  0.76793536  1
  O  O288  1  0.26039993  0.23900202  0.48342814  1
  O  O289  1  0.26606623  0.23972384  0.98361932  1
  O  O290  1  0.25008264  0.57402829  0.48518419  1
  O  O291  1  0.25237313  0.57489603  0.98557481  1
  O  O292  1  0.25395995  0.90155785  0.48316895  1
  O  O293  1  0.27193082  0.90720509  0.98112464  1
  O  O294  1  0.59225644  0.23457961  0.48468351  1
  O  O295  1  0.59933239  0.23355795  0.97377878  1
  O  O296  1  0.60598537  0.56027219  0.47613732  1
  O  O297  1  0.59017601  0.56794637  0.97144549  1
  O  O298  1  0.60091818  0.90655011  0.47557801  1
  O  O299  1  0.59078121  0.89879488  0.96578950  1
  O  O300  1  0.93254797  0.23645895  0.47402397  1
  O  O301  1  0.92725624  0.23218692  0.97148018  1
  O  O302  1  0.93476084  0.57288648  0.48425989  1
  O  O303  1  0.93106526  0.57090033  0.98057008  1
  O  O304  1  0.93254830  0.90481280  0.46243448  1
  O  O305  1  0.92447953  0.91453150  0.99307659  1
  O  O306  1  0.23098701  0.06406853  0.48380465  1
  O  O307  1  0.24856400  0.07282524  0.98068178  1
  O  O308  1  0.23386374  0.41098578  0.48973259  1
  O  O309  1  0.23541215  0.40965566  0.98250325  1
  O  O310  1  0.22251964  0.73524551  0.48041789  1
  O  O311  1  0.24271050  0.74789500  0.97944119  1
  O  O312  1  0.57018359  0.07458761  0.48653221  1
  O  O313  1  0.56966311  0.07141073  0.97106770  1
  O  O314  1  0.57173249  0.39923457  0.46491057  1
  O  O315  1  0.57225032  0.41134891  0.98437760  1
  O  O316  1  0.57752327  0.74507366  0.48523859  1
  O  O317  1  0.55840925  0.74116485  0.96642850  1
  O  O318  1  0.90247641  0.07490328  0.47070741  1
  O  O319  1  0.90954644  0.07796330  0.97613558  1
  O  O320  1  0.90173334  0.39812737  0.47711564  1
  O  O321  1  0.89865186  0.39790627  0.97547053  1
  O  O322  1  0.91861154  0.74102550  0.47534267  1
  O  O323  1  0.89790205  0.72546821  0.97922831  1
  O  O324  1  0.09181775  0.25721413  0.22363100  1
  O  O325  1  0.10044733  0.26331034  0.72544652  1
  O  O326  1  0.08560946  0.58709006  0.23128784  1
  O  O327  1  0.09848468  0.59373620  0.73128677  1
  O  O328  1  0.09674993  0.92945217  0.22816979  1
  O  O329  1  0.10062288  0.92573733  0.72290660  1
  O  O330  1  0.42213689  0.25749382  0.22838056  1
  O  O331  1  0.42384819  0.26608489  0.72460013  1
  O  O332  1  0.42231918  0.59555908  0.23310286  1
  O  O333  1  0.43056048  0.59406153  0.74016914  1
  O  O334  1  0.42431290  0.93411936  0.22041404  1
  O  O335  1  0.43306332  0.93691054  0.73342845  1
  O  O336  1  0.75753642  0.26099123  0.24193546  1
  O  O337  1  0.75480846  0.25076857  0.72058758  1
  O  O338  1  0.77224934  0.58669183  0.22781026  1
  O  O339  1  0.76110939  0.58736789  0.72936006  1
  O  O340  1  0.76987686  0.92891309  0.21073109  1
  O  O341  1  0.75839597  0.92775391  0.73170649  1
  O  O342  1  0.06796473  0.10146185  0.22403894  1
  O  O343  1  0.08385397  0.09047368  0.73506302  1
  O  O344  1  0.06341594  0.42386476  0.23057094  1
  O  O345  1  0.07749797  0.42203359  0.72753592  1
  O  O346  1  0.07217524  0.77081805  0.23082584  1
  O  O347  1  0.07609711  0.76660706  0.72770845  1
  O  O348  1  0.40186436  0.09680843  0.22177422  1
  O  O349  1  0.40896677  0.08382736  0.72355399  1
  O  O350  1  0.40375628  0.42534913  0.22900457  1
  O  O351  1  0.40705987  0.41648286  0.72868293  1
  O  O352  1  0.39698390  0.76486923  0.22906906  1
  O  O353  1  0.40749108  0.77165717  0.74335397  1
  O  O354  1  0.75216632  0.08691864  0.21537635  1
  O  O355  1  0.72782190  0.09167773  0.73217870  1
  O  O356  1  0.73934578  0.42807204  0.23698433  1
  O  O357  1  0.73913063  0.43264646  0.72366785  1
  O  O358  1  0.74599974  0.75557563  0.20959591  1
  O  O359  1  0.74096205  0.76676238  0.73521752  1
