# generated using pymatgen
data_BaLaInIrO6
_symmetry_space_group_name_H-M   'P 1'
_cell_length_a   17.51142056
_cell_length_b   17.54394442
_cell_length_c   16.48714370
_cell_angle_alpha   90.01529998
_cell_angle_beta   90.00893895
_cell_angle_gamma   89.98405004
_symmetry_Int_Tables_number   1
_chemical_formula_structural   BaLaInIrO6
_chemical_formula_sum   'Ba36 La36 In36 Ir36 O216'
_cell_volume   5065.16977584
_cell_formula_units_Z   36
loop_
 _symmetry_equiv_pos_site_id
 _symmetry_equiv_pos_as_xyz
  1  'x, y, z'
loop_
 _atom_site_type_symbol
 _atom_site_label
 _atom_site_symmetry_multiplicity
 _atom_site_fract_x
 _atom_site_fract_y
 _atom_site_fract_z
 _atom_site_occupancy
  Ba  Ba0  1  0.33348331  0.82483376  0.87665546  1
  Ba  Ba1  1  -0.00044380  0.15955895  0.87555826  1
  Ba  Ba2  1  0.66607867  0.50923644  0.62365992  1
  Ba  Ba3  1  0.49809521  0.67459900  0.61972678  1
  Ba  Ba4  1  0.66841867  0.84356729  0.62756474  1
  Ba  Ba5  1  0.16168798  0.00702001  0.62320914  1
  Ba  Ba6  1  0.83680803  0.67202146  0.12931509  1
  Ba  Ba7  1  0.66623872  0.82470510  0.87356425  1
  Ba  Ba8  1  -0.00216463  0.48875979  0.37498794  1
  Ba  Ba9  1  0.67217605  0.16096079  0.37297593  1
  Ba  Ba10  1  1.00305602  0.51217161  0.61928147  1
  Ba  Ba11  1  0.16602166  0.34756594  0.62528800  1
  Ba  Ba12  1  0.16528241  0.67259752  0.62567867  1
  Ba  Ba13  1  0.66647538  0.49013315  0.87464209  1
  Ba  Ba14  1  0.66409305  0.17382957  0.62342734  1
  Ba  Ba15  1  0.33015420  0.15646656  0.37678811  1
  Ba  Ba16  1  0.66730126  0.49381141  0.36952726  1
  Ba  Ba17  1  -0.00308132  0.82276071  0.87205856  1
  Ba  Ba18  1  0.66579733  0.17490233  0.12561583  1
  Ba  Ba19  1  0.16507438  0.32618541  0.87796816  1
  Ba  Ba20  1  0.83269449  0.00668452  0.62166229  1
  Ba  Ba21  1  0.49765660  0.34135913  0.62026495  1
  Ba  Ba22  1  0.83419241  0.34333400  0.12110285  1
  Ba  Ba23  1  0.83874720  0.65710627  0.37402917  1
  Ba  Ba24  1  0.49972253  0.66203620  0.37177281  1
  Ba  Ba25  1  0.50167547  0.67304247  0.12875014  1
  Ba  Ba26  1  0.33204892  0.84173973  0.12318266  1
  Ba  Ba27  1  0.83584950  0.32621190  0.87597116  1
  Ba  Ba28  1  0.16812609  0.31943703  0.38077641  1
  Ba  Ba29  1  0.83625088  0.65841334  0.87435323  1
  Ba  Ba30  1  0.00300849  0.81660346  0.37739847  1
  Ba  Ba31  1  0.50082086  0.00797694  0.62604065  1
  Ba  Ba32  1  1.00412579  0.51386744  0.12302974  1
  Ba  Ba33  1  0.16509538  0.66108223  0.87370170  1
  Ba  Ba34  1  0.99929129  0.83858487  0.62325486  1
  Ba  Ba35  1  0.33488751  0.17931463  0.12828584  1
  La  La36  1  0.32951295  0.48132013  0.37723872  1
  La  La37  1  0.66714450  0.15553010  0.87469367  1
  La  La38  1  0.33289994  0.51162108  0.12889048  1
  La  La39  1  0.32253194  0.14942298  0.87415384  1
  La  La40  1  0.82658170  0.34789544  0.62314191  1
  La  La41  1  1.00781452  0.18496041  0.12648287  1
  La  La42  1  0.15874897  0.35145509  0.13276193  1
  La  La43  1  0.67307532  0.84069059  0.12606020  1
  La  La44  1  0.66275294  0.82626710  0.38108030  1
  La  La45  1  0.83326265  0.32972601  0.37931414  1
  La  La46  1  0.33760528  0.51481648  0.62208640  1
  La  La47  1  0.50476086  0.98620424  0.87834654  1
  La  La48  1  -0.00872309  0.49253655  0.86894670  1
  La  La49  1  0.83207432  0.00930940  0.12456754  1
  La  La50  1  -0.00537159  0.15260985  0.37732227  1
  La  La51  1  0.50153020  0.32010409  0.37371175  1
  La  La52  1  0.51071783  0.65212677  0.87294316  1
  La  La53  1  0.67407270  0.51615544  0.12294800  1
  La  La54  1  0.32819512  0.49259473  0.86835052  1
  La  La55  1  0.49601412  0.34646306  0.12838947  1
  La  La56  1  0.32531439  0.81608001  0.37337229  1
  La  La57  1  0.34012452  0.18319290  0.62110095  1
  La  La58  1  0.16155877  0.01456857  0.12531671  1
  La  La59  1  0.16861308  0.98282798  0.87289527  1
  La  La60  1  0.83528454  0.98981597  0.86634372  1
  La  La61  1  0.15712460  0.68415642  0.12459029  1
  La  La62  1  1.00362827  0.84390559  0.12370294  1
  La  La63  1  0.33881866  0.85107485  0.62377315  1
  La  La64  1  0.83025347  0.68512058  0.62402339  1
  La  La65  1  0.50030439  0.98833497  0.37695205  1
  La  La66  1  0.83787066  0.98029010  0.37668968  1
  La  La67  1  0.17030373  0.98615380  0.37562344  1
  La  La68  1  0.16772385  0.64526504  0.37704473  1
  La  La69  1  0.50619441  0.31716309  0.87552079  1
  La  La70  1  1.00443750  0.18437185  0.62596116  1
  La  La71  1  0.49385576  0.01233121  0.12508191  1
  In  In72  1  0.83584041  0.49679617  0.24758056  1
  In  In73  1  0.83593312  0.16429998  0.00093925  1
  In  In74  1  0.16512593  0.16475307  0.25444087  1
  In  In75  1  0.16820715  0.50279781  -0.00384815  1
  In  In76  1  0.00041135  0.00082713  -0.00063224  1
  In  In77  1  0.50145059  0.83166589  0.00217232  1
  In  In78  1  0.66621958  0.33063642  0.75077097  1
  In  In79  1  0.16789427  0.83165930  0.74769656  1
  In  In80  1  0.16843392  0.83124861  0.49914783  1
  In  In81  1  0.00176065  0.00351424  0.74637258  1
  In  In82  1  0.66835989  0.66502019  0.74931172  1
  In  In83  1  0.33229651  -0.00138734  0.25034655  1
  In  In84  1  0.00287625  0.33577723  -0.00026278  1
  In  In85  1  0.49547949  0.16624660  -0.00103003  1
  In  In86  1  0.49638200  0.16340217  0.75165237  1
  In  In87  1  0.66669295  0.00247363  0.49942866  1
  In  In88  1  0.33386940  0.33411633  0.75228699  1
  In  In89  1  0.16738186  0.16718034  0.74799052  1
  In  In90  1  0.66633878  -0.00034898  0.25273300  1
  In  In91  1  0.49644860  0.49712481  0.00361818  1
  In  In92  1  0.49544121  0.49737241  0.74890106  1
  In  In93  1  0.33559499  0.66593228  0.00031671  1
  In  In94  1  0.33453723  0.33469023  0.00201250  1
  In  In95  1  0.33497853  0.67034046  0.74951915  1
  In  In96  1  0.83593467  0.83160015  0.00237756  1
  In  In97  1  0.83248355  0.50442559  0.50082045  1
  In  In98  1  0.66943290  0.67041146  0.25244417  1
  In  In99  1  0.83685220  0.16792182  0.50233631  1
  In  In100  1  0.66563047  -0.00144717  0.00431970  1
  In  In101  1  0.49860305  0.83358200  0.74846213  1
  In  In102  1  0.83720468  0.16658095  0.24816441  1
  In  In103  1  0.66535520  0.33367259  0.49725453  1
  In  In104  1  0.49947802  0.50055233  0.49466107  1
  In  In105  1  0.49962510  0.83538914  0.25061507  1
  In  In106  1  0.49921953  0.49950478  0.24987326  1
  In  In107  1  0.66627521  0.33186461  0.00041031  1
  Ir  Ir108  1  0.16656342  0.83646889  0.00572678  1
  Ir  Ir109  1  0.49797526  0.16771239  0.25261651  1
  Ir  Ir110  1  0.33290875  0.00013216  0.50008387  1
  Ir  Ir111  1  0.83547013  0.16756544  0.74842455  1
  Ir  Ir112  1  0.00222410  0.66793380  -0.00013676  1
  Ir  Ir113  1  0.32999964  0.33419469  0.25035841  1
  Ir  Ir114  1  0.83530915  0.83246049  0.49704551  1
  Ir  Ir115  1  0.00593362  0.66919032  0.24901308  1
  Ir  Ir116  1  0.66861917  0.67384002  0.50016442  1
  Ir  Ir117  1  0.49315235  0.83602353  0.49711519  1
  Ir  Ir118  1  0.16582938  0.16236786  0.50157096  1
  Ir  Ir119  1  0.32979831  0.33170392  0.49771745  1
  Ir  Ir120  1  0.16858116  0.49877514  0.49891297  1
  Ir  Ir121  1  0.83487831  0.50456547  -0.00243798  1
  Ir  Ir122  1  -0.00335855  0.33586097  0.74522113  1
  Ir  Ir123  1  0.66323590  0.33144570  0.24794445  1
  Ir  Ir124  1  0.00465347  0.33055511  0.25478558  1
  Ir  Ir125  1  -0.00336186  0.66424792  0.74824455  1
  Ir  Ir126  1  0.84041826  0.83406790  0.25044954  1
  Ir  Ir127  1  0.16551394  0.83368693  0.25005626  1
  Ir  Ir128  1  0.83390920  0.83540647  0.74830875  1
  Ir  Ir129  1  0.32834599  0.00116656  0.00017338  1
  Ir  Ir130  1  0.16042646  0.49988466  0.74981537  1
  Ir  Ir131  1  0.32969139  0.66632195  0.49338172  1
  Ir  Ir132  1  0.49373385  0.16511856  0.49470278  1
  Ir  Ir133  1  0.00179211  0.00091234  0.49387490  1
  Ir  Ir134  1  0.16907616  0.16388980  0.00258178  1
  Ir  Ir135  1  0.00135354  0.66576753  0.49977471  1
  Ir  Ir136  1  0.66739331  0.66525891  -0.00064905  1
  Ir  Ir137  1  0.32382710  0.66525027  0.25260163  1
  Ir  Ir138  1  0.67079840  0.00324792  0.75345377  1
  Ir  Ir139  1  0.33173795  0.00180217  0.75113435  1
  Ir  Ir140  1  0.00372327  0.32788473  0.49964017  1
  Ir  Ir141  1  0.16931189  0.49978676  0.25365441  1
  Ir  Ir142  1  -0.00026335  -0.00308340  0.25217701  1
  Ir  Ir143  1  0.83714410  0.50038758  0.74808517  1
  O  O144  1  0.29354131  0.33188674  0.13332057  1
  O  O145  1  0.31212093  0.32095692  0.61777878  1
  O  O146  1  0.29097986  0.65514545  0.13564937  1
  O  O147  1  0.31134571  0.65583830  0.61215301  1
  O  O148  1  0.29777094  0.99911976  0.12003016  1
  O  O149  1  0.30837241  0.98921903  0.62662600  1
  O  O150  1  0.63205843  0.32800328  0.12998190  1
  O  O151  1  0.65023298  0.33104135  0.62474468  1
  O  O152  1  0.65348455  0.66397533  0.11941330  1
  O  O153  1  0.65093276  0.67283526  0.61883344  1
  O  O154  1  0.62875322  0.98178577  0.13137583  1
  O  O155  1  0.65209580  1.00207272  0.63124029  1
  O  O156  1  0.98940872  0.32868675  0.13498984  1
  O  O157  1  0.96933679  0.32586621  0.62141789  1
  O  O158  1  0.98610773  0.67956434  0.12432945  1
  O  O159  1  0.96888300  0.66816806  0.62397278  1
  O  O160  1  0.96947362  0.98597764  0.13404969  1
  O  O161  1  0.98195444  0.99543422  0.61328083  1
  O  O162  1  0.18629009  0.15263844  0.12272623  1
  O  O163  1  0.20125982  0.16050148  0.61919121  1
  O  O164  1  0.19457439  0.49236380  0.13269621  1
  O  O165  1  0.19614621  0.50158873  0.62344225  1
  O  O166  1  0.18469039  0.82152021  0.12936543  1
  O  O167  1  0.20107826  0.83345982  0.62115568  1
  O  O168  1  0.51645706  0.15161423  0.13291730  1
  O  O169  1  0.51131511  0.16199702  0.61516687  1
  O  O170  1  0.53967816  0.48426466  0.12853144  1
  O  O171  1  0.51488723  0.49692742  0.61911530  1
  O  O172  1  0.53735278  0.83117563  0.12695015  1
  O  O173  1  0.51668681  0.83677551  0.61580875  1
  O  O174  1  0.87584724  0.14656282  0.12782147  1
  O  O175  1  0.86835012  0.16002856  0.62978140  1
  O  O176  1  0.85306837  0.50317464  0.11765882  1
  O  O177  1  0.85557360  0.48815324  0.62889277  1
  O  O178  1  0.86991036  0.82905132  0.13334393  1
  O  O179  1  0.85327144  0.82302576  0.62235995  1
  O  O180  1  0.13310785  0.16143585  0.38218407  1
  O  O181  1  0.14972243  0.16638050  0.88379258  1
  O  O182  1  0.14431283  0.50669402  0.37631262  1
  O  O183  1  0.12783569  0.50146456  0.86791313  1
  O  O184  1  0.15008003  0.84758230  0.36947394  1
  O  O185  1  0.14785765  0.84513293  0.88536775  1
  O  O186  1  0.47495545  0.18179008  0.37315739  1
  O  O187  1  0.45580501  0.17723753  0.87557438  1
  O  O188  1  0.46413473  0.50135870  0.37212719  1
  O  O189  1  0.46416190  0.51706917  0.87862142  1
  O  O190  1  0.46060254  0.84502728  0.37879410  1
  O  O191  1  0.48036071  0.85014788  0.87453305  1
  O  O192  1  0.82767063  0.18959136  0.37299152  1
  O  O193  1  0.80568301  0.17134774  0.86807534  1
  O  O194  1  0.82163878  0.49016554  0.37405350  1
  O  O195  1  0.81814592  0.50310654  0.87261591  1
  O  O196  1  0.80585214  0.84016472  0.37288806  1
  O  O197  1  0.81839785  0.84770587  0.87112768  1
  O  O198  1  0.03494738  0.01151650  0.37176507  1
  O  O199  1  0.03432037  0.00463473  0.87488859  1
  O  O200  1  0.02219233  0.32391429  0.37678955  1
  O  O201  1  0.01420323  0.34478992  0.86724980  1
  O  O202  1  0.03242909  0.66230388  0.37367388  1
  O  O203  1  0.01737160  0.65610371  0.87433092  1
  O  O204  1  0.36246746  0.00245236  0.38094509  1
  O  O205  1  0.36254976  0.01025177  0.87430735  1
  O  O206  1  0.36188441  0.34147732  0.37331578  1
  O  O207  1  0.37152716  0.35365147  0.87671094  1
  O  O208  1  0.35070408  0.67732792  0.37298260  1
  O  O209  1  0.37465149  0.66934913  0.87459339  1
  O  O210  1  0.70226811  0.00106520  0.37572303  1
  O  O211  1  0.69984719  0.01026088  0.87301315  1
  O  O212  1  0.69619420  0.33368386  0.36670700  1
  O  O213  1  0.68943979  0.33512913  0.87428673  1
  O  O214  1  0.69114635  0.68398664  0.38236615  1
  O  O215  1  0.68466670  0.66360318  0.88077236  1
  O  O216  1  0.07323489  0.09816324  0.03056057  1
  O  O217  1  0.06605489  0.09793425  0.52019158  1
  O  O218  1  0.08435487  0.41979275  0.02380457  1
  O  O219  1  0.07439653  0.42567156  0.51410674  1
  O  O220  1  0.07116954  0.76661184  0.02555916  1
  O  O221  1  0.07331900  0.75432385  0.51471810  1
  O  O222  1  0.39796958  0.08834527  0.01889504  1
  O  O223  1  0.39747616  0.09639620  0.52226166  1
  O  O224  1  0.40508364  0.42531539  0.04808007  1
  O  O225  1  0.39132920  0.42799104  0.51447780  1
  O  O226  1  0.40804813  0.75933198  0.02326304  1
  O  O227  1  0.39173962  0.76774047  0.51428464  1
  O  O228  1  0.74382430  0.08644700  0.02626250  1
  O  O229  1  0.74210406  0.09546888  0.51424325  1
  O  O230  1  0.73919727  0.43812417  0.02130343  1
  O  O231  1  0.74342020  0.42655293  0.51621488  1
  O  O232  1  0.73361326  0.76123114  0.01957034  1
  O  O233  1  0.74390156  0.76246734  0.52224247  1
  O  O234  1  0.10497519  0.25803981  0.02942011  1
  O  O235  1  0.09621126  0.25371062  0.52788289  1
  O  O236  1  0.09721544  0.60281848  0.02382111  1
  O  O237  1  0.10040686  0.59606608  0.51012545  1
  O  O238  1  0.09979321  0.92894882  0.03037975  1
  O  O239  1  0.09325665  0.93097024  0.50438090  1
  O  O240  1  0.43347246  0.26665248  0.02977875  1
  O  O241  1  0.42071185  0.25749777  0.51563121  1
  O  O242  1  0.41771886  0.58444070  0.04066358  1
  O  O243  1  0.41715772  0.59507511  0.51116721  1
  O  O244  1  0.42449925  0.93777781  0.02308899  1
  O  O245  1  0.42258828  0.92742115  0.52355337  1
  O  O246  1  0.76085052  0.25730106  0.02022592  1
  O  O247  1  0.77316524  0.27074985  0.51430633  1
  O  O248  1  0.75968352  0.59320473  0.02055867  1
  O  O249  1  0.76049285  0.60527735  0.52192717  1
  O  O250  1  0.75947927  0.92110434  0.03729418  1
  O  O251  1  0.76274024  0.92005009  0.50883557  1
  O  O252  1  0.22926719  0.06239503  0.26840507  1
  O  O253  1  0.23793291  0.06698454  0.77814618  1
  O  O254  1  0.23885868  0.40615719  0.27687014  1
  O  O255  1  0.23131075  0.41288864  0.77026486  1
  O  O256  1  0.22910324  0.73582405  0.27845570  1
  O  O257  1  0.23996112  0.73983554  0.76845300  1
  O  O258  1  0.56179535  0.07298840  0.27530383  1
  O  O259  1  0.57648712  0.06922558  0.78126383  1
  O  O260  1  0.56806988  0.39432157  0.27357869  1
  O  O261  1  0.56178131  0.39717719  0.77494136  1
  O  O262  1  0.58381507  0.75247492  0.27582343  1
  O  O263  1  0.56983681  0.73763769  0.77019093  1
  O  O264  1  0.90949282  0.06265458  0.28208064  1
  O  O265  1  0.89961400  0.07347012  0.77346462  1
  O  O266  1  0.90680818  0.39314073  0.27093528  1
  O  O267  1  0.90667264  0.40838663  0.76701504  1
  O  O268  1  0.91091314  0.73951274  0.27040404  1
  O  O269  1  0.90210944  0.73620309  0.75883143  1
  O  O270  1  0.26134751  0.24295343  0.26954231  1
  O  O271  1  0.26366520  0.23578803  0.77380382  1
  O  O272  1  0.26118913  0.56815093  0.28140078  1
  O  O273  1  0.25367415  0.56589472  0.76871954  1
  O  O274  1  0.26115251  0.89899982  0.27434481  1
  O  O275  1  0.26241824  0.91345065  0.77088573  1
  O  O276  1  0.58935349  0.24050967  0.27337627  1
  O  O277  1  0.59640026  0.22967851  0.77790188  1
  O  O278  1  0.58839822  0.57966836  0.26166581  1
  O  O279  1  0.58843176  0.57624532  0.76871778  1
  O  O280  1  0.59119409  0.91063725  0.29336832  1
  O  O281  1  0.59564452  0.91740102  0.76857002  1
  O  O282  1  0.94647813  0.23135828  0.26342323  1
  O  O283  1  0.93165814  0.23583991  0.76056067  1
  O  O284  1  0.93426971  0.57851495  0.25908227  1
  O  O285  1  0.93109001  0.56808819  0.76763808  1
  O  O286  1  0.93081893  0.90519182  0.27695373  1
  O  O287  1  0.91957370  0.91146006  0.76436684  1
  O  O288  1  0.26075541  0.23235533  0.48545784  1
  O  O289  1  0.26478406  0.22879432  0.97860589  1
  O  O290  1  0.26399908  0.56866468  0.47161769  1
  O  O291  1  0.26335682  0.57235558  0.96996406  1
  O  O292  1  0.26694782  0.90755232  0.47302152  1
  O  O293  1  0.25591869  0.91175618  0.97865391  1
  O  O294  1  0.58386035  0.23712708  0.47722516  1
  O  O295  1  0.59516186  0.23175475  0.96956070  1
  O  O296  1  0.59660129  0.58557472  0.48085009  1
  O  O297  1  0.59553589  0.57482569  0.98666186  1
  O  O298  1  0.58456815  0.90792307  0.47440617  1
  O  O299  1  0.59046636  0.91010907  0.97492480  1
  O  O300  1  0.94577478  0.22992718  0.48727682  1
  O  O301  1  0.93560620  0.23802971  0.99719187  1
  O  O302  1  0.93043097  0.57697775  0.48426755  1
  O  O303  1  0.93554922  0.57044345  0.97792959  1
  O  O304  1  0.92565349  0.91012701  0.46951920  1
  O  O305  1  0.93432298  0.90043562  0.99282962  1
  O  O306  1  0.23419427  0.06537783  0.47465137  1
  O  O307  1  0.23185810  0.06616891  0.97506966  1
  O  O308  1  0.24173584  0.40901776  0.47532528  1
  O  O309  1  0.24838933  0.41430337  0.97268624  1
  O  O310  1  0.23788723  0.73364033  0.46714459  1
  O  O311  1  0.23369098  0.74385444  0.99320118  1
  O  O312  1  0.56139429  0.07231378  0.47328376  1
  O  O313  1  0.56706318  0.06973065  0.97540813  1
  O  O314  1  0.56797193  0.40233474  0.46817826  1
  O  O315  1  0.56123851  0.39530961  0.97763326  1
  O  O316  1  0.57591861  0.75185520  0.47249857  1
  O  O317  1  0.57399982  0.72964371  0.97651135  1
  O  O318  1  0.91038819  0.06850260  0.46823573  1
  O  O319  1  0.89857041  0.06162639  0.97280126  1
  O  O320  1  0.90858134  0.39208271  0.48267192  1
  O  O321  1  0.91088460  0.41878817  0.98216784  1
  O  O322  1  0.90506448  0.73547730  0.48853295  1
  O  O323  1  0.91056410  0.73460499  0.98510248  1
  O  O324  1  0.09854299  0.26379320  0.22789084  1
  O  O325  1  0.08564943  0.26381386  0.73005852  1
  O  O326  1  0.10515394  0.60146576  0.23154841  1
  O  O327  1  0.08993416  0.59230345  0.73086236  1
  O  O328  1  0.09812560  0.93048856  0.22349333  1
  O  O329  1  0.09471110  0.92542071  0.73964386  1
  O  O330  1  0.43028444  0.26856649  0.23110087  1
  O  O331  1  0.42527780  0.25814459  0.72668633  1
  O  O332  1  0.41022465  0.59176191  0.22866647  1
  O  O333  1  0.41830432  0.59054742  0.72166216  1
  O  O334  1  0.43240440  0.93469919  0.22486555  1
  O  O335  1  0.42196326  0.93414785  0.73483988  1
  O  O336  1  0.75638127  0.26389599  0.23149935  1
  O  O337  1  0.77267663  0.26007140  0.72194237  1
  O  O338  1  0.75460206  0.58602921  0.23554524  1
  O  O339  1  0.77155599  0.59359997  0.72513627  1
  O  O340  1  0.77154611  0.92402376  0.22599960  1
  O  O341  1  0.76518302  0.93209246  0.73608120  1
  O  O342  1  0.06430531  0.09012085  0.22441222  1
  O  O343  1  0.06842217  0.10286429  0.72272268  1
  O  O344  1  0.07692739  0.42659774  0.23151426  1
  O  O345  1  0.06439037  0.43019858  0.73131109  1
  O  O346  1  0.07146552  0.76551934  0.22616723  1
  O  O347  1  0.06857096  0.75274548  0.73617624  1
  O  O348  1  0.40939351  0.09554039  0.23497215  1
  O  O349  1  0.39230546  0.09664260  0.72853592  1
  O  O350  1  0.39751887  0.42517535  0.22756928  1
  O  O351  1  0.38864245  0.43739829  0.72549521  1
  O  O352  1  0.39507259  0.75747580  0.24052806  1
  O  O353  1  0.39877105  0.77101323  0.71817424  1
  O  O354  1  0.74861249  0.08542971  0.22472635  1
  O  O355  1  0.73937460  0.10072576  0.73694880  1
  O  O356  1  0.72811602  0.42458413  0.22297215  1
  O  O357  1  0.74958305  0.42813799  0.73180433  1
  O  O358  1  0.74577331  0.77024612  0.22817587  1
  O  O359  1  0.74812403  0.75898060  0.73394993  1
