# generated using pymatgen
data_BaLaInIrO6
_symmetry_space_group_name_H-M   'P 1'
_cell_length_a   17.50517042
_cell_length_b   17.53925611
_cell_length_c   16.49772883
_cell_angle_alpha   90.05201124
_cell_angle_beta   90.01678453
_cell_angle_gamma   90.00283159
_symmetry_Int_Tables_number   1
_chemical_formula_structural   BaLaInIrO6
_chemical_formula_sum   'Ba36 La36 In36 Ir36 O216'
_cell_volume   5065.25688784
_cell_formula_units_Z   36
loop_
 _symmetry_equiv_pos_site_id
 _symmetry_equiv_pos_as_xyz
  1  'x, y, z'
loop_
 _atom_site_type_symbol
 _atom_site_label
 _atom_site_symmetry_multiplicity
 _atom_site_fract_x
 _atom_site_fract_y
 _atom_site_fract_z
 _atom_site_occupancy
  Ba  Ba0  1  0.66697365  0.84329922  0.12694086  1
  Ba  Ba1  1  1.00010237  0.84308734  0.12626613  1
  Ba  Ba2  1  0.50327575  0.99144195  0.87583948  1
  Ba  Ba3  1  0.33549313  0.50980595  0.12495885  1
  Ba  Ba4  1  0.83273781  0.33928911  0.13007921  1
  Ba  Ba5  1  0.83055368  0.66178466  0.87640079  1
  Ba  Ba6  1  0.66824149  0.16245749  0.87304728  1
  Ba  Ba7  1  1.00206941  0.84075278  0.62910201  1
  Ba  Ba8  1  0.66649686  0.49366187  0.38008078  1
  Ba  Ba9  1  0.49645037  0.67465568  0.62410362  1
  Ba  Ba10  1  0.66362208  0.82657934  0.87302206  1
  Ba  Ba11  1  0.33699400  0.17581974  0.12389696  1
  Ba  Ba12  1  0.83289676  0.99403689  0.87706570  1
  Ba  Ba13  1  0.82848883  0.67470333  0.62550419  1
  Ba  Ba14  1  0.49723233  0.34461776  0.12312466  1
  Ba  Ba15  1  -0.00256661  0.15862245  0.87295007  1
  Ba  Ba16  1  0.83431791  0.32164897  0.37646384  1
  Ba  Ba17  1  0.66297248  0.50654045  0.62731223  1
  Ba  Ba18  1  0.66236004  0.17378068  0.12620610  1
  Ba  Ba19  1  0.33604865  0.51471261  0.62440705  1
  Ba  Ba20  1  0.50161438  0.99079971  0.37309147  1
  Ba  Ba21  1  0.66519459  0.83901814  0.62367993  1
  Ba  Ba22  1  0.16273605  0.34151469  0.12773262  1
  Ba  Ba23  1  0.50223657  0.32243665  0.87177468  1
  Ba  Ba24  1  0.83092071  0.34028059  0.62818855  1
  Ba  Ba25  1  0.83190918  0.66087398  0.37394320  1
  Ba  Ba26  1  0.83582326  0.99304947  0.37368096  1
  Ba  Ba27  1  0.49927515  0.34512197  0.62953439  1
  Ba  Ba28  1  0.49615816  0.00611887  0.62419869  1
  Ba  Ba29  1  0.16482244  0.67919747  0.62585220  1
  Ba  Ba30  1  -0.00172956  0.15941735  0.37188748  1
  Ba  Ba31  1  0.50675886  0.65868761  0.37433366  1
  Ba  Ba32  1  0.16902729  0.31924686  0.37396611  1
  Ba  Ba33  1  0.16900781  0.00787146  0.62492856  1
  Ba  Ba34  1  0.66385655  0.82316704  0.37339285  1
  Ba  Ba35  1  0.49969272  0.32836650  0.37627230  1
  La  La36  1  0.66244264  0.15680536  0.37396505  1
  La  La37  1  -0.00416574  0.82455658  0.37949863  1
  La  La38  1  0.82766540  0.68280821  0.12736576  1
  La  La39  1  1.00507153  0.51703915  0.62453961  1
  La  La40  1  -0.00415761  0.48198994  0.87383009  1
  La  La41  1  -0.00783526  0.48518530  0.37862709  1
  La  La42  1  -0.00112771  0.81913056  0.87523823  1
  La  La43  1  0.16235653  0.34779028  0.62342353  1
  La  La44  1  0.34117573  0.18135105  0.62597764  1
  La  La45  1  0.33176976  0.81198715  0.87362621  1
  La  La46  1  0.32458639  0.14800238  0.37179222  1
  La  La47  1  0.50741157  0.65392482  0.87562295  1
  La  La48  1  0.34322759  0.84966559  0.12609493  1
  La  La49  1  0.16640591  0.98649457  0.37496179  1
  La  La50  1  0.17216233  0.65133690  0.37212183  1
  La  La51  1  0.99671340  0.17988687  0.62095919  1
  La  La52  1  0.33416483  0.48521504  0.87285700  1
  La  La53  1  0.66120250  0.48819943  0.87266154  1
  La  La54  1  0.82388325  0.32853873  0.87486256  1
  La  La55  1  0.17462141  0.98089631  0.87175774  1
  La  La56  1  0.82897114  0.01762597  0.12462852  1
  La  La57  1  0.34072195  0.49034750  0.37137964  1
  La  La58  1  0.17356528  0.31406761  0.87337021  1
  La  La59  1  0.49867161  0.01491591  0.12299841  1
  La  La60  1  0.16219526  0.01784743  0.12724505  1
  La  La61  1  0.66497043  0.17568464  0.62625414  1
  La  La62  1  0.33213431  0.81322578  0.37234184  1
  La  La63  1  0.33978885  0.84343876  0.62578048  1
  La  La64  1  0.82775298  0.00704161  0.62544443  1
  La  La65  1  0.16729292  0.67666215  0.12452437  1
  La  La66  1  0.99842894  0.17924992  0.12404929  1
  La  La67  1  1.00592527  0.51325093  0.12553850  1
  La  La68  1  0.49834180  0.68149924  0.12961174  1
  La  La69  1  0.67255392  0.51036848  0.13219425  1
  La  La70  1  0.17183830  0.65451248  0.87441124  1
  La  La71  1  0.32925852  0.14784492  0.87443260  1
  In  In72  1  0.33103858  0.33198086  0.49994677  1
  In  In73  1  0.49733918  0.83239350  -0.00270764  1
  In  In74  1  0.83543981  0.83614505  0.50034690  1
  In  In75  1  0.00125309  0.33401364  0.25127864  1
  In  In76  1  0.00139154  0.66415896  0.75456927  1
  In  In77  1  0.33213432  0.33299348  -0.00119778  1
  In  In78  1  0.00172009  0.00314008  0.50220074  1
  In  In79  1  0.83514940  0.16637826  0.74758213  1
  In  In80  1  0.16755628  0.49890889  0.75304469  1
  In  In81  1  0.00271867  0.66767769  0.49789642  1
  In  In82  1  0.66484467  0.33353027  0.25400195  1
  In  In83  1  0.66645156  0.00165205  0.49784652  1
  In  In84  1  0.66558159  0.66589001  0.00271544  1
  In  In85  1  0.66501695  0.33758815  0.00338503  1
  In  In86  1  0.16629273  0.16365358  0.74564516  1
  In  In87  1  0.16904957  0.83519127  0.49972630  1
  In  In88  1  0.66730294  0.66585844  0.50081993  1
  In  In89  1  0.00365352  -0.00038470  -0.00146302  1
  In  In90  1  0.49908080  0.50034960  0.50095442  1
  In  In91  1  0.83489373  0.17078233  -0.00014022  1
  In  In92  1  0.83535348  0.83691718  0.00109828  1
  In  In93  1  0.17104840  0.83245994  0.00316305  1
  In  In94  1  0.16776665  0.49819610  0.49725150  1
  In  In95  1  0.49732875  0.83307144  0.49642905  1
  In  In96  1  0.00212180  0.66785489  0.24836440  1
  In  In97  1  0.83391934  0.83605912  0.75249854  1
  In  In98  1  0.49843990  0.16731880  -0.00404918  1
  In  In99  1  0.83487165  0.50144439  0.00382625  1
  In  In100  1  0.33194338  0.33150684  0.24935614  1
  In  In101  1  0.83219296  0.49867813  0.75113585  1
  In  In102  1  0.16538203  0.16480017  -0.00196144  1
  In  In103  1  0.49740234  0.16651128  0.49845584  1
  In  In104  1  0.16807298  0.16474818  0.50168589  1
  In  In105  1  0.16543885  0.49874777  -0.00149871  1
  In  In106  1  0.66614187  0.00006396  0.00062644  1
  In  In107  1  0.16851231  0.83399606  0.24622665  1
  Ir  Ir108  1  0.66604235  -0.00007706  0.24893284  1
  Ir  Ir109  1  0.33082842  0.66750414  0.49539383  1
  Ir  Ir110  1  0.33383471  -0.00396271  0.75194424  1
  Ir  Ir111  1  0.49619687  0.16564276  0.74680326  1
  Ir  Ir112  1  0.83224731  0.16794271  0.50054464  1
  Ir  Ir113  1  0.66593277  0.66533782  0.24599646  1
  Ir  Ir114  1  0.83866837  0.50161964  0.25261376  1
  Ir  Ir115  1  0.83335896  0.16257467  0.25278858  1
  Ir  Ir116  1  0.66208275  0.66619766  0.75247691  1
  Ir  Ir117  1  -0.00041570  0.00194312  0.24650057  1
  Ir  Ir118  1  0.50132373  0.50540693  0.24452611  1
  Ir  Ir119  1  0.00245750  0.33397736  0.74950414  1
  Ir  Ir120  1  0.49477403  0.50300582  0.75587629  1
  Ir  Ir121  1  0.16483576  0.15886707  0.24948020  1
  Ir  Ir122  1  0.83512099  0.83624370  0.24997532  1
  Ir  Ir123  1  0.49620750  0.16232933  0.25341675  1
  Ir  Ir124  1  0.33551672  0.66849144  0.75504720  1
  Ir  Ir125  1  0.83751845  0.49488916  0.49914410  1
  Ir  Ir126  1  0.33250499  0.66458260  0.24869473  1
  Ir  Ir127  1  0.33140700  -0.00374039  0.49659806  1
  Ir  Ir128  1  0.33131079  -0.00411562  -0.00103830  1
  Ir  Ir129  1  0.49938104  0.50598254  -0.00066341  1
  Ir  Ir130  1  0.33244321  0.33097840  0.75290494  1
  Ir  Ir131  1  0.17085456  0.83524158  0.75468242  1
  Ir  Ir132  1  0.49473868  0.83397825  0.75050024  1
  Ir  Ir133  1  -0.00207190  0.33468565  0.50603169  1
  Ir  Ir134  1  0.00404643  0.66415125  0.00253969  1
  Ir  Ir135  1  0.33313813  -0.00339071  0.24942189  1
  Ir  Ir136  1  0.33477909  0.66482614  -0.00034625  1
  Ir  Ir137  1  0.00416574  0.00024688  0.75062049  1
  Ir  Ir138  1  0.66280224  0.33368269  0.74605098  1
  Ir  Ir139  1  0.16604224  0.50287849  0.24886041  1
  Ir  Ir140  1  0.66199516  0.00407175  0.74632393  1
  Ir  Ir141  1  0.67068026  0.33041276  0.50156720  1
  Ir  Ir142  1  0.49719572  0.83408518  0.24648955  1
  Ir  Ir143  1  0.00208427  0.33486381  -0.00353341  1
  O  O144  1  0.31304599  0.33771765  0.12563745  1
  O  O145  1  0.30067788  0.32122985  0.63389007  1
  O  O146  1  0.30239130  0.66075086  0.12376058  1
  O  O147  1  0.31161366  0.66910367  0.62329014  1
  O  O148  1  0.29979083  0.98552028  0.12417863  1
  O  O149  1  0.31339696  0.97810127  0.62276434  1
  O  O150  1  0.64851032  0.33375572  0.13052056  1
  O  O151  1  0.64597890  0.31501209  0.62327006  1
  O  O152  1  0.63512352  0.65388614  0.12852691  1
  O  O153  1  0.64829045  0.66526308  0.63425102  1
  O  O154  1  0.63450819  0.99848188  0.13299272  1
  O  O155  1  0.64614603  1.00940654  0.62839096  1
  O  O156  1  0.98676393  0.32552814  0.11966393  1
  O  O157  1  0.97854040  0.32001943  0.62775694  1
  O  O158  1  0.96742289  0.65077213  0.12148231  1
  O  O159  1  0.97903239  0.65362125  0.62596382  1
  O  O160  1  0.96682901  0.99728697  0.13044175  1
  O  O161  1  0.96887277  0.99330706  0.63231663  1
  O  O162  1  0.18689826  0.16021870  0.12953940  1
  O  O163  1  0.20606446  0.16449846  0.62583585  1
  O  O164  1  0.18627695  0.49798533  0.12774977  1
  O  O165  1  0.18654384  0.48506623  0.62802753  1
  O  O166  1  0.20994308  0.81729336  0.12468678  1
  O  O167  1  0.20261857  0.83468647  0.63309031  1
  O  O168  1  0.51211834  0.15378506  0.13317358  1
  O  O169  1  0.52630509  0.16327293  0.62825363  1
  O  O170  1  0.53243644  0.50312898  0.12057951  1
  O  O171  1  0.50936172  0.50138820  0.63488802  1
  O  O172  1  0.51212115  0.82340184  0.12732899  1
  O  O173  1  0.50723441  0.83218603  0.63079274  1
  O  O174  1  0.86143520  0.16017720  0.13219206  1
  O  O175  1  0.86032014  0.15881591  0.62110237  1
  O  O176  1  0.87003281  0.49648195  0.13340112  1
  O  O177  1  0.86657133  0.49685632  0.62042267  1
  O  O178  1  0.85357868  0.82407714  0.13110001  1
  O  O179  1  0.85139495  0.84377789  0.62903712  1
  O  O180  1  0.14931380  0.15395594  0.36929870  1
  O  O181  1  0.14671439  0.17446168  0.87021045  1
  O  O182  1  0.13281887  0.51080305  0.36782204  1
  O  O183  1  0.13127870  0.51672488  0.87615173  1
  O  O184  1  0.13560815  0.84733659  0.36843759  1
  O  O185  1  0.13999881  0.84139054  0.87573126  1
  O  O186  1  0.46322202  0.16662314  0.37111947  1
  O  O187  1  0.46523772  0.16407688  0.86558699  1
  O  O188  1  0.47491082  0.50593431  0.36554628  1
  O  O189  1  0.46750359  0.51655605  0.87872273  1
  O  O190  1  0.46753281  0.83410110  0.36574346  1
  O  O191  1  0.46741776  0.83333723  0.87029155  1
  O  O192  1  0.80118085  0.16521122  0.37768481  1
  O  O193  1  0.82442087  0.18755874  0.87079973  1
  O  O194  1  0.81468908  0.49910645  0.37464153  1
  O  O195  1  0.80067546  0.49506885  0.87735216  1
  O  O196  1  0.81384955  0.83957066  0.36662163  1
  O  O197  1  0.81299497  0.83820255  0.87593752  1
  O  O198  1  0.03053371  0.00607061  0.36452143  1
  O  O199  1  0.04035450  0.00886332  0.86927782  1
  O  O200  1  0.01927382  0.34396648  0.38320886  1
  O  O201  1  0.03469672  0.34445661  0.87199650  1
  O  O202  1  0.03824013  0.68009411  0.37063112  1
  O  O203  1  0.03730035  0.67659839  0.88452667  1
  O  O204  1  0.35428838  0.01381021  0.37388499  1
  O  O205  1  0.35573182  0.01142322  0.87520905  1
  O  O206  1  0.34691174  0.35118310  0.37197194  1
  O  O207  1  0.35493506  0.34529945  0.86951410  1
  O  O208  1  0.35823945  0.67422246  0.37243250  1
  O  O209  1  0.36865581  0.67503645  0.87786173  1
  O  O210  1  0.68784972  0.01345294  0.36711880  1
  O  O211  1  0.67884411  0.00236928  0.86619735  1
  O  O212  1  0.68566797  0.33512978  0.38082566  1
  O  O213  1  0.68756964  0.34708435  0.86777010  1
  O  O214  1  0.68171510  0.66602670  0.36572907  1
  O  O215  1  0.67692798  0.66479769  0.87217078  1
  O  O216  1  0.07116240  0.09759820  0.03350814  1
  O  O217  1  0.06644803  0.10392723  0.52484437  1
  O  O218  1  0.05825360  0.43485642  0.01559023  1
  O  O219  1  0.06127424  0.42848229  0.52653470  1
  O  O220  1  0.07672250  0.75285135  0.02532510  1
  O  O221  1  0.07624301  0.76421771  0.51754355  1
  O  O222  1  0.39783308  0.08727090  0.01466594  1
  O  O223  1  0.39319046  0.09274559  0.52178549  1
  O  O224  1  0.40584379  0.43940688  0.00560367  1
  O  O225  1  0.40127023  0.43221797  0.50499302  1
  O  O226  1  0.39331317  0.76235914  0.02219045  1
  O  O227  1  0.39087139  0.76661103  0.51275100  1
  O  O228  1  0.74219793  0.09444784  0.01811188  1
  O  O229  1  0.74064476  0.10266744  0.52523853  1
  O  O230  1  0.73060017  0.43947515  0.02381471  1
  O  O231  1  0.74334084  0.42322153  0.52081819  1
  O  O232  1  0.74587138  0.75471085  0.02111083  1
  O  O233  1  0.74524013  0.75576937  0.51177493  1
  O  O234  1  0.09713645  0.27054833  0.00742079  1
  O  O235  1  0.09268398  0.26768459  0.52724731  1
  O  O236  1  0.09594318  0.59860313  0.02864091  1
  O  O237  1  0.09272034  0.58793158  0.51758573  1
  O  O238  1  0.10907625  0.93574968  0.02421647  1
  O  O239  1  0.10545962  0.93884630  0.50451602  1
  O  O240  1  0.42529484  0.25955994  0.01333561  1
  O  O241  1  0.42391049  0.25726774  0.52594910  1
  O  O242  1  0.43504768  0.60406649  0.02408007  1
  O  O243  1  0.41965291  0.59927866  0.51026882  1
  O  O244  1  0.42445303  0.93075896  0.02912536  1
  O  O245  1  0.41892160  0.92685904  0.51383846  1
  O  O246  1  0.77050034  0.27406110  0.00156087  1
  O  O247  1  0.76027895  0.25596261  0.52171211  1
  O  O248  1  0.76437159  0.59686341  0.03506968  1
  O  O249  1  0.76602556  0.58167559  0.51343691  1
  O  O250  1  0.76768925  0.93526642  0.02818953  1
  O  O251  1  0.76685266  0.93788374  0.51978754  1
  O  O252  1  0.23308448  0.06042602  0.26765647  1
  O  O253  1  0.24201870  0.06445374  0.77653900  1
  O  O254  1  0.23543115  0.41623217  0.27155527  1
  O  O255  1  0.23802388  0.39803721  0.77643157  1
  O  O256  1  0.24079841  0.73106778  0.27704395  1
  O  O257  1  0.23960713  0.73756124  0.78137306  1
  O  O258  1  0.57588988  0.07518903  0.27228440  1
  O  O259  1  0.56942480  0.07693157  0.76846368  1
  O  O260  1  0.56987726  0.41561642  0.26448513  1
  O  O261  1  0.57432981  0.41587172  0.77312646  1
  O  O262  1  0.56640537  0.73529297  0.25715772  1
  O  O263  1  0.56315809  0.73664630  0.77420885  1
  O  O264  1  0.90628693  0.07190578  0.26592757  1
  O  O265  1  0.90995434  0.06578692  0.76385127  1
  O  O266  1  0.90926686  0.41263304  0.27347043  1
  O  O267  1  0.90713125  0.39702346  0.77752560  1
  O  O268  1  0.90955206  0.74889122  0.26818706  1
  O  O269  1  0.91746338  0.74699646  0.77671045  1
  O  O270  1  0.25919473  0.22646597  0.27162449  1
  O  O271  1  0.26956170  0.23681165  0.77708976  1
  O  O272  1  0.26252338  0.57085405  0.27730601  1
  O  O273  1  0.26733865  0.57536872  0.78152351  1
  O  O274  1  0.27114603  0.90164328  0.27360203  1
  O  O275  1  0.26782749  0.90073594  0.78081580  1
  O  O276  1  0.58805646  0.23153238  0.27733129  1
  O  O277  1  0.58993843  0.23759903  0.76295468  1
  O  O278  1  0.59716041  0.57100871  0.26179511  1
  O  O279  1  0.58952024  0.57218352  0.77986993  1
  O  O280  1  0.59157398  0.90609295  0.26874841  1
  O  O281  1  0.58910424  0.90532181  0.76336202  1
  O  O282  1  0.92157321  0.23829285  0.26170798  1
  O  O283  1  0.93766127  0.24039449  0.75444382  1
  O  O284  1  0.93372277  0.56682207  0.27472835  1
  O  O285  1  0.93178785  0.56396741  0.77775546  1
  O  O286  1  0.93285377  0.90432268  0.27444152  1
  O  O287  1  0.94329197  0.90835725  0.77991284  1
  O  O288  1  0.26790457  0.22721119  0.47333873  1
  O  O289  1  0.26198789  0.23418789  0.96971953  1
  O  O290  1  0.26530418  0.57192125  0.46725639  1
  O  O291  1  0.26798055  0.57295054  0.97074779  1
  O  O292  1  0.26943452  0.90123420  0.46664448  1
  O  O293  1  0.27204589  0.89944673  0.97194277  1
  O  O294  1  0.60368153  0.23844454  0.48156427  1
  O  O295  1  0.59347989  0.24214371  0.98370312  1
  O  O296  1  0.59138677  0.57318672  0.49120021  1
  O  O297  1  0.59396979  0.56696242  0.97533548  1
  O  O298  1  0.58917287  0.91053332  0.48616062  1
  O  O299  1  0.59299140  0.90314833  0.98819870  1
  O  O300  1  0.93018273  0.23742787  0.48804873  1
  O  O301  1  0.94114530  0.23976279  0.99341736  1
  O  O302  1  0.93058587  0.56196064  0.47758437  1
  O  O303  1  0.94038699  0.56830356  0.97707209  1
  O  O304  1  0.93636963  0.90576752  0.47422672  1
  O  O305  1  0.94171632  0.89721453  0.97751493  1
  O  O306  1  0.23867988  0.06120852  0.47349309  1
  O  O307  1  0.23604284  0.06148078  0.97609626  1
  O  O308  1  0.22681356  0.39500719  0.49435464  1
  O  O309  1  0.23465959  0.40396742  0.96765096  1
  O  O310  1  0.23878369  0.73370416  0.46784520  1
  O  O311  1  0.23985015  0.72903913  0.97220181  1
  O  O312  1  0.58063010  0.08484594  0.47305367  1
  O  O313  1  0.56510554  0.06846653  0.99803294  1
  O  O314  1  0.58101132  0.40197848  0.49241375  1
  O  O315  1  0.56802231  0.41715466  0.97502013  1
  O  O316  1  0.57267560  0.74194409  0.48852330  1
  O  O317  1  0.55968647  0.72771957  0.98844304  1
  O  O318  1  0.90142656  0.07924537  0.48710179  1
  O  O319  1  0.90739414  0.07300883  0.98962781  1
  O  O320  1  0.90843195  0.40619920  0.47980220  1
  O  O321  1  0.90586233  0.39890014  0.97163180  1
  O  O322  1  0.91497609  0.74621467  0.47258467  1
  O  O323  1  0.91697256  0.73459214  0.98498725  1
  O  O324  1  0.09086099  0.24912530  0.23391558  1
  O  O325  1  0.10102403  0.27231608  0.72988937  1
  O  O326  1  0.10102484  0.59380818  0.22164670  1
  O  O327  1  0.09508218  0.59230991  0.73094226  1
  O  O328  1  0.09670051  0.93843408  0.22290822  1
  O  O329  1  0.10490925  0.93321420  0.73911123  1
  O  O330  1  0.42896708  0.25299568  0.23592148  1
  O  O331  1  0.42169552  0.25557706  0.72380068  1
  O  O332  1  0.43138806  0.60028081  0.22368130  1
  O  O333  1  0.42881289  0.59961493  0.74054716  1
  O  O334  1  0.42971147  0.93013116  0.22156862  1
  O  O335  1  0.42323408  0.92392590  0.72947160  1
  O  O336  1  0.75866395  0.24793869  0.23943249  1
  O  O337  1  0.74859908  0.25679242  0.73298681  1
  O  O338  1  0.76373867  0.59639419  0.22271990  1
  O  O339  1  0.75116452  0.59315208  0.73774197  1
  O  O340  1  0.76242821  0.93189366  0.22413312  1
  O  O341  1  0.75613034  0.93817678  0.72792253  1
  O  O342  1  0.06744267  0.09409846  0.21797885  1
  O  O343  1  0.06403388  0.09698901  0.71989063  1
  O  O344  1  0.07079220  0.43669949  0.22900963  1
  O  O345  1  0.06161550  0.43002469  0.72996634  1
  O  O346  1  0.08443456  0.75221784  0.21515755  1
  O  O347  1  0.08195805  0.76541018  0.74141228  1
  O  O348  1  0.40569740  0.08654857  0.22812645  1
  O  O349  1  0.39733776  0.09715210  0.72686085  1
  O  O350  1  0.41091482  0.43617913  0.23707152  1
  O  O351  1  0.39727666  0.43266058  0.74013490  1
  O  O352  1  0.39967648  0.76306649  0.22373728  1
  O  O353  1  0.39592941  0.76928589  0.73478950  1
  O  O354  1  0.74276707  0.08648615  0.22452841  1
  O  O355  1  0.73457395  0.09354348  0.72591650  1
  O  O356  1  0.74430037  0.43549825  0.23145566  1
  O  O357  1  0.73709212  0.42033712  0.73345929  1
  O  O358  1  0.74480183  0.75511358  0.22479381  1
  O  O359  1  0.73536728  0.75382966  0.73783524  1
