# generated using pymatgen
data_BaLaInIrO6
_symmetry_space_group_name_H-M   'P 1'
_cell_length_a   17.53066027
_cell_length_b   17.54313377
_cell_length_c   16.49967224
_cell_angle_alpha   89.97877981
_cell_angle_beta   90.05355816
_cell_angle_gamma   89.96790322
_symmetry_Int_Tables_number   1
_chemical_formula_structural   BaLaInIrO6
_chemical_formula_sum   'Ba36 La36 In36 Ir36 O216'
_cell_volume   5074.35068830
_cell_formula_units_Z   36
loop_
 _symmetry_equiv_pos_site_id
 _symmetry_equiv_pos_as_xyz
  1  'x, y, z'
loop_
 _atom_site_type_symbol
 _atom_site_label
 _atom_site_symmetry_multiplicity
 _atom_site_fract_x
 _atom_site_fract_y
 _atom_site_fract_z
 _atom_site_occupancy
  Ba  Ba0  1  0.16478159  0.99412103  0.37615999  1
  Ba  Ba1  1  -0.00141985  0.82515728  0.37300596  1
  Ba  Ba2  1  0.83366426  0.32588527  0.87503997  1
  Ba  Ba3  1  0.49994550  0.67874392  0.62479380  1
  Ba  Ba4  1  0.33406808  0.16801752  0.62089566  1
  Ba  Ba5  1  0.66875500  0.51493985  0.62609285  1
  Ba  Ba6  1  -0.00160055  0.48626716  0.37137066  1
  Ba  Ba7  1  0.33608100  0.16185482  0.37455050  1
  Ba  Ba8  1  0.99911591  0.18200397  0.12967414  1
  Ba  Ba9  1  0.33438592  0.84163194  0.12754518  1
  Ba  Ba10  1  0.50032046  0.00478509  0.62141843  1
  Ba  Ba11  1  0.66881601  0.82668727  0.37375243  1
  Ba  Ba12  1  1.00229891  0.84256158  0.12715313  1
  Ba  Ba13  1  0.67229933  0.17596405  0.62062173  1
  Ba  Ba14  1  0.16895875  0.33470113  0.62506246  1
  Ba  Ba15  1  0.99832744  0.17444364  0.62766976  1
  Ba  Ba16  1  0.16411761  0.00995009  0.62429927  1
  Ba  Ba17  1  0.83181654  0.34355671  0.11973160  1
  Ba  Ba18  1  0.66729445  0.49316342  0.37209937  1
  Ba  Ba19  1  1.00026275  0.83687134  0.62510824  1
  Ba  Ba20  1  0.16541311  0.32362711  0.37630375  1
  Ba  Ba21  1  0.49922257  0.34423428  0.12262011  1
  Ba  Ba22  1  0.83418760  0.98987922  0.37538015  1
  Ba  Ba23  1  -0.00010251  0.48449721  0.87453623  1
  Ba  Ba24  1  0.33709380  0.84735242  0.63132622  1
  Ba  Ba25  1  0.49243570  0.33953563  0.62265991  1
  Ba  Ba26  1  0.66929723  0.50937288  0.12352346  1
  Ba  Ba27  1  1.00110238  0.50502559  0.12105226  1
  Ba  Ba28  1  0.50596093  0.66121504  0.37516636  1
  Ba  Ba29  1  0.82777788  0.34223773  0.62585309  1
  Ba  Ba30  1  0.83913699  0.65860236  0.37248607  1
  Ba  Ba31  1  0.33604736  0.51040367  0.12347248  1
  Ba  Ba32  1  0.67021019  0.17922599  0.12748524  1
  Ba  Ba33  1  0.33053564  0.17509595  0.12513564  1
  Ba  Ba34  1  -0.00405289  0.15872836  0.87827147  1
  Ba  Ba35  1  0.32932597  0.49193951  0.87236661  1
  La  La36  1  0.49366035  0.99423521  0.87823778  1
  La  La37  1  0.66179661  0.15116858  0.36922295  1
  La  La38  1  0.16810845  0.99114702  0.87435700  1
  La  La39  1  0.33379860  0.82132921  0.87502506  1
  La  La40  1  0.82847374  0.68021669  0.61588746  1
  La  La41  1  0.66678960  0.84155076  0.61908161  1
  La  La42  1  -0.00561164  0.81773903  0.88099584  1
  La  La43  1  0.33912767  0.16446686  0.87055296  1
  La  La44  1  0.15710432  0.34597483  0.12532349  1
  La  La45  1  0.66423036  0.15025277  0.87838502  1
  La  La46  1  0.49731895  0.01497547  0.12562448  1
  La  La47  1  0.17402231  0.65730697  0.36930653  1
  La  La48  1  0.83290125  0.68208949  0.12537123  1
  La  La49  1  0.50142766  0.65543868  0.87110821  1
  La  La50  1  0.83864564  0.98984068  0.87895314  1
  La  La51  1  0.66230093  0.48023672  0.87745178  1
  La  La52  1  0.33168194  0.48489530  0.37400628  1
  La  La53  1  0.50425260  0.66793537  0.13740877  1
  La  La54  1  0.16808510  0.65656644  0.87453036  1
  La  La55  1  1.00032089  0.50279837  0.61989884  1
  La  La56  1  0.82913207  0.01463401  0.13202212  1
  La  La57  1  0.16135169  0.67141872  0.63157416  1
  La  La58  1  0.34369759  0.51607694  0.61982260  1
  La  La59  1  0.50431794  0.98769794  0.37660687  1
  La  La60  1  0.84071189  0.31924878  0.37022654  1
  La  La61  1  0.50230565  0.31721613  0.36755326  1
  La  La62  1  -0.00323181  0.15162481  0.37825962  1
  La  La63  1  0.82549575  0.01044827  0.62307986  1
  La  La64  1  0.16017973  0.68150567  0.11963233  1
  La  La65  1  0.32869693  0.82288802  0.38376837  1
  La  La66  1  0.15740655  0.01704265  0.12604491  1
  La  La67  1  0.66128174  0.82151465  0.87299980  1
  La  La68  1  0.67182677  0.84273515  0.12814745  1
  La  La69  1  0.83901243  0.65039764  0.87962821  1
  La  La70  1  0.50487537  0.31227235  0.87860372  1
  La  La71  1  0.16794172  0.31047514  0.87739825  1
  In  In72  1  0.16744563  0.49999973  -0.00134834  1
  In  In73  1  0.50373256  0.16263629  0.74979581  1
  In  In74  1  0.33172759  -0.00023590  0.00377796  1
  In  In75  1  0.16576492  0.83172199  0.50370853  1
  In  In76  1  0.83389703  0.49644991  0.49673213  1
  In  In77  1  0.33206126  0.67134485  0.74819483  1
  In  In78  1  0.00299848  0.66323313  0.24768431  1
  In  In79  1  0.33306524  0.33281618  0.75133727  1
  In  In80  1  0.33152179  0.33189925  0.00107232  1
  In  In81  1  -0.00081582  -0.00415741  0.75309251  1
  In  In82  1  0.83146455  0.50168703  0.75042558  1
  In  In83  1  0.66688370  -0.00400813  0.75225935  1
  In  In84  1  0.83220160  0.16547029  0.00213629  1
  In  In85  1  0.33286220  0.00057038  0.49751558  1
  In  In86  1  -0.00430896  0.66306722  0.75146823  1
  In  In87  1  0.16629159  0.16799277  0.25267436  1
  In  In88  1  0.49844810  0.49916524  0.74937721  1
  In  In89  1  0.50278502  0.49871640  0.49762249  1
  In  In90  1  0.50192597  0.83307626  0.00042013  1
  In  In91  1  0.83107385  0.16589468  0.49760097  1
  In  In92  1  0.00261404  0.66283742  0.50096274  1
  In  In93  1  0.50464719  0.16593120  0.49771818  1
  In  In94  1  0.50115332  0.49777527  0.25062487  1
  In  In95  1  0.17033686  0.49855710  0.50128819  1
  In  In96  1  0.33296696  0.33248319  0.49897593  1
  In  In97  1  0.50105359  0.83487355  0.24834964  1
  In  In98  1  0.66311508  0.33168325  0.74798670  1
  In  In99  1  0.16821843  0.83654724  0.25066403  1
  In  In100  1  0.66750762  0.66770696  -0.00466941  1
  In  In101  1  0.16709960  0.49537823  0.74816175  1
  In  In102  1  0.33407585  0.66766837  0.24679524  1
  In  In103  1  0.67107367  0.66731918  0.25072564  1
  In  In104  1  0.16659946  0.83633241  -0.00252332  1
  In  In105  1  0.49882428  0.50331247  -0.00164367  1
  In  In106  1  0.83212707  0.83356010  0.75451639  1
  In  In107  1  0.83050707  0.16500819  0.75224242  1
  Ir  Ir108  1  0.33411866  0.66969796  0.49615862  1
  Ir  Ir109  1  0.00180290  0.33081419  0.74828485  1
  Ir  Ir110  1  0.83573157  0.83690502  0.24583275  1
  Ir  Ir111  1  0.83481434  0.49733007  0.24547637  1
  Ir  Ir112  1  0.17072508  0.49809724  0.24979400  1
  Ir  Ir113  1  0.66498144  0.00064820  0.24822998  1
  Ir  Ir114  1  -0.00023009  -0.00088544  0.00375643  1
  Ir  Ir115  1  0.66853640  0.33262334  0.49100560  1
  Ir  Ir116  1  0.83420266  0.83435639  0.49863411  1
  Ir  Ir117  1  0.33231690  0.67272407  -0.00112549  1
  Ir  Ir118  1  0.16222717  0.16075211  -0.00189927  1
  Ir  Ir119  1  -0.00307108  0.66821635  -0.00017950  1
  Ir  Ir120  1  0.33211393  0.00248740  0.75607076  1
  Ir  Ir121  1  0.15912131  0.16501868  0.50198047  1
  Ir  Ir122  1  -0.00037871  0.33284204  0.25083225  1
  Ir  Ir123  1  0.66867495  0.67268856  0.50285664  1
  Ir  Ir124  1  0.83171507  0.16658890  0.25191422  1
  Ir  Ir125  1  0.16484013  0.16237916  0.75305930  1
  Ir  Ir126  1  0.00183351  0.33278738  -0.00015276  1
  Ir  Ir127  1  -0.00542719  -0.00190449  0.49973353  1
  Ir  Ir128  1  0.66676493  -0.00574718  0.49459890  1
  Ir  Ir129  1  0.33648425  0.00146980  0.24876699  1
  Ir  Ir130  1  0.16626347  0.83479205  0.75494739  1
  Ir  Ir131  1  0.50304212  0.16361167  0.00404985  1
  Ir  Ir132  1  0.33201952  0.33334886  0.24782326  1
  Ir  Ir133  1  -0.00145651  0.32806453  0.49816379  1
  Ir  Ir134  1  0.66648729  0.33306672  0.00177287  1
  Ir  Ir135  1  0.49941321  0.83294901  0.50095406  1
  Ir  Ir136  1  0.66949104  -0.00312815  0.00408663  1
  Ir  Ir137  1  0.49981044  0.83816108  0.75375790  1
  Ir  Ir138  1  0.83065203  0.83835888  0.00339523  1
  Ir  Ir139  1  -0.00437137  0.00282464  0.24801891  1
  Ir  Ir140  1  0.66908247  0.67564330  0.74990132  1
  Ir  Ir141  1  0.50138255  0.16597323  0.24582837  1
  Ir  Ir142  1  0.67174089  0.33133237  0.25143963  1
  Ir  Ir143  1  0.83336841  0.50355369  0.00224893  1
  O  O144  1  0.29668684  0.32936915  0.12852501  1
  O  O145  1  0.31929894  0.31910672  0.62490045  1
  O  O146  1  0.29723549  0.67253272  0.11741934  1
  O  O147  1  0.30103988  0.66117249  0.61670763  1
  O  O148  1  0.29903353  0.99772095  0.13070732  1
  O  O149  1  0.31704959  1.00039240  0.63461431  1
  O  O150  1  0.64750219  0.33330070  0.12871906  1
  O  O151  1  0.64397891  0.33097977  0.61112416  1
  O  O152  1  0.64091820  0.67104170  0.12073322  1
  O  O153  1  0.64784039  0.68070373  0.62692789  1
  O  O154  1  0.63357435  0.98514924  0.12539909  1
  O  O155  1  0.65006820  0.98269564  0.61634235  1
  O  O156  1  0.98154411  0.33974164  0.12695185  1
  O  O157  1  0.97527433  0.33335463  0.62203352  1
  O  O158  1  0.96724628  0.66499912  0.11850873  1
  O  O159  1  0.96061395  0.66197332  0.62741000  1
  O  O160  1  0.96614769  0.99932116  0.12584720  1
  O  O161  1  0.96493927  0.99391893  0.62026319  1
  O  O162  1  0.17893929  0.15688503  0.11994083  1
  O  O163  1  0.18432766  0.16671617  0.62936342  1
  O  O164  1  0.18723957  0.48329231  0.12881394  1
  O  O165  1  0.21044991  0.49104414  0.62512362  1
  O  O166  1  0.18652777  0.82404506  0.12261661  1
  O  O167  1  0.19145696  0.81920631  0.63669620  1
  O  O168  1  0.52468886  0.15323813  0.12484512  1
  O  O169  1  0.52325637  0.16120884  0.62376895  1
  O  O170  1  0.51848893  0.50870577  0.12311555  1
  O  O171  1  0.52131762  0.49683185  0.62362226  1
  O  O172  1  0.53630089  0.81917298  0.12126797  1
  O  O173  1  0.52989551  0.83435304  0.62719739  1
  O  O174  1  0.85127621  0.15599847  0.13046999  1
  O  O175  1  0.84666372  0.14939419  0.62291524  1
  O  O176  1  0.85353383  0.49671033  0.12467508  1
  O  O177  1  0.86099971  0.49898756  0.62500817  1
  O  O178  1  0.85623486  0.82416359  0.12362956  1
  O  O179  1  0.84907373  0.82277944  0.62054410  1
  O  O180  1  0.13347268  0.16391519  0.38066344  1
  O  O181  1  0.14193066  0.15993939  0.87560725  1
  O  O182  1  0.14701325  0.51516376  0.36817836  1
  O  O183  1  0.14524302  0.52221231  0.87525948  1
  O  O184  1  0.14716018  0.83543381  0.37619786  1
  O  O185  1  0.13053720  0.84831781  0.87293953  1
  O  O186  1  0.48796284  0.17402997  0.36457372  1
  O  O187  1  0.47713674  0.16562037  0.88555246  1
  O  O188  1  0.46933768  0.50001498  0.37441068  1
  O  O189  1  0.47751932  0.52179956  0.87399273  1
  O  O190  1  0.46871408  0.84116800  0.37941510  1
  O  O191  1  0.47207666  0.85473191  0.87291916  1
  O  O192  1  0.80105565  0.17295028  0.37065360  1
  O  O193  1  0.80092029  0.16139141  0.87989886  1
  O  O194  1  0.81759650  0.49929949  0.36441364  1
  O  O195  1  0.80020783  0.51145461  0.88421323  1
  O  O196  1  0.81598862  0.83699377  0.36975356  1
  O  O197  1  0.79736880  0.85248228  0.88578865  1
  O  O198  1  0.01761411  0.01201029  0.37344580  1
  O  O199  1  0.03099627  0.00070332  0.88597651  1
  O  O200  1  0.01847181  0.32370462  0.37380550  1
  O  O201  1  0.03087207  0.32824026  0.87382134  1
  O  O202  1  0.03502357  0.66692396  0.37387620  1
  O  O203  1  0.02938690  0.67547510  0.88038486  1
  O  O204  1  0.36828206  0.00369726  0.36567752  1
  O  O205  1  0.35700767  0.01691801  0.87634750  1
  O  O206  1  0.36403198  0.33990288  0.36588730  1
  O  O207  1  0.36392820  0.31754999  0.87839140  1
  O  O208  1  0.35903832  0.68353688  0.37921469  1
  O  O209  1  0.36262035  0.67489672  0.87979054  1
  O  O210  1  0.68836611  0.01118127  0.37018607  1
  O  O211  1  0.70131039  0.00628038  0.88576082  1
  O  O212  1  0.70285947  0.33357915  0.37061571  1
  O  O213  1  0.68373333  0.33947603  0.88413561  1
  O  O214  1  0.69020104  0.67042169  0.38353404  1
  O  O215  1  0.70342675  0.68520951  0.86758632  1
  O  O216  1  0.06765240  0.09139167  0.02788863  1
  O  O217  1  0.06319500  0.09344624  0.51423975  1
  O  O218  1  0.07476394  0.41915423  0.01589232  1
  O  O219  1  0.06593508  0.42260765  0.51867248  1
  O  O220  1  0.06834187  0.75811364  0.01449271  1
  O  O221  1  0.08575497  0.74597316  0.53380107  1
  O  O222  1  0.41264924  0.09306740  0.02089718  1
  O  O223  1  0.41378040  0.08629066  0.50658031  1
  O  O224  1  0.40416701  0.42783948  0.01101218  1
  O  O225  1  0.39815793  0.43685620  0.51771859  1
  O  O226  1  0.39368671  0.76973035  0.00431782  1
  O  O227  1  0.40407727  0.76417158  0.52031234  1
  O  O228  1  0.73895318  0.08364035  0.02772081  1
  O  O229  1  0.74104028  0.07993134  0.51282722  1
  O  O230  1  0.73339332  0.43081668  0.01152652  1
  O  O231  1  0.73328398  0.42658210  0.51156503  1
  O  O232  1  0.73703881  0.77182311  0.02449144  1
  O  O233  1  0.73969269  0.76662051  0.52429314  1
  O  O234  1  0.10037106  0.26457108  0.01683078  1
  O  O235  1  0.08761728  0.25692285  0.51790934  1
  O  O236  1  0.09272549  0.60280781  0.02283162  1
  O  O237  1  0.09461946  0.58513214  0.53796645  1
  O  O238  1  0.09573295  0.93739354  0.02591064  1
  O  O239  1  0.08328579  0.92674488  0.51609298  1
  O  O240  1  0.43266010  0.25290117  0.01866232  1
  O  O241  1  0.43357323  0.26331873  0.49414618  1
  O  O242  1  0.43172539  0.61618033  0.02345442  1
  O  O243  1  0.41957973  0.59829132  0.51836065  1
  O  O244  1  0.43755085  0.93683602  0.02085966  1
  O  O245  1  0.42962620  0.92037663  0.51262098  1
  O  O246  1  0.75325492  0.26018064  0.01578286  1
  O  O247  1  0.76067951  0.26618195  0.50760063  1
  O  O248  1  0.77370135  0.60337493  0.01960746  1
  O  O249  1  0.76072653  0.60348352  0.52060761  1
  O  O250  1  0.76368957  0.93089546  0.03633569  1
  O  O251  1  0.76026895  0.92371395  0.52477207  1
  O  O252  1  0.24556923  0.07186729  0.26553859  1
  O  O253  1  0.23358678  0.06645128  0.77656236  1
  O  O254  1  0.24407947  0.40686006  0.27466559  1
  O  O255  1  0.22930716  0.39466036  0.78319230  1
  O  O256  1  0.24393740  0.74120448  0.27863015  1
  O  O257  1  0.23930250  0.75026553  0.78597485  1
  O  O258  1  0.57097522  0.07188152  0.27346080  1
  O  O259  1  0.57057171  0.06460638  0.78409339  1
  O  O260  1  0.57661130  0.39541134  0.27129514  1
  O  O261  1  0.56667100  0.40138255  0.78308851  1
  O  O262  1  0.58246151  0.74793455  0.26723743  1
  O  O263  1  0.56740401  0.73990033  0.77587447  1
  O  O264  1  0.90591342  0.07801855  0.27309498  1
  O  O265  1  0.90026836  0.06386823  0.77489483  1
  O  O266  1  0.90086357  0.39916333  0.26931215  1
  O  O267  1  0.91273517  0.40185979  0.76283225  1
  O  O268  1  0.90670337  0.74557678  0.25897606  1
  O  O269  1  0.90432459  0.74160974  0.78666371  1
  O  O270  1  0.26113451  0.24496717  0.26719331  1
  O  O271  1  0.25666879  0.22912857  0.77823157  1
  O  O272  1  0.26093901  0.56773845  0.27442813  1
  O  O273  1  0.24545919  0.59073595  0.76725644  1
  O  O274  1  0.27353379  0.90814203  0.27594198  1
  O  O275  1  0.26006954  0.90759521  0.78142083  1
  O  O276  1  0.59953137  0.23696998  0.27413922  1
  O  O277  1  0.59770395  0.23310034  0.78698482  1
  O  O278  1  0.59279994  0.57730885  0.26279060  1
  O  O279  1  0.60544226  0.58178481  0.77506879  1
  O  O280  1  0.58935384  0.91881163  0.27318601  1
  O  O281  1  0.59850492  0.89675417  0.77122927  1
  O  O282  1  0.92557542  0.23805304  0.27941315  1
  O  O283  1  0.93108540  0.24196045  0.76521431  1
  O  O284  1  0.92613178  0.56695245  0.26024443  1
  O  O285  1  0.91732880  0.57705117  0.78578741  1
  O  O286  1  0.92528623  0.91201944  0.26490635  1
  O  O287  1  0.93045965  0.90096982  0.78694154  1
  O  O288  1  0.24798024  0.23622164  0.48518182  1
  O  O289  1  0.25645282  0.22558072  0.97274342  1
  O  O290  1  0.26654830  0.58009729  0.46683891  1
  O  O291  1  0.26295839  0.58243085  0.98346268  1
  O  O292  1  0.26383855  0.90372138  0.48301927  1
  O  O293  1  0.26332638  0.90491861  0.96647441  1
  O  O294  1  0.60584394  0.23679916  0.46615346  1
  O  O295  1  0.59701784  0.23619510  0.97690920  1
  O  O296  1  0.59757812  0.58276945  0.48776672  1
  O  O297  1  0.60075134  0.57143476  0.96753502  1
  O  O298  1  0.58683649  0.90930244  0.47363543  1
  O  O299  1  0.60501752  0.90628018  0.97593332  1
  O  O300  1  0.92970118  0.23598399  0.47255040  1
  O  O301  1  0.92670120  0.24523358  0.98943000  1
  O  O302  1  0.93003706  0.56727376  0.48494856  1
  O  O303  1  0.92460366  0.57506362  0.97670333  1
  O  O304  1  0.92646650  0.90507301  0.48153132  1
  O  O305  1  0.92992391  0.90399018  0.97545929  1
  O  O306  1  0.23384782  0.07868919  0.48795348  1
  O  O307  1  0.22358715  0.06272807  0.98599659  1
  O  O308  1  0.24699663  0.41324400  0.46610426  1
  O  O309  1  0.22990122  0.39635070  0.97647131  1
  O  O310  1  0.24390257  0.73682526  0.47141063  1
  O  O311  1  0.23607257  0.73529633  0.97063579  1
  O  O312  1  0.57969900  0.06861527  0.46695734  1
  O  O313  1  0.57562104  0.06681181  0.97598436  1
  O  O314  1  0.57308804  0.39420496  0.46754435  1
  O  O315  1  0.57451720  0.40099223  0.97731728  1
  O  O316  1  0.57669393  0.74703268  0.48587112  1
  O  O317  1  0.57338554  0.74179763  0.95841550  1
  O  O318  1  0.91024983  0.07268085  0.48045846  1
  O  O319  1  0.90311869  0.06117096  0.98347321  1
  O  O320  1  0.90535390  0.39255712  0.47630305  1
  O  O321  1  0.90638730  0.40704406  0.98227655  1
  O  O322  1  0.90497545  0.74412916  0.48471679  1
  O  O323  1  0.90022955  0.74084383  0.97448427  1
  O  O324  1  0.09439525  0.26652470  0.22883275  1
  O  O325  1  0.09992315  0.26096646  0.74243165  1
  O  O326  1  0.10816455  0.59189880  0.22284965  1
  O  O327  1  0.08403570  0.58535817  0.71559717  1
  O  O328  1  0.09075288  0.93628243  0.22657449  1
  O  O329  1  0.09645014  0.92169706  0.73198881  1
  O  O330  1  0.42828533  0.26135855  0.22929163  1
  O  O331  1  0.43433271  0.26053596  0.74908740  1
  O  O332  1  0.42678360  0.59471211  0.22864651  1
  O  O333  1  0.42479005  0.59843642  0.73119661  1
  O  O334  1  0.43070169  0.93651149  0.22374888  1
  O  O335  1  0.43377669  0.93867653  0.74377564  1
  O  O336  1  0.76627748  0.26196065  0.23484680  1
  O  O337  1  0.75834683  0.26078766  0.73466857  1
  O  O338  1  0.77180964  0.59524648  0.22446807  1
  O  O339  1  0.76516548  0.61529347  0.72753692  1
  O  O340  1  0.75720333  0.92787135  0.21953262  1
  O  O341  1  0.77035300  0.93386038  0.72799352  1
  O  O342  1  0.06976677  0.08985438  0.23438040  1
  O  O343  1  0.07494540  0.09162740  0.73670225  1
  O  O344  1  0.07867447  0.42174344  0.22763718  1
  O  O345  1  0.06563886  0.42352385  0.72316127  1
  O  O346  1  0.08299987  0.74990131  0.22277566  1
  O  O347  1  0.08294505  0.75529165  0.73791514  1
  O  O348  1  0.41176494  0.09090097  0.21975291  1
  O  O349  1  0.39709632  0.09609413  0.74621405  1
  O  O350  1  0.40250150  0.42056861  0.23120815  1
  O  O351  1  0.39292546  0.43779762  0.72707976  1
  O  O352  1  0.41735354  0.75327417  0.22104389  1
  O  O353  1  0.40554258  0.77214031  0.74658986  1
  O  O354  1  0.74286994  0.08836082  0.22734715  1
  O  O355  1  0.73376063  0.09160639  0.73512731  1
  O  O356  1  0.73998990  0.42629344  0.23104055  1
  O  O357  1  0.73183495  0.43511327  0.74793709  1
  O  O358  1  0.74781525  0.76429589  0.22149460  1
  O  O359  1  0.72540511  0.77509015  0.73136840  1
