# generated using pymatgen
data_BaLaInIrO6
_symmetry_space_group_name_H-M   'P 1'
_cell_length_a   17.52030758
_cell_length_b   17.54588448
_cell_length_c   16.47854822
_cell_angle_alpha   90.00303730
_cell_angle_beta   89.96106646
_cell_angle_gamma   90.00825888
_symmetry_Int_Tables_number   1
_chemical_formula_structural   BaLaInIrO6
_chemical_formula_sum   'Ba36 La36 In36 Ir36 O216'
_cell_volume   5065.65762476
_cell_formula_units_Z   36
loop_
 _symmetry_equiv_pos_site_id
 _symmetry_equiv_pos_as_xyz
  1  'x, y, z'
loop_
 _atom_site_type_symbol
 _atom_site_label
 _atom_site_symmetry_multiplicity
 _atom_site_fract_x
 _atom_site_fract_y
 _atom_site_fract_z
 _atom_site_occupancy
  Ba  Ba0  1  0.16343483  0.00870548  0.62320728  1
  Ba  Ba1  1  -0.00485094  0.82661753  0.37259723  1
  Ba  Ba2  1  0.16693667  0.99690467  0.87330548  1
  Ba  Ba3  1  0.67013731  0.84997369  0.12129130  1
  Ba  Ba4  1  0.66719065  0.51280617  0.12510935  1
  Ba  Ba5  1  0.16287940  0.68055439  0.12609809  1
  Ba  Ba6  1  0.49887173  0.32495459  0.87340381  1
  Ba  Ba7  1  0.66755215  0.15430856  0.87076445  1
  Ba  Ba8  1  0.50365239  0.99048009  0.87542211  1
  Ba  Ba9  1  0.16628750  0.65873784  0.87617575  1
  Ba  Ba10  1  0.16736923  0.99101125  0.37809084  1
  Ba  Ba11  1  -0.00180088  0.15980851  0.87964088  1
  Ba  Ba12  1  0.16152536  0.01340623  0.12841058  1
  Ba  Ba13  1  0.66755308  0.82182841  0.87704128  1
  Ba  Ba14  1  -0.00172279  0.48966266  0.87734233  1
  Ba  Ba15  1  1.00315670  0.17696967  0.62043367  1
  Ba  Ba16  1  0.83379161  0.00684697  0.62039690  1
  Ba  Ba17  1  0.50272119  0.67173692  0.62509457  1
  Ba  Ba18  1  0.33294074  0.50642161  0.12350360  1
  Ba  Ba19  1  0.82971869  0.34073505  0.62891840  1
  Ba  Ba20  1  0.67093752  0.50609180  0.62953944  1
  Ba  Ba21  1  0.33089651  0.83799136  0.12731919  1
  Ba  Ba22  1  0.33375498  0.83945194  0.62402534  1
  Ba  Ba23  1  0.16546902  0.34164479  0.12430906  1
  Ba  Ba24  1  -0.00167063  0.49216300  0.37580421  1
  Ba  Ba25  1  0.16578827  0.65969073  0.37457401  1
  Ba  Ba26  1  0.50058490  0.33660985  0.62433061  1
  Ba  Ba27  1  0.33655688  0.50347820  0.62780902  1
  Ba  Ba28  1  0.83509440  0.99218718  0.37304951  1
  Ba  Ba29  1  0.49786736  0.00765888  0.12449080  1
  Ba  Ba30  1  0.33244436  0.82600861  0.37439320  1
  Ba  Ba31  1  1.00000388  0.51188676  0.62957841  1
  Ba  Ba32  1  0.99981536  0.17727799  0.12968574  1
  Ba  Ba33  1  0.16584197  0.32876698  0.87570074  1
  Ba  Ba34  1  0.50065929  0.99055266  0.37549500  1
  Ba  Ba35  1  0.67022772  0.49218590  0.37406493  1
  La  La36  1  0.67118313  0.84935728  0.62665885  1
  La  La37  1  0.50280476  0.31998610  0.37310162  1
  La  La38  1  0.32923376  0.48337964  0.87435926  1
  La  La39  1  1.00923277  0.51778570  0.12731069  1
  La  La40  1  0.82768323  0.68320420  0.12098912  1
  La  La41  1  0.83894420  0.65224990  0.87654840  1
  La  La42  1  0.67465538  0.17987784  0.62657309  1
  La  La43  1  0.82975424  0.01425450  0.12182896  1
  La  La44  1  0.49397837  0.34106164  0.12269718  1
  La  La45  1  0.49840853  0.00912643  0.62752305  1
  La  La46  1  0.84262072  0.32020481  0.87347120  1
  La  La47  1  0.82473986  0.67830000  0.62388334  1
  La  La48  1  0.32622738  0.15214074  0.36887358  1
  La  La49  1  0.66751466  0.48594949  0.87764540  1
  La  La50  1  0.50154722  0.65273389  0.87731809  1
  La  La51  1  0.16052580  0.34540327  0.62562869  1
  La  La52  1  0.83866199  0.98265676  0.87678458  1
  La  La53  1  0.32604588  0.15465992  0.87752665  1
  La  La54  1  0.16282488  0.68502685  0.62435612  1
  La  La55  1  0.66943516  0.17449351  0.12037171  1
  La  La56  1  -0.00618443  0.82338553  0.87474972  1
  La  La57  1  0.33554163  0.16687495  0.62917640  1
  La  La58  1  0.66395541  0.15481401  0.37889616  1
  La  La59  1  0.33069979  0.17473155  0.12177328  1
  La  La60  1  0.82922311  0.34735262  0.12530781  1
  La  La61  1  1.00572158  0.85358053  0.12662867  1
  La  La62  1  0.66046620  0.81704915  0.37304409  1
  La  La63  1  0.16933482  0.32211949  0.37113053  1
  La  La64  1  0.00053033  0.14975345  0.37171591  1
  La  La65  1  0.49571825  0.68204558  0.12749756  1
  La  La66  1  0.33003141  0.82085492  0.87624143  1
  La  La67  1  0.84111277  0.32201407  0.38087658  1
  La  La68  1  0.32854600  0.48453482  0.37744606  1
  La  La69  1  1.00128879  0.84779716  0.62172414  1
  La  La70  1  0.49957595  0.65525652  0.37188393  1
  La  La71  1  0.84310291  0.65217447  0.37144394  1
  In  In72  1  0.66892883  0.33281549  0.75491659  1
  In  In73  1  0.33426597  -0.00276795  0.74914971  1
  In  In74  1  0.50142398  0.16660657  -0.00008144  1
  In  In75  1  0.50263432  0.49805222  0.75029698  1
  In  In76  1  0.50165373  0.83024438  0.74840593  1
  In  In77  1  0.83057642  0.83574297  0.24665362  1
  In  In78  1  0.50143570  0.49811608  0.24918965  1
  In  In79  1  0.16600309  0.50138860  -0.00017467  1
  In  In80  1  0.66786897  0.33180380  0.25014108  1
  In  In81  1  0.83542042  0.50001100  0.50198329  1
  In  In82  1  0.16887205  0.16969838  0.49718942  1
  In  In83  1  0.82797124  0.83255322  0.49732765  1
  In  In84  1  0.66657784  0.33500793  0.49735481  1
  In  In85  1  0.33364276  -0.00055412  0.00086452  1
  In  In86  1  0.16547466  0.17000008  0.74931778  1
  In  In87  1  0.83197700  0.17037094  0.24892244  1
  In  In88  1  0.33509770  -0.00265370  0.49952943  1
  In  In89  1  0.33376291  0.32765914  0.49996056  1
  In  In90  1  0.33442019  0.66376460  0.00083544  1
  In  In91  1  0.83467378  0.16169985  0.75032158  1
  In  In92  1  0.33242957  0.66428165  0.50112118  1
  In  In93  1  0.50070245  0.16467539  0.75024914  1
  In  In94  1  0.16614878  0.50453487  0.74893332  1
  In  In95  1  0.50140284  0.83277307  -0.00022310  1
  In  In96  1  0.33436113  0.66420334  0.25134679  1
  In  In97  1  0.50005691  0.16463113  0.25119314  1
  In  In98  1  0.16656379  0.49861018  0.25272579  1
  In  In99  1  0.83358873  0.50016267  0.00327284  1
  In  In100  1  0.83485244  0.16576449  0.49899931  1
  In  In101  1  0.33474705  0.66499578  0.74957963  1
  In  In102  1  -0.00339055  0.33429475  0.00566368  1
  In  In103  1  0.66627932  0.66538258  0.50032939  1
  In  In104  1  0.50242800  0.83677030  0.25025021  1
  In  In105  1  -0.00131326  -0.00003672  0.75100056  1
  In  In106  1  -0.00104530  0.66708015  0.50107486  1
  In  In107  1  0.16272951  0.83584166  -0.00374739  1
  Ir  Ir108  1  0.33580976  0.33123918  0.00149717  1
  Ir  Ir109  1  0.16242348  0.83284011  0.50031347  1
  Ir  Ir110  1  0.33098661  0.32963718  0.75094735  1
  Ir  Ir111  1  0.16410262  0.17158729  0.25021738  1
  Ir  Ir112  1  0.67173144  0.66555662  0.24718173  1
  Ir  Ir113  1  0.16160622  0.83630945  0.25202968  1
  Ir  Ir114  1  -0.00269371  0.33495622  0.25591456  1
  Ir  Ir115  1  -0.00180495  0.00166464  0.24905362  1
  Ir  Ir116  1  0.00484960  0.33548592  0.49774583  1
  Ir  Ir117  1  0.66893302  0.00361854  0.24957209  1
  Ir  Ir118  1  0.49629533  0.49859196  0.49628881  1
  Ir  Ir119  1  -0.00638100  0.67208149  -0.00045668  1
  Ir  Ir120  1  0.83317711  0.82948578  0.75191985  1
  Ir  Ir121  1  0.66854055  0.33223413  0.00248044  1
  Ir  Ir122  1  0.83465641  0.50582637  0.75464246  1
  Ir  Ir123  1  0.00014048  -0.00211005  0.49590210  1
  Ir  Ir124  1  0.33563471  0.32999622  0.24845230  1
  Ir  Ir125  1  0.50484029  0.49678915  -0.00015019  1
  Ir  Ir126  1  0.67333155  0.00139045  -0.00114780  1
  Ir  Ir127  1  0.66836016  0.66477886  0.00021800  1
  Ir  Ir128  1  0.16552135  0.16798748  0.00287275  1
  Ir  Ir129  1  0.50103065  0.16377264  0.49972778  1
  Ir  Ir130  1  0.50633860  0.83185240  0.49842469  1
  Ir  Ir131  1  -0.00181605  0.33653603  0.74640210  1
  Ir  Ir132  1  0.67276753  0.66554353  0.75778103  1
  Ir  Ir133  1  0.66225237  0.00047450  0.49823896  1
  Ir  Ir134  1  -0.00544737  0.67270566  0.75120980  1
  Ir  Ir135  1  -0.00516897  0.66890323  0.24535148  1
  Ir  Ir136  1  0.83097376  0.16584221  0.00157780  1
  Ir  Ir137  1  0.32706126  0.00282320  0.24922722  1
  Ir  Ir138  1  0.16684180  0.49624764  0.49987098  1
  Ir  Ir139  1  0.16055379  0.83134792  0.74885301  1
  Ir  Ir140  1  0.83848960  0.50059536  0.24614190  1
  Ir  Ir141  1  0.83569624  0.83358874  -0.00183199  1
  Ir  Ir142  1  -0.00430754  0.00176631  0.00135519  1
  Ir  Ir143  1  0.66929990  -0.00524189  0.74650587  1
  O  O144  1  0.31233813  0.31521629  0.12550485  1
  O  O145  1  0.30026711  0.31885447  0.63003018  1
  O  O146  1  0.31044792  0.65968482  0.12668738  1
  O  O147  1  0.29752409  0.65897921  0.62379240  1
  O  O148  1  0.30921909  1.00260228  0.13191425  1
  O  O149  1  0.31081465  1.00208892  0.62309192  1
  O  O150  1  0.63227075  0.32177568  0.12103368  1
  O  O151  1  0.65004300  0.32522855  0.62552208  1
  O  O152  1  0.63538715  0.66441825  0.12375481  1
  O  O153  1  0.65412902  0.66030033  0.63762859  1
  O  O154  1  0.64856460  1.00908559  0.12423532  1
  O  O155  1  0.63541317  0.98684491  0.62108964  1
  O  O156  1  0.96463888  0.32960742  0.13697717  1
  O  O157  1  0.97849738  0.33554971  0.62064329  1
  O  O158  1  0.96477694  0.65840893  0.12168752  1
  O  O159  1  0.96323495  0.67049239  0.63309053  1
  O  O160  1  0.96720189  0.99609142  0.12441571  1
  O  O161  1  0.98400270  0.99010782  0.61827928  1
  O  O162  1  0.19336287  0.16938646  0.12750698  1
  O  O163  1  0.19651477  0.17432358  0.62220009  1
  O  O164  1  0.17864822  0.50290305  0.12689381  1
  O  O165  1  0.18637661  0.48592540  0.62006715  1
  O  O166  1  0.17462145  0.83828684  0.13112067  1
  O  O167  1  0.18367016  0.82371794  0.62501215  1
  O  O168  1  0.53337925  0.17054937  0.12624175  1
  O  O169  1  0.53973957  0.15768793  0.61548412  1
  O  O170  1  0.52370497  0.47782101  0.11916422  1
  O  O171  1  0.52036032  0.49224296  0.61669963  1
  O  O172  1  0.52658147  0.82242077  0.12682901  1
  O  O173  1  0.53758697  0.82631723  0.61640209  1
  O  O174  1  0.85101140  0.15094476  0.12099529  1
  O  O175  1  0.85487380  0.16085904  0.62369558  1
  O  O176  1  0.87184254  0.48769721  0.12819709  1
  O  O177  1  0.84987428  0.50523318  0.63536202  1
  O  O178  1  0.86542153  0.82401814  0.11778384  1
  O  O179  1  0.86115295  0.81885746  0.63173235  1
  O  O180  1  0.13445381  0.18101001  0.36948214  1
  O  O181  1  0.14915105  0.16921856  0.88290700  1
  O  O182  1  0.14670283  0.49573524  0.38135195  1
  O  O183  1  0.14613898  0.49537312  0.87418277  1
  O  O184  1  0.14059434  0.83340889  0.37799943  1
  O  O185  1  0.12858675  0.83506718  0.86705154  1
  O  O186  1  0.46368181  0.17299970  0.38035366  1
  O  O187  1  0.46617684  0.16495913  0.87574804  1
  O  O188  1  0.46616782  0.51117834  0.37692691  1
  O  O189  1  0.47102585  0.50923068  0.88335554  1
  O  O190  1  0.48607108  0.83511136  0.37977589  1
  O  O191  1  0.46901188  0.83423690  0.87454737  1
  O  O192  1  0.80219632  0.17808139  0.37377877  1
  O  O193  1  0.81619225  0.18045945  0.88148050  1
  O  O194  1  0.81857456  0.51365650  0.36580967  1
  O  O195  1  0.80672035  0.51257376  0.87528526  1
  O  O196  1  0.79677503  0.83831247  0.37078356  1
  O  O197  1  0.81314006  0.84581394  0.87508329  1
  O  O198  1  0.01991475  0.00830388  0.37151608  1
  O  O199  1  0.01447217  -0.00423959  0.88225338  1
  O  O200  1  0.03357726  0.33877288  0.37680926  1
  O  O201  1  0.01126370  0.33254825  0.86822770  1
  O  O202  1  0.01400946  0.67089362  0.36657271  1
  O  O203  1  0.01881491  0.68521340  0.87600394  1
  O  O204  1  0.34950255  0.00796618  0.36911609  1
  O  O205  1  0.35405183  0.01865510  0.87423834  1
  O  O206  1  0.36618704  0.34137399  0.36802076  1
  O  O207  1  0.35356788  0.34560632  0.87626479  1
  O  O208  1  0.36314661  0.66925591  0.37802418  1
  O  O209  1  0.36584381  0.68430997  0.87642262  1
  O  O210  1  0.68982144  0.01603355  0.37363721  1
  O  O211  1  0.70297520  -0.00093724  0.87206105  1
  O  O212  1  0.70619763  0.33425714  0.37264053  1
  O  O213  1  0.70583500  0.34204908  0.88491778  1
  O  O214  1  0.70541712  0.67392622  0.36680904  1
  O  O215  1  0.70342565  0.66654694  0.87930268  1
  O  O216  1  0.06760625  0.09670584  0.02026530  1
  O  O217  1  0.07371982  0.08874484  0.50447129  1
  O  O218  1  0.06349703  0.43259662  0.02508874  1
  O  O219  1  0.07403765  0.42699200  0.52453296  1
  O  O220  1  0.05707090  0.76762441  0.01846066  1
  O  O221  1  0.07035630  0.76223699  0.52749450  1
  O  O222  1  0.40070341  0.10158164  0.02738127  1
  O  O223  1  0.41890481  0.08868764  0.52862542  1
  O  O224  1  0.41285815  0.42197353  0.02244644  1
  O  O225  1  0.40615734  0.42567061  0.51008203  1
  O  O226  1  0.41681124  0.74902625  0.02855411  1
  O  O227  1  0.41678980  0.76205391  0.51617150  1
  O  O228  1  0.73969508  0.09577622  0.02455404  1
  O  O229  1  0.72728484  0.09389637  0.51905817  1
  O  O230  1  0.73936389  0.42020850  0.02674140  1
  O  O231  1  0.74160279  0.42914640  0.51388028  1
  O  O232  1  0.74395044  0.75680617  0.02473884  1
  O  O233  1  0.73133159  0.76524880  0.52906198  1
  O  O234  1  0.09242463  0.25643077  0.01623951  1
  O  O235  1  0.10059706  0.27285841  0.51750970  1
  O  O236  1  0.08143279  0.59958087  0.01831206  1
  O  O237  1  0.10345416  0.59489227  0.52384972  1
  O  O238  1  0.08304543  0.92930086  0.02287412  1
  O  O239  1  0.08632878  0.91919061  0.52181439  1
  O  O240  1  0.42738765  0.26464042  0.02483354  1
  O  O241  1  0.42111576  0.24344763  0.52821181  1
  O  O242  1  0.44385284  0.59023381  0.02375013  1
  O  O243  1  0.42903094  0.58742786  0.51706514  1
  O  O244  1  0.42590717  0.92507935  0.01842455  1
  O  O245  1  0.43951928  0.92514208  0.52182129  1
  O  O246  1  0.76040475  0.25964836  0.03211624  1
  O  O247  1  0.75371630  0.25208545  0.52069064  1
  O  O248  1  0.76254021  0.59928802  0.02425073  1
  O  O249  1  0.76762459  0.60335458  0.51501896  1
  O  O250  1  0.77404999  0.93447302  0.01854731  1
  O  O251  1  0.74913705  0.92753430  0.52085150  1
  O  O252  1  0.23665129  0.08042160  0.27368127  1
  O  O253  1  0.24983481  0.08469984  0.76719825  1
  O  O254  1  0.24290921  0.39749453  0.27449468  1
  O  O255  1  0.24694061  0.40566835  0.76393010  1
  O  O256  1  0.23448271  0.74846782  0.26556098  1
  O  O257  1  0.23091290  0.74269779  0.76451654  1
  O  O258  1  0.57759606  0.07056314  0.26928989  1
  O  O259  1  0.57756658  0.06214069  0.75873447  1
  O  O260  1  0.56773385  0.39974344  0.27316769  1
  O  O261  1  0.58459992  0.41629064  0.77925565  1
  O  O262  1  0.58175725  0.73413220  0.27794535  1
  O  O263  1  0.57609301  0.72675252  0.77776528  1
  O  O264  1  0.91066766  0.07640413  0.26549357  1
  O  O265  1  0.89737976  0.06224932  0.77559246  1
  O  O266  1  0.89871381  0.39929768  0.27598481  1
  O  O267  1  0.90028203  0.40648442  0.77309447  1
  O  O268  1  0.89939003  0.73268857  0.26357750  1
  O  O269  1  0.90016959  0.73883110  0.78222237  1
  O  O270  1  0.26411035  0.23611809  0.27106612  1
  O  O271  1  0.26405720  0.24168596  0.77816117  1
  O  O272  1  0.26638825  0.56446842  0.27902304  1
  O  O273  1  0.26746873  0.56677364  0.77682082  1
  O  O274  1  0.25590713  0.90848098  0.27054353  1
  O  O275  1  0.25665012  0.89580363  0.77437693  1
  O  O276  1  0.59301936  0.23746993  0.28632369  1
  O  O277  1  0.58991804  0.24074972  0.76403212  1
  O  O278  1  0.59923877  0.58007835  0.27006834  1
  O  O279  1  0.60743685  0.57368261  0.78284593  1
  O  O280  1  0.60748507  0.90534493  0.27240734  1
  O  O281  1  0.60517236  0.90007802  0.75909098  1
  O  O282  1  0.92984648  0.24325297  0.28350022  1
  O  O283  1  0.92496776  0.24972920  0.76292992  1
  O  O284  1  0.92887783  0.57378253  0.26540801  1
  O  O285  1  0.92606145  0.58018706  0.77846551  1
  O  O286  1  0.92962125  0.90853611  0.25652289  1
  O  O287  1  0.92716535  0.89663822  0.76946331  1
  O  O288  1  0.25892066  0.24444563  0.45438843  1
  O  O289  1  0.26773191  0.23325192  0.98406286  1
  O  O290  1  0.26146348  0.55936864  0.47669078  1
  O  O291  1  0.26824387  0.56553397  0.97234557  1
  O  O292  1  0.25212754  0.90449332  0.48513918  1
  O  O293  1  0.25910032  0.90603680  0.97169562  1
  O  O294  1  0.58389530  0.24041663  0.46873598  1
  O  O295  1  0.59946933  0.24440407  0.97985507  1
  O  O296  1  0.58322011  0.57521582  0.47508092  1
  O  O297  1  0.59806764  0.56887123  0.97119869  1
  O  O298  1  0.60207391  0.89891058  0.47570309  1
  O  O299  1  0.60257583  0.91128834  0.98417927  1
  O  O300  1  0.93635969  0.24303822  0.47005342  1
  O  O301  1  0.91808940  0.23986602  0.98746235  1
  O  O302  1  0.92690565  0.57452836  0.48398395  1
  O  O303  1  0.92461127  0.58159639  0.98093968  1
  O  O304  1  0.92463222  0.90944107  0.48976363  1
  O  O305  1  0.92907954  0.90361535  0.97548711  1
  O  O306  1  0.25286411  0.08511264  0.47590095  1
  O  O307  1  0.23827144  0.08228974  0.98725795  1
  O  O308  1  0.23385616  0.40237851  0.47719758  1
  O  O309  1  0.24935400  0.40493538  0.98601592  1
  O  O310  1  0.23168535  0.74166286  0.48979157  1
  O  O311  1  0.24341731  0.74721331  0.97768174  1
  O  O312  1  0.57762754  0.08051520  0.46975699  1
  O  O313  1  0.58307845  0.07187779  0.98374349  1
  O  O314  1  0.56253735  0.40503163  0.46993804  1
  O  O315  1  0.58260488  0.40791130  0.97177799  1
  O  O316  1  0.57323283  0.73901343  0.46785322  1
  O  O317  1  0.57553549  0.72804273  0.97657291  1
  O  O318  1  0.91661166  0.07629008  0.47404541  1
  O  O319  1  0.89475996  0.06770056  0.97866985  1
  O  O320  1  0.90809992  0.39822992  0.47825100  1
  O  O321  1  0.89546148  0.39849907  0.97924918  1
  O  O322  1  0.89707357  0.73477594  0.47618708  1
  O  O323  1  0.89902154  0.73902659  0.97272445  1
  O  O324  1  0.09565401  0.26882396  0.23718358  1
  O  O325  1  0.09243052  0.26992043  0.72557682  1
  O  O326  1  0.08381146  0.59581321  0.23114693  1
  O  O327  1  0.09142812  0.60770751  0.72604423  1
  O  O328  1  0.08512816  0.92635579  0.22948773  1
  O  O329  1  0.08920712  0.91794523  0.72766263  1
  O  O330  1  0.42843441  0.26413012  0.22627009  1
  O  O331  1  0.41252809  0.25243616  0.72547664  1
  O  O332  1  0.44071055  0.59849517  0.22980722  1
  O  O333  1  0.43582642  0.59427477  0.74334751  1
  O  O334  1  0.41755535  0.93106953  0.23674239  1
  O  O335  1  0.43580568  0.93109860  0.72426457  1
  O  O336  1  0.75980934  0.26070026  0.21142777  1
  O  O337  1  0.75640511  0.25214955  0.73791076  1
  O  O338  1  0.77211997  0.59805624  0.22134976  1
  O  O339  1  0.77455408  0.60679136  0.73753279  1
  O  O340  1  0.76463384  0.93993239  0.22381727  1
  O  O341  1  0.76438530  0.92173536  0.72712564  1
  O  O342  1  0.06689893  0.10210453  0.24235000  1
  O  O343  1  0.07276859  0.09300112  0.73661960  1
  O  O344  1  0.06209580  0.42823620  0.22935770  1
  O  O345  1  0.07327832  0.42179075  0.73150398  1
  O  O346  1  0.06144150  0.76713352  0.22553155  1
  O  O347  1  0.06226152  0.76570020  0.72225682  1
  O  O348  1  0.39365825  0.09897785  0.23232493  1
  O  O349  1  0.41389155  0.09118459  0.71246124  1
  O  O350  1  0.40378548  0.41957625  0.22963359  1
  O  O351  1  0.40712948  0.41610422  0.73857131  1
  O  O352  1  0.41550174  0.75518494  0.23491328  1
  O  O353  1  0.40620878  0.76009765  0.72959284  1
  O  O354  1  0.73052168  0.09984647  0.23002213  1
  O  O355  1  0.73130285  0.08981296  0.72383196  1
  O  O356  1  0.75056542  0.42787882  0.22440700  1
  O  O357  1  0.74567685  0.43474984  0.74540402  1
  O  O358  1  0.74032272  0.75372894  0.22159336  1
  O  O359  1  0.73918549  0.76112395  0.72660855  1
