# generated using pymatgen
data_BaLaInIrO6
_symmetry_space_group_name_H-M   'P 1'
_cell_length_a   17.50837337
_cell_length_b   17.52804637
_cell_length_c   16.47868072
_cell_angle_alpha   89.99942133
_cell_angle_beta   89.98278992
_cell_angle_gamma   89.97520481
_symmetry_Int_Tables_number   1
_chemical_formula_structural   BaLaInIrO6
_chemical_formula_sum   'Ba36 La36 In36 Ir36 O216'
_cell_volume   5057.10174952
_cell_formula_units_Z   36
loop_
 _symmetry_equiv_pos_site_id
 _symmetry_equiv_pos_as_xyz
  1  'x, y, z'
loop_
 _atom_site_type_symbol
 _atom_site_label
 _atom_site_symmetry_multiplicity
 _atom_site_fract_x
 _atom_site_fract_y
 _atom_site_fract_z
 _atom_site_occupancy
  Ba  Ba0  1  -0.00306960  0.49091347  0.87746638  1
  Ba  Ba1  1  0.66377090  0.49384148  0.37404706  1
  Ba  Ba2  1  -0.00091287  0.82103410  0.87436861  1
  Ba  Ba3  1  0.50255362  0.33666649  0.12464056  1
  Ba  Ba4  1  0.49440802  0.67253079  0.12792537  1
  Ba  Ba5  1  0.33258054  0.17233890  0.13086938  1
  Ba  Ba6  1  0.83087699  0.67381360  0.62242169  1
  Ba  Ba7  1  0.16696124  0.32154236  0.87856999  1
  Ba  Ba8  1  0.16935375  0.99158031  0.37546399  1
  Ba  Ba9  1  0.49844978  0.65840647  0.37238559  1
  Ba  Ba10  1  0.83717147  0.98627301  0.37400663  1
  Ba  Ba11  1  0.49709270  0.32683876  0.87715118  1
  Ba  Ba12  1  0.33078104  0.50580590  0.12501666  1
  Ba  Ba13  1  0.66616113  0.51031031  0.62035322  1
  Ba  Ba14  1  0.83541652  0.99138956  0.87097105  1
  Ba  Ba15  1  0.49869624  0.00499498  0.12851554  1
  Ba  Ba16  1  0.66650847  0.15584224  0.87548127  1
  Ba  Ba17  1  0.66554195  0.49140595  0.87171263  1
  Ba  Ba18  1  0.83142861  0.00754967  0.12235551  1
  Ba  Ba19  1  0.16722301  0.00973102  0.62556411  1
  Ba  Ba20  1  -0.00432620  0.49575107  0.37495784  1
  Ba  Ba21  1  0.16755307  0.65862311  0.38026796  1
  Ba  Ba22  1  0.66365173  0.15570069  0.37868328  1
  Ba  Ba23  1  0.16374384  0.34418255  0.62445010  1
  Ba  Ba24  1  0.66371687  0.83844525  0.62287524  1
  Ba  Ba25  1  1.00313215  0.52057206  0.12379126  1
  Ba  Ba26  1  0.50002563  0.34250239  0.62721400  1
  Ba  Ba27  1  0.33135240  0.48799941  0.87944625  1
  Ba  Ba28  1  1.00479148  0.17514965  0.62150366  1
  Ba  Ba29  1  0.49858152  0.32881376  0.37622332  1
  Ba  Ba30  1  0.67003394  0.17659084  0.62521752  1
  Ba  Ba31  1  0.66363762  0.84038219  0.12674142  1
  Ba  Ba32  1  0.33415111  0.15820218  0.37607119  1
  Ba  Ba33  1  0.33073963  0.49481034  0.37092986  1
  Ba  Ba34  1  0.33399005  0.17703927  0.62431867  1
  Ba  Ba35  1  0.33732699  0.84409135  0.12528123  1
  La  La36  1  0.83246902  0.66309081  0.37377729  1
  La  La37  1  0.49288180  0.01747147  0.62298696  1
  La  La38  1  -0.00499397  0.15142281  0.87073087  1
  La  La39  1  0.82888694  0.67935613  0.12293616  1
  La  La40  1  0.15991167  0.35431232  0.12508901  1
  La  La41  1  0.49998323  0.99600126  0.87732606  1
  La  La42  1  0.33580083  0.16199152  0.87658894  1
  La  La43  1  0.32954010  0.81598399  0.87542653  1
  La  La44  1  0.49836021  0.67498689  0.62603517  1
  La  La45  1  0.50136104  0.64959671  0.87614296  1
  La  La46  1  0.82657776  0.35093871  0.62449801  1
  La  La47  1  0.50290024  0.98614607  0.37352007  1
  La  La48  1  1.00234830  0.51770714  0.62788756  1
  La  La49  1  0.16516162  0.01354436  0.12738788  1
  La  La50  1  0.16852483  0.64876936  0.87829362  1
  La  La51  1  -0.00083541  0.14881510  0.37468827  1
  La  La52  1  0.66791758  0.51659232  0.12353477  1
  La  La53  1  0.82634462  0.34867128  0.12531277  1
  La  La54  1  0.83576710  0.31434941  0.37866515  1
  La  La55  1  0.17335140  0.32000405  0.37593156  1
  La  La56  1  1.00425753  0.84612702  0.62795079  1
  La  La57  1  0.34410437  0.84787619  0.62005524  1
  La  La58  1  0.83952389  0.65685338  0.87201686  1
  La  La59  1  0.32978432  0.81822100  0.37248891  1
  La  La60  1  0.16521753  0.67764049  0.62609305  1
  La  La61  1  0.33725410  0.50662204  0.62540834  1
  La  La62  1  0.66847497  0.17718045  0.12364599  1
  La  La63  1  -0.00016774  0.81860888  0.37662036  1
  La  La64  1  0.16808527  0.98956438  0.87587360  1
  La  La65  1  0.67292506  0.82644289  0.87948390  1
  La  La66  1  1.00415104  0.84815290  0.12489400  1
  La  La67  1  0.84316303  0.31519815  0.87527423  1
  La  La68  1  1.00560828  0.18064331  0.12611587  1
  La  La69  1  0.83138374  0.01222913  0.62420896  1
  La  La70  1  0.66300479  0.82814015  0.37329500  1
  La  La71  1  0.16268024  0.67916699  0.13092175  1
  In  In72  1  0.50161607  0.16446022  0.00350376  1
  In  In73  1  0.16700604  0.83476886  0.00060780  1
  In  In74  1  0.33002407  0.32977181  0.00521259  1
  In  In75  1  0.00007422  0.33484283  0.74873265  1
  In  In76  1  0.83473024  0.83303030  0.74473948  1
  In  In77  1  0.17043470  0.83328980  0.50153235  1
  In  In78  1  0.66504425  -0.00467991  0.74769583  1
  In  In79  1  0.83715479  0.16511449  0.24746425  1
  In  In80  1  0.83364329  0.16724264  0.74733486  1
  In  In81  1  0.66523109  0.66808222  0.74966320  1
  In  In82  1  0.66663933  0.66969385  0.24832017  1
  In  In83  1  0.49872016  0.83232024  0.75223291  1
  In  In84  1  -0.00143245  0.33371902  0.25300071  1
  In  In85  1  0.50110370  0.16451750  0.25257012  1
  In  In86  1  0.49779330  0.83549698  -0.00273584  1
  In  In87  1  0.66673797  -0.00426801  0.50119180  1
  In  In88  1  0.17009529  0.83042704  0.75107959  1
  In  In89  1  0.66569849  0.33435056  0.49909956  1
  In  In90  1  -0.00167551  0.33179212  0.00154785  1
  In  In91  1  0.83306609  0.50213050  0.49765731  1
  In  In92  1  0.00071534  0.33661077  0.49845531  1
  In  In93  1  0.83306248  0.50022309  0.00006638  1
  In  In94  1  0.33418252  -0.00126033  0.75096451  1
  In  In95  1  0.16735350  0.16581790  0.50058353  1
  In  In96  1  0.32979403  0.33414441  0.75025988  1
  In  In97  1  0.33134266  0.66638152  0.00164474  1
  In  In98  1  -0.00002518  -0.00459433  0.49995800  1
  In  In99  1  0.67073071  0.33343201  -0.00368822  1
  In  In100  1  0.16166656  0.50375175  0.25398771  1
  In  In101  1  0.50058808  0.49784371  0.00111691  1
  In  In102  1  0.66866313  0.00000226  0.24980395  1
  In  In103  1  0.33255657  0.33721958  0.49994799  1
  In  In104  1  0.50003064  0.49681105  0.25050754  1
  In  In105  1  0.50060027  0.16835120  0.75080276  1
  In  In106  1  0.83730336  0.83496056  0.00095447  1
  In  In107  1  0.83314059  0.50062168  0.25006692  1
  Ir  Ir108  1  0.66872050  0.67097077  -0.00239031  1
  Ir  Ir109  1  0.49916125  0.16437063  0.49898306  1
  Ir  Ir110  1  0.16630710  0.83383716  0.24989753  1
  Ir  Ir111  1  0.67188002  0.33280580  0.24897002  1
  Ir  Ir112  1  0.66466403  0.67300624  0.49678998  1
  Ir  Ir113  1  0.49420361  0.83294986  0.25449865  1
  Ir  Ir114  1  0.16756909  0.50565443  0.74860232  1
  Ir  Ir115  1  0.33072223  0.00205795  0.00011899  1
  Ir  Ir116  1  0.83936865  0.16306726  0.00084526  1
  Ir  Ir117  1  0.16296168  0.50366221  0.00048296  1
  Ir  Ir118  1  0.49906517  0.50722939  0.50280726  1
  Ir  Ir119  1  0.66770712  -0.00102471  -0.00127047  1
  Ir  Ir120  1  0.33097187  0.66428039  0.50423719  1
  Ir  Ir121  1  0.00006916  0.66848524  0.50348450  1
  Ir  Ir122  1  0.49717812  0.82876121  0.49676814  1
  Ir  Ir123  1  0.00319267  0.00306165  0.00243734  1
  Ir  Ir124  1  0.16578940  0.50535740  0.50562887  1
  Ir  Ir125  1  0.32660921  0.33079359  0.25037921  1
  Ir  Ir126  1  0.00213805  0.66487737  0.74970141  1
  Ir  Ir127  1  0.00246453  -0.00156868  0.75133399  1
  Ir  Ir128  1  0.83910305  0.83229510  0.25208723  1
  Ir  Ir129  1  0.83465675  0.50116444  0.75128524  1
  Ir  Ir130  1  0.83672515  0.16453104  0.49809531  1
  Ir  Ir131  1  0.49988503  0.50411796  0.74513549  1
  Ir  Ir132  1  0.33902197  -0.00393518  0.49596685  1
  Ir  Ir133  1  0.33017751  -0.00354203  0.25185182  1
  Ir  Ir134  1  0.00002904  0.67010222  0.00122636  1
  Ir  Ir135  1  0.32811743  0.66975157  0.25366906  1
  Ir  Ir136  1  0.16322957  0.16189877  0.75675396  1
  Ir  Ir137  1  0.33091796  0.66376563  0.74703633  1
  Ir  Ir138  1  -0.00197985  0.67588250  0.25003375  1
  Ir  Ir139  1  0.00383727  -0.00350488  0.24593401  1
  Ir  Ir140  1  0.16480313  0.16606865  0.24295066  1
  Ir  Ir141  1  0.67254516  0.33868556  0.74986912  1
  Ir  Ir142  1  0.16322342  0.16098362  0.00089718  1
  Ir  Ir143  1  0.83620843  0.82856225  0.49696779  1
  O  O144  1  0.29454680  0.32778340  0.13257403  1
  O  O145  1  0.31385612  0.34883947  0.62493446  1
  O  O146  1  0.30079911  0.66974881  0.13186584  1
  O  O147  1  0.30032417  0.65040814  0.62589778  1
  O  O148  1  0.29922149  0.99333273  0.12461594  1
  O  O149  1  0.31574761  0.98699757  0.61611313  1
  O  O150  1  0.65872840  0.31703976  0.13005508  1
  O  O151  1  0.65331456  0.33568360  0.63083653  1
  O  O152  1  0.64344468  0.66712853  0.11657396  1
  O  O153  1  0.63596492  0.67105518  0.61760506  1
  O  O154  1  0.65011021  0.99972372  0.11850519  1
  O  O155  1  0.62837494  0.99174686  0.62180827  1
  O  O156  1  0.96447332  0.31757653  0.12570324  1
  O  O157  1  0.96513738  0.33290306  0.62519590  1
  O  O158  1  0.96704523  0.67543506  0.12579723  1
  O  O159  1  0.97712377  0.65453928  0.62702984  1
  O  O160  1  0.98043771  0.98690549  0.12416927  1
  O  O161  1  0.97085174  0.98962248  0.63019704  1
  O  O162  1  0.18675222  0.14879638  0.12078618  1
  O  O163  1  0.18282764  0.16162963  0.63563983  1
  O  O164  1  0.17962320  0.50420737  0.12137267  1
  O  O165  1  0.19785431  0.50651248  0.62738007  1
  O  O166  1  0.18827543  0.81988258  0.12897206  1
  O  O167  1  0.20465264  0.81952214  0.62719923  1
  O  O168  1  0.53325160  0.15859836  0.12909058  1
  O  O169  1  0.51955071  0.15586568  0.61900659  1
  O  O170  1  0.53160339  0.50158489  0.12605163  1
  O  O171  1  0.51818479  0.51227053  0.62361115  1
  O  O172  1  0.51138898  0.83055851  0.13118460  1
  O  O173  1  0.51384402  0.81381174  0.61737171  1
  O  O174  1  0.86918807  0.16127813  0.11910513  1
  O  O175  1  0.85612896  0.15618473  0.61770836  1
  O  O176  1  0.85984784  0.48545438  0.12571213  1
  O  O177  1  0.86392596  0.49119204  0.62980650  1
  O  O178  1  0.86856473  0.82289290  0.13127269  1
  O  O179  1  0.87069339  0.82415272  0.61598076  1
  O  O180  1  0.13545697  0.17449803  0.36225842  1
  O  O181  1  0.13200416  0.16099803  0.88041599  1
  O  O182  1  0.14355495  0.50754121  0.38506505  1
  O  O183  1  0.14329596  0.51274550  0.87297593  1
  O  O184  1  0.13748975  0.83608130  0.37143067  1
  O  O185  1  0.14522164  0.85037681  0.87535177  1
  O  O186  1  0.48357018  0.17151138  0.38032218  1
  O  O187  1  0.47295561  0.16081603  0.87770392  1
  O  O188  1  0.48276282  0.50103276  0.38226751  1
  O  O189  1  0.48212339  0.51119323  0.86509427  1
  O  O190  1  0.46531125  0.84239779  0.37698283  1
  O  O191  1  0.46040508  0.85613376  0.87282235  1
  O  O192  1  0.81432966  0.17065973  0.37891838  1
  O  O193  1  0.81679644  0.17058173  0.88155262  1
  O  O194  1  0.81403478  0.52760430  0.37341028  1
  O  O195  1  0.81560839  0.51847186  0.87191497  1
  O  O196  1  0.80409249  0.82988007  0.37424025  1
  O  O197  1  0.81112740  0.83488536  0.87475286  1
  O  O198  1  0.01998751  0.00388343  0.36702822  1
  O  O199  1  0.03206645  0.01059153  0.87758685  1
  O  O200  1  0.04039868  0.34188804  0.37400198  1
  O  O201  1  0.01682846  0.33492772  0.87550838  1
  O  O202  1  0.02267856  0.68256861  0.37690315  1
  O  O203  1  0.03266836  0.66811346  0.87548163  1
  O  O204  1  0.36518057  -0.00120366  0.37380438  1
  O  O205  1  0.36028925  0.01747665  0.88083722  1
  O  O206  1  0.34506218  0.33746443  0.36986214  1
  O  O207  1  0.34032027  0.32628260  0.87656627  1
  O  O208  1  0.35142966  0.67926541  0.38004639  1
  O  O209  1  0.36362771  0.67458394  0.86450050  1
  O  O210  1  0.68671881  -0.01610843  0.37646331  1
  O  O211  1  0.68670319  -0.00364798  0.88034803  1
  O  O212  1  0.69790939  0.33667546  0.37014300  1
  O  O213  1  0.70680842  0.33727536  0.86825715  1
  O  O214  1  0.69567015  0.68166275  0.37582592  1
  O  O215  1  0.70111366  0.67826929  0.87956347  1
  O  O216  1  0.06443005  0.10020133  0.02339735  1
  O  O217  1  0.07482233  0.08942249  0.50403574  1
  O  O218  1  0.07542928  0.42872686  0.02167978  1
  O  O219  1  0.06955318  0.44473954  0.52813356  1
  O  O220  1  0.06720465  0.76283387  0.02687830  1
  O  O221  1  0.06900627  0.75931391  0.52631462  1
  O  O222  1  0.39652461  0.09097545  0.01839741  1
  O  O223  1  0.40990049  0.08719023  0.52161778  1
  O  O224  1  0.40535369  0.42403196  0.01604577  1
  O  O225  1  0.40635668  0.43919722  0.52051666  1
  O  O226  1  0.40089276  0.76489368  0.00350379  1
  O  O227  1  0.39873474  0.76049331  0.52306842  1
  O  O228  1  0.73762015  0.09851405  0.02200047  1
  O  O229  1  0.74851483  0.08914715  0.52033024  1
  O  O230  1  0.73555743  0.43156666  0.03093555  1
  O  O231  1  0.74637740  0.42197358  0.52068368  1
  O  O232  1  0.74323671  0.75603888  0.02296903  1
  O  O233  1  0.73672711  0.76582603  0.51091818  1
  O  O234  1  0.10059538  0.25697292  0.02965169  1
  O  O235  1  0.09376738  0.26217697  0.51308072  1
  O  O236  1  0.10141509  0.60850493  0.01920092  1
  O  O237  1  0.09711403  0.60150323  0.53234168  1
  O  O238  1  0.09854656  0.93758294  0.02399147  1
  O  O239  1  0.08896622  0.91735346  0.52826841  1
  O  O240  1  0.42271227  0.25390077  0.01948116  1
  O  O241  1  0.42742244  0.25486632  0.51498180  1
  O  O242  1  0.42832683  0.59620899  0.00513452  1
  O  O243  1  0.42610074  0.59957856  0.52810385  1
  O  O244  1  0.42477179  0.93768526  0.01293264  1
  O  O245  1  0.43256317  0.92487458  0.52340589  1
  O  O246  1  0.77717679  0.25944716  0.02106336  1
  O  O247  1  0.77161025  0.26043479  0.51681934  1
  O  O248  1  0.75823781  0.59938702  0.02610057  1
  O  O249  1  0.75319088  0.60063974  0.51254170  1
  O  O250  1  0.75709557  0.92678042  0.01503864  1
  O  O251  1  0.77325800  0.92366668  0.52471919  1
  O  O252  1  0.23395512  0.06599387  0.25967375  1
  O  O253  1  0.23093770  0.06873942  0.77808821  1
  O  O254  1  0.23237316  0.40034333  0.26553075  1
  O  O255  1  0.23205774  0.41351294  0.76775587  1
  O  O256  1  0.23781924  0.74494929  0.27579650  1
  O  O257  1  0.23709213  0.72719248  0.77735762  1
  O  O258  1  0.56811900  0.06441456  0.27846258  1
  O  O259  1  0.56567200  0.06452047  0.76928986  1
  O  O260  1  0.57896272  0.39885860  0.26416114  1
  O  O261  1  0.57186206  0.40979155  0.76655824  1
  O  O262  1  0.57518037  0.75201235  0.27110309  1
  O  O263  1  0.55630811  0.72721233  0.76840513  1
  O  O264  1  0.91514159  0.06770721  0.26599297  1
  O  O265  1  0.91540110  0.07186313  0.76608212  1
  O  O266  1  0.89514260  0.39727418  0.27733297  1
  O  O267  1  0.89520062  0.40562900  0.77308334  1
  O  O268  1  0.90800745  0.74427863  0.28218772  1
  O  O269  1  0.90732704  0.73011787  0.77158669  1
  O  O270  1  0.25110938  0.24110782  0.27540780  1
  O  O271  1  0.25661494  0.22624816  0.77415602  1
  O  O272  1  0.25553723  0.58192626  0.26441639  1
  O  O273  1  0.26280427  0.57211514  0.77065567  1
  O  O274  1  0.26235860  0.90000491  0.27554663  1
  O  O275  1  0.26955296  0.89983889  0.77454200  1
  O  O276  1  0.60659270  0.23859755  0.26155980  1
  O  O277  1  0.60136596  0.24938223  0.76702527  1
  O  O278  1  0.59245419  0.57666310  0.26113497  1
  O  O279  1  0.58917725  0.57450785  0.76574737  1
  O  O280  1  0.58547199  0.90262261  0.27330475  1
  O  O281  1  0.60243516  0.89253306  0.77914959  1
  O  O282  1  0.93809478  0.22877657  0.27688703  1
  O  O283  1  0.92724930  0.23721843  0.77779567  1
  O  O284  1  0.92519539  0.58950729  0.26841081  1
  O  O285  1  0.92940433  0.57257891  0.76927722  1
  O  O286  1  0.94020248  0.89726867  0.27023829  1
  O  O287  1  0.93626112  0.90492608  0.76170498  1
  O  O288  1  0.25380736  0.24647072  0.48029938  1
  O  O289  1  0.25809650  0.22175621  0.97869360  1
  O  O290  1  0.26562102  0.56822496  0.48929399  1
  O  O291  1  0.25116734  0.57522254  0.97958379  1
  O  O292  1  0.27318133  0.90102366  0.47694793  1
  O  O293  1  0.26717171  0.90847408  0.97233061  1
  O  O294  1  0.58890106  0.23825718  0.48792708  1
  O  O295  1  0.60412413  0.23332788  0.99401756  1
  O  O296  1  0.59236827  0.58142111  0.47971321  1
  O  O297  1  0.59530600  0.58524611  0.97673794  1
  O  O298  1  0.58710590  0.89836343  0.46977680  1
  O  O299  1  0.59892999  0.90621791  0.97697633  1
  O  O300  1  0.92802747  0.23246476  0.46897822  1
  O  O301  1  0.93413942  0.22546896  0.97696667  1
  O  O302  1  0.93157998  0.57760748  0.49142566  1
  O  O303  1  0.92683936  0.58233296  0.98246026  1
  O  O304  1  0.93225778  0.89130043  0.47696502  1
  O  O305  1  0.93873951  0.90704042  0.99080702  1
  O  O306  1  0.24971545  0.06933992  0.48329123  1
  O  O307  1  0.22663100  0.06095890  0.98167639  1
  O  O308  1  0.22762863  0.41078345  0.47972365  1
  O  O309  1  0.22848282  0.40761305  0.99644060  1
  O  O310  1  0.24225862  0.73547518  0.48715144  1
  O  O311  1  0.23643978  0.73831676  0.96888759  1
  O  O312  1  0.56419762  0.06818910  0.47969096  1
  O  O313  1  0.57162366  0.06219071  0.97781313  1
  O  O314  1  0.57227621  0.41752265  0.48946006  1
  O  O315  1  0.57715573  0.40752432  0.98091884  1
  O  O316  1  0.57666283  0.74652027  0.46845341  1
  O  O317  1  0.57980821  0.74341049  0.96367876  1
  O  O318  1  0.90731398  0.07365713  0.48079836  1
  O  O319  1  0.90988558  0.07056560  0.97647256  1
  O  O320  1  0.90025270  0.40077698  0.47146818  1
  O  O321  1  0.89445335  0.39560810  0.97899367  1
  O  O322  1  0.90420268  0.73385116  0.47131698  1
  O  O323  1  0.90327991  0.73162975  0.97914937  1
  O  O324  1  0.09849701  0.25697212  0.21497033  1
  O  O325  1  0.09600078  0.25355929  0.73848799  1
  O  O326  1  0.09132931  0.60813599  0.22890741  1
  O  O327  1  0.10123207  0.60176512  0.72708178  1
  O  O328  1  0.09802845  0.92591637  0.21906166  1
  O  O329  1  0.09026360  0.92531990  0.72989438  1
  O  O330  1  0.41762237  0.25856056  0.23817779  1
  O  O331  1  0.42445759  0.26017943  0.73483391  1
  O  O332  1  0.41411119  0.59348251  0.23815238  1
  O  O333  1  0.42902922  0.59929318  0.72206696  1
  O  O334  1  0.42543605  0.92769251  0.24071250  1
  O  O335  1  0.43239813  0.92774490  0.71589735  1
  O  O336  1  0.77171042  0.27142890  0.23419948  1
  O  O337  1  0.76738497  0.27326162  0.72960484  1
  O  O338  1  0.75983065  0.59533211  0.21471372  1
  O  O339  1  0.76485135  0.59166267  0.73584748  1
  O  O340  1  0.76432720  0.91769543  0.23252902  1
  O  O341  1  0.76910928  0.93233565  0.71857088  1
  O  O342  1  0.07039435  0.09371442  0.21926761  1
  O  O343  1  0.06860797  0.09385254  0.73864617  1
  O  O344  1  0.07420279  0.42569866  0.22301067  1
  O  O345  1  0.07152321  0.44104645  0.72679489  1
  O  O346  1  0.06988303  0.76761020  0.22415065  1
  O  O347  1  0.07030931  0.75706026  0.72088324  1
  O  O348  1  0.40215091  0.08466435  0.23687691  1
  O  O349  1  0.40529753  0.09096067  0.73038650  1
  O  O350  1  0.40169216  0.41783749  0.23219207  1
  O  O351  1  0.40607534  0.43814316  0.73075840  1
  O  O352  1  0.39890487  0.76290681  0.24293572  1
  O  O353  1  0.39144194  0.75949603  0.72356365  1
  O  O354  1  0.73706933  0.09974356  0.22789596  1
  O  O355  1  0.74495518  0.08898137  0.73103568  1
  O  O356  1  0.73059397  0.43031063  0.22285750  1
  O  O357  1  0.74502906  0.43056947  0.72485089  1
  O  O358  1  0.75311532  0.75799240  0.22865804  1
  O  O359  1  0.73522404  0.76382417  0.73929352  1
