# generated using pymatgen
data_BaLaInIrO6
_symmetry_space_group_name_H-M   'P 1'
_cell_length_a   17.53861067
_cell_length_b   17.56709122
_cell_length_c   16.50216460
_cell_angle_alpha   89.98285338
_cell_angle_beta   90.00296309
_cell_angle_gamma   90.04184783
_symmetry_Int_Tables_number   1
_chemical_formula_structural   BaLaInIrO6
_chemical_formula_sum   'Ba36 La36 In36 Ir36 O216'
_cell_volume   5084.35449225
_cell_formula_units_Z   36
loop_
 _symmetry_equiv_pos_site_id
 _symmetry_equiv_pos_as_xyz
  1  'x, y, z'
loop_
 _atom_site_type_symbol
 _atom_site_label
 _atom_site_symmetry_multiplicity
 _atom_site_fract_x
 _atom_site_fract_y
 _atom_site_fract_z
 _atom_site_occupancy
  Ba  Ba0  1  0.83676542  0.98671558  0.87592057  1
  Ba  Ba1  1  0.66698743  0.15681692  0.87638345  1
  Ba  Ba2  1  0.66874370  0.49096933  0.87769495  1
  Ba  Ba3  1  0.66520937  0.49481426  0.37726080  1
  Ba  Ba4  1  0.16730943  0.67593963  0.12370154  1
  Ba  Ba5  1  0.33615538  0.17630258  0.62445834  1
  Ba  Ba6  1  0.00051905  0.15223253  0.87966678  1
  Ba  Ba7  1  0.49906043  0.32965944  0.37311891  1
  Ba  Ba8  1  0.49550294  0.67354630  0.62522532  1
  Ba  Ba9  1  0.33112712  0.82203968  0.37666160  1
  Ba  Ba10  1  0.50172743  0.99652098  0.87277327  1
  Ba  Ba11  1  0.49752187  0.01440694  0.12801771  1
  Ba  Ba12  1  0.83795316  0.34136832  0.12500546  1
  Ba  Ba13  1  0.17022989  0.65265035  0.37453831  1
  Ba  Ba14  1  0.16512787  0.34547498  0.12142622  1
  Ba  Ba15  1  0.83320203  0.65530972  0.37496570  1
  Ba  Ba16  1  0.50508413  0.32537860  0.87563604  1
  Ba  Ba17  1  0.33241819  0.50644657  0.62185961  1
  Ba  Ba18  1  0.49860589  0.00930535  0.62416713  1
  Ba  Ba19  1  0.82877775  0.00896792  0.12528736  1
  Ba  Ba20  1  1.00650729  0.17576555  0.63019940  1
  Ba  Ba21  1  0.66338721  0.50442934  0.62352205  1
  Ba  Ba22  1  0.16881936  0.99240967  0.87355239  1
  Ba  Ba23  1  0.16357046  0.34606450  0.62863061  1
  Ba  Ba24  1  0.16717691  0.67391902  0.62408930  1
  Ba  Ba25  1  -0.00397998  0.16195068  0.37624796  1
  Ba  Ba26  1  0.33156713  0.15784320  0.87634038  1
  Ba  Ba27  1  0.16463405  0.00922702  0.62319841  1
  Ba  Ba28  1  0.83266727  0.00887159  0.62523664  1
  Ba  Ba29  1  0.67216475  0.50688373  0.12280899  1
  Ba  Ba30  1  0.66486636  0.83756585  0.12583479  1
  Ba  Ba31  1  0.83107469  0.67242057  0.62497981  1
  Ba  Ba32  1  0.83451787  0.65611239  0.87781331  1
  Ba  Ba33  1  0.50119431  0.65931194  0.37288943  1
  Ba  Ba34  1  0.16193364  0.00934041  0.12660735  1
  Ba  Ba35  1  0.49530211  0.98863344  0.37769771  1
  La  La36  1  0.32977008  0.48629211  0.87121877  1
  La  La37  1  0.50289485  0.65484352  0.87604318  1
  La  La38  1  0.83486080  0.98061974  0.37349041  1
  La  La39  1  0.17323278  0.31601483  0.87565554  1
  La  La40  1  1.00517539  0.18152449  0.12372585  1
  La  La41  1  0.83648598  0.32888503  0.37346905  1
  La  La42  1  1.00524692  0.51219302  0.12474711  1
  La  La43  1  0.49879097  0.34635771  0.62059014  1
  La  La44  1  -0.00282317  0.48787338  0.37414781  1
  La  La45  1  0.65794141  0.81571799  0.37809808  1
  La  La46  1  0.66706241  0.84532929  0.62505243  1
  La  La47  1  0.33681359  0.84365750  0.62424025  1
  La  La48  1  0.50280731  0.34953230  0.12094859  1
  La  La49  1  0.83460300  0.31822513  0.87723220  1
  La  La50  1  0.33710380  0.51359037  0.12465560  1
  La  La51  1  0.66837238  0.17842256  0.63239905  1
  La  La52  1  0.67228561  0.18032704  0.12107241  1
  La  La53  1  1.00258503  0.85058046  0.12137037  1
  La  La54  1  1.00995123  0.51486711  0.62442825  1
  La  La55  1  -0.00156343  0.82572724  0.87620684  1
  La  La56  1  0.16976851  0.32134940  0.37409596  1
  La  La57  1  0.83263000  0.34122313  0.62548796  1
  La  La58  1  -0.00895747  0.48564721  0.87534804  1
  La  La59  1  -0.00290953  0.82181232  0.37278284  1
  La  La60  1  0.16893229  0.64898436  0.87674698  1
  La  La61  1  0.32641759  0.14862081  0.37131706  1
  La  La62  1  0.49723583  0.68157621  0.12457333  1
  La  La63  1  0.17236151  0.98211345  0.37578339  1
  La  La64  1  0.66179097  0.15371273  0.37020500  1
  La  La65  1  0.34078554  0.85165474  0.12698756  1
  La  La66  1  0.33618690  0.18124495  0.12342279  1
  La  La67  1  0.66525160  0.82190920  0.87322418  1
  La  La68  1  0.82946728  0.67797810  0.12296616  1
  La  La69  1  0.32760599  0.82020456  0.87348021  1
  La  La70  1  1.00624426  0.84781229  0.62788891  1
  La  La71  1  0.33045456  0.49196962  0.37782141  1
  In  In72  1  0.66869859  0.66175026  0.24756046  1
  In  In73  1  0.00079836  0.33409846  0.50182418  1
  In  In74  1  0.00000704  0.00149070  0.49539820  1
  In  In75  1  0.33382665  0.33444678  0.24914756  1
  In  In76  1  0.66779041  0.33497796  0.24962193  1
  In  In77  1  0.00334399  0.33524426  -0.00072891  1
  In  In78  1  0.49777466  0.83081961  0.75114029  1
  In  In79  1  0.49715372  0.83394991  -0.00342304  1
  In  In80  1  0.33166661  0.66505169  0.24883423  1
  In  In81  1  0.33006973  0.66648569  0.75111659  1
  In  In82  1  0.50134983  0.16876755  0.49493068  1
  In  In83  1  0.49953322  0.83444198  0.25162752  1
  In  In84  1  0.66837343  0.33524509  0.74991601  1
  In  In85  1  0.66649821  -0.00241945  0.00062058  1
  In  In86  1  0.00086180  0.66755272  0.49927556  1
  In  In87  1  0.16619946  0.16576428  0.74923414  1
  In  In88  1  -0.00049200  0.00440718  0.25168024  1
  In  In89  1  0.83299250  0.83034676  0.49897037  1
  In  In90  1  0.66472465  -0.00116782  0.25103630  1
  In  In91  1  0.50328438  0.16876135  0.74795342  1
  In  In92  1  0.33188627  0.33282426  0.49809209  1
  In  In93  1  0.33438626  0.33504637  0.74871599  1
  In  In94  1  0.16852238  0.83325062  -0.00049333  1
  In  In95  1  -0.00001214  0.66663045  0.24742186  1
  In  In96  1  0.82874821  0.16691248  0.49968327  1
  In  In97  1  0.00043165  0.66673409  0.00029468  1
  In  In98  1  0.83558103  0.82909521  0.74884837  1
  In  In99  1  0.49815059  0.50327422  0.75221778  1
  In  In100  1  0.66766613  0.33088902  0.49769506  1
  In  In101  1  0.67012792  -0.00191488  0.75059548  1
  In  In102  1  0.33459020  0.33671281  0.00223488  1
  In  In103  1  0.33112179  -0.00102273  0.49977350  1
  In  In104  1  0.33330749  -0.00039756  0.75127759  1
  In  In105  1  0.83695201  0.50063087  0.74676162  1
  In  In106  1  0.83073615  0.16718859  0.24980065  1
  In  In107  1  0.16555911  0.83184848  0.24655369  1
  Ir  Ir108  1  0.16624236  0.16915507  0.25027263  1
  Ir  Ir109  1  0.49742873  0.16985219  0.24825228  1
  Ir  Ir110  1  0.66821925  0.33338529  0.00149046  1
  Ir  Ir111  1  -0.00329219  -0.00008155  0.00030675  1
  Ir  Ir112  1  0.16561591  0.49613073  0.24857318  1
  Ir  Ir113  1  0.32762646  0.00548735  0.24673701  1
  Ir  Ir114  1  0.16302687  0.49973196  0.49845458  1
  Ir  Ir115  1  0.50027431  0.50579390  0.00549833  1
  Ir  Ir116  1  0.16663156  0.50224896  -0.00147972  1
  Ir  Ir117  1  0.66621344  0.66480278  -0.00263786  1
  Ir  Ir118  1  0.83573170  0.49677948  0.00007177  1
  Ir  Ir119  1  0.16767824  0.16432291  0.00614013  1
  Ir  Ir120  1  0.50207979  0.17006527  0.00710739  1
  Ir  Ir121  1  0.83310569  0.83071000  0.24969727  1
  Ir  Ir122  1  0.15768672  0.50118396  0.75649829  1
  Ir  Ir123  1  0.16557521  0.83091651  0.50475186  1
  Ir  Ir124  1  0.50279014  0.82903872  0.50174338  1
  Ir  Ir125  1  0.84136816  0.16883753  0.75095962  1
  Ir  Ir126  1  0.49676832  0.50452663  0.49498274  1
  Ir  Ir127  1  0.83680848  0.16764193  0.00025169  1
  Ir  Ir128  1  0.66549937  0.66650635  0.75191162  1
  Ir  Ir129  1  0.83398592  0.82873737  0.00219370  1
  Ir  Ir130  1  0.84048831  0.49747306  0.24926892  1
  Ir  Ir131  1  0.16277214  0.82933578  0.75156313  1
  Ir  Ir132  1  0.16543816  0.16813075  0.49274736  1
  Ir  Ir133  1  0.49888424  0.50177132  0.24512068  1
  Ir  Ir134  1  0.33213175  0.66523876  0.49943322  1
  Ir  Ir135  1  0.33300827  0.00306943  0.00424231  1
  Ir  Ir136  1  0.00007763  0.33590366  0.75445078  1
  Ir  Ir137  1  0.00491205  0.33582437  0.25099195  1
  Ir  Ir138  1  0.33346896  0.66404683  -0.00050763  1
  Ir  Ir139  1  0.66529463  0.66506820  0.50600438  1
  Ir  Ir140  1  0.00485837  0.66682180  0.75241468  1
  Ir  Ir141  1  0.83716863  0.49823372  0.49611014  1
  Ir  Ir142  1  0.00052749  -0.00390565  0.75277120  1
  Ir  Ir143  1  0.66768612  -0.00109019  0.49771634  1
  O  O144  1  0.31270468  0.32432459  0.12548961  1
  O  O145  1  0.31260910  0.34214265  0.62234212  1
  O  O146  1  0.31164292  0.64735217  0.11746586  1
  O  O147  1  0.31565307  0.66252969  0.61990164  1
  O  O148  1  0.31107286  0.99389166  0.12520743  1
  O  O149  1  0.31287685  0.98175918  0.62283123  1
  O  O150  1  0.63687581  0.32706929  0.12098364  1
  O  O151  1  0.63194645  0.32490640  0.62153309  1
  O  O152  1  0.63591424  0.66198111  0.11685263  1
  O  O153  1  0.64336848  0.65837411  0.63013559  1
  O  O154  1  0.64690282  0.99172519  0.12506854  1
  O  O155  1  0.64695709  0.98212477  0.61642767  1
  O  O156  1  0.98873592  0.32426664  0.12908699  1
  O  O157  1  0.97107019  0.33261832  0.63328963  1
  O  O158  1  0.96589183  0.64751701  0.12379017  1
  O  O159  1  0.98216682  0.65270672  0.63146218  1
  O  O160  1  0.97734950  0.99256627  0.12112097  1
  O  O161  1  0.98354495  0.98933218  0.62948687  1
  O  O162  1  0.19796501  0.16457287  0.12984556  1
  O  O163  1  0.18316459  0.16970327  0.61309853  1
  O  O164  1  0.19982105  0.49744011  0.12276270  1
  O  O165  1  0.18244980  0.50081472  0.62724764  1
  O  O166  1  0.20628283  0.83310119  0.12166621  1
  O  O167  1  0.19760166  0.82902750  0.62793680  1
  O  O168  1  0.53342749  0.16815736  0.12906922  1
  O  O169  1  0.53528473  0.16555835  0.61846131  1
  O  O170  1  0.52402297  0.49061598  0.12562250  1
  O  O171  1  0.50757343  0.49224098  0.61736551  1
  O  O172  1  0.51364088  0.82282728  0.12235673  1
  O  O173  1  0.53125970  0.82860137  0.62082617  1
  O  O174  1  0.86863970  0.16445329  0.12017431  1
  O  O175  1  0.86097090  0.16613386  0.63275714  1
  O  O176  1  0.87001800  0.49608965  0.12606931  1
  O  O177  1  0.87175610  0.49202098  0.61648653  1
  O  O178  1  0.86749938  0.82249362  0.12587524  1
  O  O179  1  0.86948176  0.82950257  0.62360157  1
  O  O180  1  0.14256645  0.18146872  0.37047290  1
  O  O181  1  0.15035604  0.17277854  0.88502073  1
  O  O182  1  0.13341527  0.49823132  0.37225951  1
  O  O183  1  0.12748094  0.51161529  0.87791627  1
  O  O184  1  0.13555580  0.83855595  0.38276113  1
  O  O185  1  0.13373159  0.83370669  0.87115075  1
  O  O186  1  0.46132514  0.17426415  0.36427761  1
  O  O187  1  0.48189391  0.17220042  0.88743981  1
  O  O188  1  0.46816589  0.50627327  0.36709307  1
  O  O189  1  0.46790579  0.51362143  0.88847321  1
  O  O190  1  0.48253453  0.82540096  0.38201916  1
  O  O191  1  0.46156212  0.82441488  0.87663556  1
  O  O192  1  0.79668913  0.19110062  0.37452921  1
  O  O193  1  0.81584428  0.17999680  0.87565775  1
  O  O194  1  0.81235587  0.49664600  0.37259191  1
  O  O195  1  0.81847200  0.49863360  0.87956808  1
  O  O196  1  0.79762269  0.83436361  0.36847156  1
  O  O197  1  0.80457205  0.82831320  0.88110359  1
  O  O198  1  0.04042764  0.00407527  0.37350787  1
  O  O199  1  0.01911785  -0.00810400  0.87736613  1
  O  O200  1  0.03248003  0.34788384  0.37043638  1
  O  O201  1  0.03644001  0.34792551  0.87339888  1
  O  O202  1  0.02317390  0.68216879  0.37231074  1
  O  O203  1  0.03337279  0.68079694  0.87255301  1
  O  O204  1  0.34341819  0.00959066  0.36755047  1
  O  O205  1  0.35034390  0.00350303  0.88589941  1
  O  O206  1  0.34844076  0.35176881  0.37234443  1
  O  O207  1  0.35119797  0.34528238  0.87897135  1
  O  O208  1  0.34842921  0.65975054  0.37911417  1
  O  O209  1  0.36220377  0.67845657  0.88293029  1
  O  O210  1  0.70013941  0.01470866  0.37882492  1
  O  O211  1  0.68952273  0.00190170  0.87721466  1
  O  O212  1  0.70059684  0.34157381  0.37403298  1
  O  O213  1  0.69816070  0.33556735  0.88086109  1
  O  O214  1  0.68334998  0.67224953  0.38314982  1
  O  O215  1  0.68984200  0.68088981  0.87369245  1
  O  O216  1  0.06591718  0.09668836  0.02647807  1
  O  O217  1  0.07449703  0.10008551  0.51333245  1
  O  O218  1  0.07002267  0.43835063  0.02139585  1
  O  O219  1  0.06645124  0.43647662  0.51983940  1
  O  O220  1  0.06780134  0.76655172  0.02519381  1
  O  O221  1  0.07349174  0.76559521  0.52815845  1
  O  O222  1  0.40195910  0.10389767  0.02840968  1
  O  O223  1  0.40304941  0.09522394  0.50413680  1
  O  O224  1  0.40866654  0.43556131  0.02963361  1
  O  O225  1  0.40713400  0.43632944  0.50201377  1
  O  O226  1  0.39535788  0.75715717  0.02936087  1
  O  O227  1  0.40120703  0.76196676  0.52362103  1
  O  O228  1  0.74397269  0.10161981  0.02382758  1
  O  O229  1  0.72607465  0.09561573  0.52329499  1
  O  O230  1  0.74206218  0.42519466  0.01862219  1
  O  O231  1  0.75553342  0.42127344  0.52245307  1
  O  O232  1  0.74654253  0.75098056  0.02721027  1
  O  O233  1  0.73118496  0.75954055  0.52437753  1
  O  O234  1  0.09337941  0.25157696  0.01885772  1
  O  O235  1  0.10155241  0.26461474  0.50549583  1
  O  O236  1  0.09766095  0.59225906  0.01681188  1
  O  O237  1  0.09230330  0.58810004  0.51735932  1
  O  O238  1  0.08518551  0.92741336  0.01787727  1
  O  O239  1  0.09248771  0.91734712  0.52197550  1
  O  O240  1  0.43363152  0.26167176  0.02901487  1
  O  O241  1  0.43448298  0.27069749  0.52219542  1
  O  O242  1  0.43300173  0.60062540  0.02845733  1
  O  O243  1  0.42559762  0.59674717  0.51364637  1
  O  O244  1  0.41949789  0.92997293  0.02376041  1
  O  O245  1  0.42553746  0.91335007  0.51712312  1
  O  O246  1  0.76208569  0.26043846  0.01986846  1
  O  O247  1  0.75655980  0.25669824  0.54407690  1
  O  O248  1  0.76661718  0.59430008  0.02285757  1
  O  O249  1  0.75895893  0.58854974  0.52026310  1
  O  O250  1  0.76459600  0.91552705  0.01879794  1
  O  O251  1  0.75747810  0.92846041  0.51083592  1
  O  O252  1  0.23076391  0.07414228  0.27606111  1
  O  O253  1  0.23913756  0.07312497  0.76115191  1
  O  O254  1  0.22922150  0.40362783  0.27209449  1
  O  O255  1  0.22454480  0.41063904  0.78231027  1
  O  O256  1  0.23864069  0.73828121  0.26603980  1
  O  O257  1  0.22810608  0.73593824  0.77971923  1
  O  O258  1  0.56478982  0.08032085  0.27420490  1
  O  O259  1  0.57765621  0.07201032  0.75912189  1
  O  O260  1  0.56637254  0.40763883  0.25743728  1
  O  O261  1  0.57458421  0.41216317  0.76241333  1
  O  O262  1  0.58173792  0.74271025  0.26312722  1
  O  O263  1  0.57202148  0.73253576  0.77705426  1
  O  O264  1  0.89750857  0.06767225  0.27811157  1
  O  O265  1  0.90888695  0.07014084  0.76957568  1
  O  O266  1  0.91027304  0.40424396  0.27799352  1
  O  O267  1  0.90939290  0.40191968  0.78013389  1
  O  O268  1  0.90320566  0.74361671  0.26682711  1
  O  O269  1  0.91711413  0.73757587  0.77398012  1
  O  O270  1  0.26281319  0.23237179  0.27262687  1
  O  O271  1  0.25184075  0.24910833  0.77183285  1
  O  O272  1  0.26554062  0.55691771  0.26481804  1
  O  O273  1  0.25286918  0.56987437  0.78331577  1
  O  O274  1  0.25558940  0.91695857  0.26979196  1
  O  O275  1  0.25792308  0.89213880  0.77388754  1
  O  O276  1  0.59233656  0.23272030  0.27040610  1
  O  O277  1  0.60522187  0.23545869  0.76165305  1
  O  O278  1  0.58977493  0.56882885  0.26296947  1
  O  O279  1  0.59445463  0.58004597  0.77490347  1
  O  O280  1  0.59615231  0.90361414  0.28129973  1
  O  O281  1  0.60216777  0.89226861  0.76775587  1
  O  O282  1  0.92891993  0.24945086  0.26735674  1
  O  O283  1  0.93011182  0.24521045  0.78069697  1
  O  O284  1  0.93350886  0.56211780  0.27130598  1
  O  O285  1  0.93987009  0.57014021  0.77218417  1
  O  O286  1  0.92324122  0.90140562  0.27744264  1
  O  O287  1  0.93697104  0.90021228  0.77081400  1
  O  O288  1  0.26023642  0.23364823  0.46767108  1
  O  O289  1  0.25444714  0.23975591  0.98859707  1
  O  O290  1  0.26355727  0.56632090  0.47700686  1
  O  O291  1  0.26556676  0.56794600  0.97195396  1
  O  O292  1  0.25031565  0.90533363  0.47955050  1
  O  O293  1  0.26954521  0.90577845  0.97961288  1
  O  O294  1  0.59936643  0.23477855  0.46224258  1
  O  O295  1  0.59867764  0.23730800  0.98925644  1
  O  O296  1  0.59052447  0.57519760  0.48617296  1
  O  O297  1  0.58855665  0.57901251  0.97199556  1
  O  O298  1  0.60258108  0.89550991  0.47923476  1
  O  O299  1  0.59636251  0.89839242  0.97084954  1
  O  O300  1  0.91595743  0.25295760  0.47663079  1
  O  O301  1  0.92295296  0.24328404  0.98233200  1
  O  O302  1  0.92904466  0.56617206  0.47612752  1
  O  O303  1  0.93107140  0.56236107  0.97921467  1
  O  O304  1  0.92619700  0.90656718  0.46300465  1
  O  O305  1  0.93112300  0.89715140  0.98040726  1
  O  O306  1  0.23054160  0.07352656  0.47079141  1
  O  O307  1  0.23889743  0.07494003  0.98794967  1
  O  O308  1  0.23051917  0.40874956  0.47273947  1
  O  O309  1  0.23299430  0.41073483  0.97226068  1
  O  O310  1  0.23953468  0.73840826  0.48339650  1
  O  O311  1  0.23992812  0.73025135  0.97023171  1
  O  O312  1  0.57952688  0.06716119  0.47505486  1
  O  O313  1  0.56921022  0.07986877  0.99176793  1
  O  O314  1  0.56870968  0.41499758  0.48581373  1
  O  O315  1  0.56946344  0.40579839  0.98919344  1
  O  O316  1  0.57864729  0.74017598  0.47980293  1
  O  O317  1  0.57410463  0.73256512  0.97675367  1
  O  O318  1  0.89713071  0.06847297  0.47354598  1
  O  O319  1  0.90375688  0.07406256  0.98217505  1
  O  O320  1  0.90710677  0.41146296  0.46819718  1
  O  O321  1  0.90435293  0.40497346  0.97394543  1
  O  O322  1  0.91124251  0.74336465  0.47512160  1
  O  O323  1  0.90692355  0.74306152  0.98249319  1
  O  O324  1  0.09975547  0.26591765  0.23281214  1
  O  O325  1  0.09022821  0.26575477  0.74253295  1
  O  O326  1  0.09498702  0.58459184  0.22626378  1
  O  O327  1  0.09386433  0.59583336  0.73471071  1
  O  O328  1  0.08622113  0.92265515  0.22947371  1
  O  O329  1  0.09090405  0.92080342  0.72662291  1
  O  O330  1  0.43372359  0.26255031  0.21879399  1
  O  O331  1  0.43635331  0.27105912  0.72473135  1
  O  O332  1  0.43283140  0.59464702  0.21956187  1
  O  O333  1  0.43124905  0.60276910  0.74986359  1
  O  O334  1  0.41519943  0.92827597  0.23270311  1
  O  O335  1  0.42422142  0.92350362  0.73181702  1
  O  O336  1  0.75288733  0.25583107  0.21628869  1
  O  O337  1  0.77707319  0.26299347  0.73379980  1
  O  O338  1  0.77273528  0.59204403  0.22523547  1
  O  O339  1  0.75707808  0.59508421  0.73777234  1
  O  O340  1  0.76701273  0.92198471  0.23908311  1
  O  O341  1  0.75974208  0.91949176  0.72677533  1
  O  O342  1  0.06829226  0.10832980  0.22516093  1
  O  O343  1  0.07080017  0.08643636  0.74068141  1
  O  O344  1  0.06643563  0.43379530  0.22769096  1
  O  O345  1  0.06035761  0.43565768  0.73052590  1
  O  O346  1  0.06447874  0.76588106  0.21921402  1
  O  O347  1  0.06603207  0.76486893  0.72707391  1
  O  O348  1  0.39526859  0.10588418  0.22701852  1
  O  O349  1  0.40716262  0.09601362  0.73684195  1
  O  O350  1  0.40429120  0.43658860  0.22486702  1
  O  O351  1  0.39491562  0.44001883  0.74962175  1
  O  O352  1  0.40582581  0.75844033  0.22371913  1
  O  O353  1  0.39051919  0.76939359  0.73048372  1
  O  O354  1  0.72849078  0.10055492  0.22937922  1
  O  O355  1  0.74747064  0.10313778  0.72819227  1
  O  O356  1  0.75082993  0.42902508  0.23294463  1
  O  O357  1  0.75281264  0.41827412  0.72006744  1
  O  O358  1  0.75041291  0.75313863  0.22393059  1
  O  O359  1  0.73091967  0.75957635  0.72864104  1
