# generated using pymatgen
data_BaLaInIrO6
_symmetry_space_group_name_H-M   'P 1'
_cell_length_a   17.50493993
_cell_length_b   17.52660642
_cell_length_c   16.47588348
_cell_angle_alpha   90.01295612
_cell_angle_beta   89.98686518
_cell_angle_gamma   89.99063137
_symmetry_Int_Tables_number   1
_chemical_formula_structural   BaLaInIrO6
_chemical_formula_sum   'Ba36 La36 In36 Ir36 O216'
_cell_volume   5054.83684351
_cell_formula_units_Z   36
loop_
 _symmetry_equiv_pos_site_id
 _symmetry_equiv_pos_as_xyz
  1  'x, y, z'
loop_
 _atom_site_type_symbol
 _atom_site_label
 _atom_site_symmetry_multiplicity
 _atom_site_fract_x
 _atom_site_fract_y
 _atom_site_fract_z
 _atom_site_occupancy
  Ba  Ba0  1  0.50270520  0.65895202  0.87736539  1
  Ba  Ba1  1  0.50044496  0.32645816  0.87679560  1
  Ba  Ba2  1  0.33711220  0.50229571  0.12657650  1
  Ba  Ba3  1  0.32901201  0.82399442  0.37651706  1
  Ba  Ba4  1  0.83202231  0.34473464  0.12097168  1
  Ba  Ba5  1  0.16940885  0.99252133  0.37803441  1
  Ba  Ba6  1  0.33396494  0.16337432  0.37399816  1
  Ba  Ba7  1  0.16620739  0.32556268  0.37167360  1
  Ba  Ba8  1  0.83863920  0.66011248  0.87285796  1
  Ba  Ba9  1  1.00035177  0.17383805  0.62451519  1
  Ba  Ba10  1  0.66864000  0.50919809  0.12069051  1
  Ba  Ba11  1  0.82937677  0.00692558  0.62454293  1
  Ba  Ba12  1  0.83841677  0.65429107  0.37399173  1
  Ba  Ba13  1  0.16783307  0.67336078  0.62835272  1
  Ba  Ba14  1  0.16884941  0.65390145  0.87636985  1
  Ba  Ba15  1  0.66255885  0.83916794  0.12702456  1
  Ba  Ba16  1  0.66813212  0.50892401  0.62705031  1
  Ba  Ba17  1  0.49914942  0.34265821  0.12148740  1
  Ba  Ba18  1  0.32812041  0.82076382  0.87938395  1
  Ba  Ba19  1  0.50216446  0.67177276  0.12886949  1
  Ba  Ba20  1  0.49704867  0.34148954  0.62511776  1
  Ba  Ba21  1  0.83310763  0.34138848  0.62478277  1
  Ba  Ba22  1  0.66879878  0.84173185  0.62512481  1
  Ba  Ba23  1  0.66047390  0.16148892  0.87790791  1
  Ba  Ba24  1  0.16872943  0.65734250  0.37756082  1
  Ba  Ba25  1  0.16559574  0.34003958  0.12635602  1
  Ba  Ba26  1  -0.00418820  0.48984018  0.37600294  1
  Ba  Ba27  1  0.16363873  0.34080791  0.61871761  1
  Ba  Ba28  1  0.50253275  0.65822244  0.37396772  1
  Ba  Ba29  1  0.33546476  0.18092677  0.12485076  1
  Ba  Ba30  1  0.83089782  0.99271970  0.87752591  1
  Ba  Ba31  1  0.00051245  0.82117977  0.37699358  1
  Ba  Ba32  1  0.66826204  0.48871675  0.37291625  1
  Ba  Ba33  1  -0.00359756  0.82338798  0.87661386  1
  Ba  Ba34  1  0.00334448  0.49563269  0.87256874  1
  Ba  Ba35  1  0.33066731  0.48766957  0.87638211  1
  La  La36  1  0.83922318  0.32122896  0.37334703  1
  La  La37  1  0.49398954  0.01766792  0.12375669  1
  La  La38  1  0.82712950  0.01448559  0.12630548  1
  La  La39  1  0.17292343  0.98779979  0.86803341  1
  La  La40  1  0.50311987  0.98302800  0.37281671  1
  La  La41  1  0.83583587  0.98402994  0.37367029  1
  La  La42  1  0.16477937  0.01074873  0.61996416  1
  La  La43  1  0.33769369  0.84840219  0.62136171  1
  La  La44  1  0.34287368  0.84712057  0.13374516  1
  La  La45  1  0.99967042  0.84595872  0.12735453  1
  La  La46  1  0.33483578  0.17976035  0.62266120  1
  La  La47  1  0.67243599  0.18274934  0.62519586  1
  La  La48  1  0.49635789  0.02080899  0.62364332  1
  La  La49  1  0.82794602  0.68110054  0.12232560  1
  La  La50  1  0.32926003  0.48584603  0.37344538  1
  La  La51  1  0.83409983  0.32593100  0.87060226  1
  La  La52  1  0.66172295  0.82070983  0.87610725  1
  La  La53  1  1.00060219  0.84576602  0.63115482  1
  La  La54  1  -0.00130867  0.15416294  0.37201299  1
  La  La55  1  0.66269015  0.48820975  0.87604936  1
  La  La56  1  0.66117398  0.15358073  0.37649324  1
  La  La57  1  1.00535831  0.18102850  0.12573110  1
  La  La58  1  0.66731998  0.18303567  0.12892942  1
  La  La59  1  0.16275216  0.00992877  0.12941245  1
  La  La60  1  0.33430104  0.15924396  0.87662680  1
  La  La61  1  1.00294203  0.51428677  0.12628533  1
  La  La62  1  0.83348308  0.67867769  0.62424949  1
  La  La63  1  0.17417941  0.31806610  0.87615764  1
  La  La64  1  0.16789123  0.67915885  0.12504991  1
  La  La65  1  -0.00913547  0.16297176  0.87667113  1
  La  La66  1  0.50944323  0.98778066  0.87939666  1
  La  La67  1  1.00276491  0.51380235  0.62318628  1
  La  La68  1  0.49524215  0.67977714  0.62299927  1
  La  La69  1  0.50174696  0.32041086  0.36835496  1
  La  La70  1  0.66070438  0.81614412  0.37626919  1
  La  La71  1  0.33757372  0.51445701  0.62605954  1
  In  In72  1  0.16877563  0.49544404  0.74824386  1
  In  In73  1  -0.00204229  0.66784991  0.00136949  1
  In  In74  1  0.66607368  0.33523979  0.74887203  1
  In  In75  1  -0.00070207  0.00053505  0.00205935  1
  In  In76  1  0.49881179  0.83614001  0.74855953  1
  In  In77  1  0.83146634  0.16804830  0.00232009  1
  In  In78  1  0.00233889  0.33873958  -0.00273394  1
  In  In79  1  0.83130626  0.16729677  0.74993988  1
  In  In80  1  0.16764546  0.16558696  0.25228449  1
  In  In81  1  0.16670555  0.83156457  0.50296716  1
  In  In82  1  0.49705665  0.83116843  0.00401468  1
  In  In83  1  0.66576637  -0.00044199  0.24960733  1
  In  In84  1  0.50097488  0.50209809  0.74966971  1
  In  In85  1  0.83224675  0.83170665  0.49677650  1
  In  In86  1  0.00372314  0.33645971  0.74835837  1
  In  In87  1  0.33614440  0.00244999  0.74975669  1
  In  In88  1  0.50071750  0.49964483  0.49901203  1
  In  In89  1  0.83194593  0.49743586  0.50075056  1
  In  In90  1  0.66721863  0.33497344  0.00269741  1
  In  In91  1  0.16519291  0.16295897  -0.00135571  1
  In  In92  1  0.16710631  0.83438830  0.00339642  1
  In  In93  1  0.33617148  0.00366553  0.49855816  1
  In  In94  1  0.33410045  0.66596788  0.49788157  1
  In  In95  1  0.33359491  0.00105291  -0.00233414  1
  In  In96  1  0.00312356  0.00167908  0.75304961  1
  In  In97  1  0.16626451  0.50041429  0.24926541  1
  In  In98  1  -0.00201216  0.66766004  0.24823912  1
  In  In99  1  0.33289942  0.33468004  0.50125963  1
  In  In100  1  0.82992398  0.16433061  0.49513885  1
  In  In101  1  0.66244005  0.00181338  0.74832634  1
  In  In102  1  -0.00162330  -0.00097411  0.49767633  1
  In  In103  1  0.67229595  0.66425522  0.25011290  1
  In  In104  1  0.50176178  0.49850545  0.25124145  1
  In  In105  1  0.33323703  0.66771533  0.75155582  1
  In  In106  1  0.83284526  0.83506271  0.75216191  1
  In  In107  1  0.16793387  0.83565378  0.24833835  1
  Ir  Ir108  1  0.33433377  0.33199364  -0.00270221  1
  Ir  Ir109  1  0.49609777  0.16705369  0.74924433  1
  Ir  Ir110  1  -0.00082833  0.66661658  0.74681226  1
  Ir  Ir111  1  -0.00072444  0.66322476  0.50372452  1
  Ir  Ir112  1  -0.00533873  0.33023077  0.25063718  1
  Ir  Ir113  1  0.83321501  0.83697074  0.24752378  1
  Ir  Ir114  1  0.83177669  0.16647903  0.25034075  1
  Ir  Ir115  1  0.16552275  0.16741870  0.50134478  1
  Ir  Ir116  1  0.83417205  0.50431825  0.75194061  1
  Ir  Ir117  1  0.66258008  -0.00035939  0.00534554  1
  Ir  Ir118  1  0.49967416  0.50267873  -0.00173214  1
  Ir  Ir119  1  0.67161606  0.32912507  0.25423350  1
  Ir  Ir120  1  0.66703907  0.66778934  0.50462438  1
  Ir  Ir121  1  0.83373247  0.50212867  -0.00377436  1
  Ir  Ir122  1  0.50488239  0.83646464  0.50044525  1
  Ir  Ir123  1  0.33056381  0.66196010  0.00596754  1
  Ir  Ir124  1  0.66609858  0.32960596  0.49387541  1
  Ir  Ir125  1  0.82863210  0.83548886  0.00421823  1
  Ir  Ir126  1  0.16649235  0.49752288  0.49782390  1
  Ir  Ir127  1  0.66137527  0.00177968  0.49601624  1
  Ir  Ir128  1  0.33798387  0.33207579  0.24822947  1
  Ir  Ir129  1  0.49869277  0.83425609  0.25499308  1
  Ir  Ir130  1  0.67038054  0.66644418  0.75004940  1
  Ir  Ir131  1  0.50175822  0.16503538  0.25263776  1
  Ir  Ir132  1  0.67202636  0.66720227  -0.00377366  1
  Ir  Ir133  1  0.83570257  0.49428570  0.24484263  1
  Ir  Ir134  1  0.50354241  0.16671308  0.49980932  1
  Ir  Ir135  1  0.49871086  0.16543196  0.00085563  1
  Ir  Ir136  1  0.33299991  0.66487096  0.24912124  1
  Ir  Ir137  1  0.16786066  0.83382145  0.74974530  1
  Ir  Ir138  1  0.16835181  0.49928516  0.00376885  1
  Ir  Ir139  1  -0.00033476  0.32999023  0.49341592  1
  Ir  Ir140  1  0.33725947  0.00195526  0.24916560  1
  Ir  Ir141  1  0.16839592  0.16540296  0.74969776  1
  Ir  Ir142  1  -0.00834322  0.00172471  0.24848365  1
  Ir  Ir143  1  0.33076334  0.32705539  0.75289658  1
  O  O144  1  0.31518056  0.33632479  0.12195643  1
  O  O145  1  0.31395196  0.31684910  0.63219288  1
  O  O146  1  0.30257838  0.65731176  0.12750897  1
  O  O147  1  0.31725143  0.65108683  0.62393006  1
  O  O148  1  0.30377244  0.99475612  0.12887849  1
  O  O149  1  0.30254223  0.99628528  0.62569524  1
  O  O150  1  0.64841184  0.32705022  0.13423051  1
  O  O151  1  0.64519439  0.32359995  0.61473237  1
  O  O152  1  0.65591235  0.66627071  0.11732209  1
  O  O153  1  0.63539557  0.66315527  0.62815382  1
  O  O154  1  0.63037198  0.99418872  0.12435371  1
  O  O155  1  0.62905319  0.99502708  0.61502198  1
  O  O156  1  0.97860031  0.32062102  0.13018282  1
  O  O157  1  0.98253257  0.32834446  0.61372814  1
  O  O158  1  0.96290226  0.65401115  0.12451487  1
  O  O159  1  0.97015779  0.65590864  0.62501154  1
  O  O160  1  0.95938082  0.98843647  0.13198978  1
  O  O161  1  0.97839181  0.99062240  0.62502095  1
  O  O162  1  0.18807805  0.14958890  0.12737235  1
  O  O163  1  0.20023300  0.15730856  0.62674691  1
  O  O164  1  0.18699961  0.49509615  0.12167979  1
  O  O165  1  0.19886401  0.49646248  0.61590542  1
  O  O166  1  0.20738315  0.82977848  0.12684351  1
  O  O167  1  0.20129158  0.83128331  0.63293711  1
  O  O168  1  0.53091127  0.15519902  0.12678819  1
  O  O169  1  0.53311425  0.15919065  0.62428218  1
  O  O170  1  0.51603019  0.50136400  0.11932440  1
  O  O171  1  0.51876964  0.49426291  0.62397942  1
  O  O172  1  0.51319200  0.82917941  0.13436336  1
  O  O173  1  0.52434259  0.82135847  0.61862198  1
  O  O174  1  0.86848559  0.15446963  0.13228899  1
  O  O175  1  0.84919458  0.16370783  0.62066710  1
  O  O176  1  0.86541147  0.49444632  0.11928314  1
  O  O177  1  0.86257173  0.49687572  0.63112404  1
  O  O178  1  0.86257740  0.82818914  0.12628579  1
  O  O179  1  0.86161740  0.82743304  0.62247788  1
  O  O180  1  0.13702488  0.16588351  0.37956379  1
  O  O181  1  0.13137701  0.17445849  0.86807826  1
  O  O182  1  0.14512882  0.49935299  0.37826903  1
  O  O183  1  0.15409551  0.49736978  0.88297347  1
  O  O184  1  0.14978618  0.83625355  0.37334340  1
  O  O185  1  0.14304759  0.84373520  0.87101842  1
  O  O186  1  0.48097346  0.18142304  0.37588640  1
  O  O187  1  0.46846470  0.16840099  0.87444010  1
  O  O188  1  0.46777330  0.49719163  0.37526419  1
  O  O189  1  0.48234090  0.50317711  0.87949661  1
  O  O190  1  0.47857903  0.84551371  0.37777736  1
  O  O191  1  0.47644521  0.84661880  0.87772865  1
  O  O192  1  0.79680728  0.17847936  0.36798024  1
  O  O193  1  0.80777840  0.18369262  0.87667915  1
  O  O194  1  0.81845475  0.49769671  0.36745620  1
  O  O195  1  0.80060682  0.50926232  0.87507409  1
  O  O196  1  0.79881104  0.84271106  0.36768757  1
  O  O197  1  0.79895937  0.83562235  0.88389521  1
  O  O198  1  0.02092843  0.01253886  0.36643951  1
  O  O199  1  0.03963893  0.01159414  0.87805653  1
  O  O200  1  0.01750958  0.33302029  0.37149789  1
  O  O201  1  0.04118178  0.34111914  0.87322866  1
  O  O202  1  0.01600359  0.66419720  0.38064292  1
  O  O203  1  0.01665513  0.66891076  0.87036950  1
  O  O204  1  0.36853469  0.00692932  0.37016078  1
  O  O205  1  0.37429184  0.01172765  0.87231335  1
  O  O206  1  0.36237860  0.33647427  0.37059785  1
  O  O207  1  0.35316673  0.32389851  0.87482875  1
  O  O208  1  0.35377380  0.67011925  0.36832161  1
  O  O209  1  0.34920552  0.66649396  0.88489330  1
  O  O210  1  0.69651432  0.01463523  0.37668748  1
  O  O211  1  0.68027525  0.00836512  0.88621099  1
  O  O212  1  0.70067819  0.32878303  0.37416513  1
  O  O213  1  0.69542886  0.33823107  0.87714758  1
  O  O214  1  0.68920180  0.67730428  0.38219807  1
  O  O215  1  0.69249438  0.68247478  0.87238265  1
  O  O216  1  0.07230030  0.09087886  0.03860433  1
  O  O217  1  0.07977005  0.09167865  0.51726575  1
  O  O218  1  0.07078573  0.43790503  0.02578202  1
  O  O219  1  0.06794371  0.42992288  0.51999350  1
  O  O220  1  0.07091778  0.76156022  0.03248618  1
  O  O221  1  0.06195168  0.75914230  0.52747052  1
  O  O222  1  0.41067104  0.09482828  0.02077821  1
  O  O223  1  0.41093361  0.09910917  0.53013418  1
  O  O224  1  0.40973543  0.42761512  0.01398474  1
  O  O225  1  0.39453848  0.43547370  0.52080118  1
  O  O226  1  0.39535441  0.75774103  0.02732141  1
  O  O227  1  0.41019423  0.77077922  0.52475861  1
  O  O228  1  0.73224007  0.08950554  0.03541510  1
  O  O229  1  0.72131595  0.09889695  0.51749323  1
  O  O230  1  0.74240116  0.43503020  0.00814225  1
  O  O231  1  0.73480153  0.42120788  0.51339187  1
  O  O232  1  0.74133185  0.76032275  0.02266209  1
  O  O233  1  0.73962740  0.75479109  0.52031159  1
  O  O234  1  0.09016365  0.25541948  0.01863006  1
  O  O235  1  0.09214684  0.25727173  0.51320662  1
  O  O236  1  0.10040513  0.59301505  0.02742550  1
  O  O237  1  0.09046147  0.58716258  0.52564661  1
  O  O238  1  0.08876578  0.92488572  0.04050675  1
  O  O239  1  0.09237923  0.92461193  0.52892987  1
  O  O240  1  0.42887677  0.26090257  0.01549420  1
  O  O241  1  0.42969473  0.25480681  0.51562020  1
  O  O242  1  0.42703279  0.59571968  0.01809875  1
  O  O243  1  0.43549667  0.60287496  0.52251768  1
  O  O244  1  0.42672798  0.92868124  0.03235995  1
  O  O245  1  0.44081555  0.93258345  0.52086886  1
  O  O246  1  0.74945939  0.25093656  0.03145462  1
  O  O247  1  0.75494958  0.26036618  0.51420596  1
  O  O248  1  0.76869169  0.59935845  0.02093789  1
  O  O249  1  0.76110795  0.59966832  0.52471714  1
  O  O250  1  0.76045089  0.93490449  0.02822582  1
  O  O251  1  0.75289317  0.93371102  0.50979610  1
  O  O252  1  0.24519054  0.06958226  0.26801907  1
  O  O253  1  0.23928860  0.07718366  0.77862646  1
  O  O254  1  0.25205632  0.40936190  0.26817296  1
  O  O255  1  0.23482056  0.38933530  0.77177831  1
  O  O256  1  0.24051322  0.73070665  0.25784881  1
  O  O257  1  0.23500906  0.74404713  0.77009034  1
  O  O258  1  0.56858222  0.07279402  0.27797325  1
  O  O259  1  0.55440393  0.06739533  0.76707758  1
  O  O260  1  0.57659449  0.39454430  0.27521328  1
  O  O261  1  0.58085360  0.41437660  0.77309333  1
  O  O262  1  0.57850089  0.75001702  0.27193171  1
  O  O263  1  0.58219912  0.74054244  0.76771458  1
  O  O264  1  0.89609341  0.07014151  0.27734543  1
  O  O265  1  0.91854925  0.08561051  0.77892757  1
  O  O266  1  0.89752437  0.39514182  0.26901055  1
  O  O267  1  0.89870208  0.40977609  0.77522631  1
  O  O268  1  0.90212048  0.74594921  0.26317902  1
  O  O269  1  0.90949256  0.73654670  0.75558741  1
  O  O270  1  0.26041915  0.24780042  0.26226712  1
  O  O271  1  0.26319289  0.23129412  0.77802440  1
  O  O272  1  0.26801260  0.57093726  0.27314989  1
  O  O273  1  0.26380804  0.56684424  0.75693801  1
  O  O274  1  0.26844908  0.91229921  0.26457982  1
  O  O275  1  0.25560845  0.90746834  0.77157473  1
  O  O276  1  0.60265560  0.23202742  0.27346140  1
  O  O277  1  0.58705924  0.23609532  0.76188930  1
  O  O278  1  0.59424089  0.57505340  0.26323515  1
  O  O279  1  0.60623489  0.57519396  0.77610548  1
  O  O280  1  0.59269902  0.90436977  0.28168345  1
  O  O281  1  0.59316961  0.90702617  0.78170160  1
  O  O282  1  0.92754369  0.23242516  0.27759809  1
  O  O283  1  0.92663160  0.24844846  0.77978677  1
  O  O284  1  0.92841270  0.56016840  0.25601674  1
  O  O285  1  0.93063093  0.57059239  0.76064171  1
  O  O286  1  0.92341658  0.90885054  0.27450645  1
  O  O287  1  0.93052241  0.90515835  0.76542417  1
  O  O288  1  0.25607861  0.23937528  0.48870553  1
  O  O289  1  0.26378696  0.24063647  0.97477699  1
  O  O290  1  0.26346868  0.56089906  0.47664519  1
  O  O291  1  0.26286594  0.56742958  0.98683526  1
  O  O292  1  0.26600360  0.90689636  0.49265847  1
  O  O293  1  0.25098614  0.91655237  0.97320044  1
  O  O294  1  0.59888625  0.23392058  0.47169137  1
  O  O295  1  0.58715639  0.23864455  0.99258768  1
  O  O296  1  0.59938853  0.57905041  0.48375265  1
  O  O297  1  0.60038355  0.57294932  0.97403897  1
  O  O298  1  0.59816293  0.90538116  0.46745513  1
  O  O299  1  0.59660950  0.90735708  0.97745718  1
  O  O300  1  0.93023386  0.23862866  0.46605118  1
  O  O301  1  0.92593604  0.24555643  0.97427957  1
  O  O302  1  0.93094506  0.57046227  0.49252601  1
  O  O303  1  0.92665522  0.56656292  0.98641214  1
  O  O304  1  0.91777774  0.91159355  0.47035854  1
  O  O305  1  0.91859716  0.90461366  0.98709248  1
  O  O306  1  0.23853118  0.08051752  0.48760369  1
  O  O307  1  0.24226181  0.07675837  0.96128857  1
  O  O308  1  0.23752782  0.41007981  0.47493314  1
  O  O309  1  0.23394802  0.39825708  0.97961033  1
  O  O310  1  0.23985047  0.73779988  0.48897299  1
  O  O311  1  0.23648284  0.72815894  0.99467059  1
  O  O312  1  0.56621658  0.06836426  0.47145593  1
  O  O313  1  0.56216224  0.06381410  0.98579144  1
  O  O314  1  0.57150775  0.39360930  0.47169966  1
  O  O315  1  0.57691805  0.41723748  0.98161759  1
  O  O316  1  0.57679320  0.74337865  0.47894059  1
  O  O317  1  0.58416382  0.74374628  0.98031551  1
  O  O318  1  0.90441827  0.07445587  0.46364380  1
  O  O319  1  0.91036324  0.07949276  0.97989778  1
  O  O320  1  0.90401825  0.39561699  0.47644000  1
  O  O321  1  0.89684821  0.40674453  0.97071821  1
  O  O322  1  0.90725917  0.73150183  0.48906405  1
  O  O323  1  0.89808770  0.74416296  0.99150542  1
  O  O324  1  0.08269796  0.25554814  0.23296454  1
  O  O325  1  0.09989558  0.25386681  0.73030659  1
  O  O326  1  0.09507437  0.59602284  0.21996835  1
  O  O327  1  0.08570042  0.59211034  0.73349470  1
  O  O328  1  0.08629545  0.93438802  0.22174024  1
  O  O329  1  0.10222361  0.92534306  0.72382881  1
  O  O330  1  0.43387387  0.25948059  0.23593027  1
  O  O331  1  0.42426007  0.25800201  0.73032875  1
  O  O332  1  0.42180572  0.59542727  0.23628956  1
  O  O333  1  0.43614027  0.60117090  0.72790633  1
  O  O334  1  0.43212893  0.93239579  0.22745721  1
  O  O335  1  0.42877446  0.93102246  0.71077333  1
  O  O336  1  0.76338185  0.25805397  0.22688881  1
  O  O337  1  0.75475762  0.26000828  0.72762086  1
  O  O338  1  0.77274511  0.59171313  0.22525663  1
  O  O339  1  0.76787304  0.59967999  0.72452031  1
  O  O340  1  0.76969387  0.93438847  0.22924126  1
  O  O341  1  0.75537045  0.92600236  0.73589128  1
  O  O342  1  0.05944867  0.09422917  0.22651035  1
  O  O343  1  0.08974428  0.08792650  0.72036069  1
  O  O344  1  0.06178288  0.42518425  0.22815551  1
  O  O345  1  0.06890049  0.43364137  0.71931073  1
  O  O346  1  0.07106698  0.76324061  0.21781879  1
  O  O347  1  0.06736850  0.76574818  0.72572252  1
  O  O348  1  0.41294823  0.09129171  0.22365022  1
  O  O349  1  0.40283796  0.10397028  0.72107144  1
  O  O350  1  0.41130531  0.41751327  0.23736813  1
  O  O351  1  0.39453123  0.42426892  0.73025722  1
  O  O352  1  0.40064606  0.76411129  0.22910088  1
  O  O353  1  0.40371905  0.76468372  0.72155996  1
  O  O354  1  0.73759569  0.09989430  0.22293740  1
  O  O355  1  0.72800334  0.09928850  0.72622796  1
  O  O356  1  0.73941769  0.42557232  0.23306696  1
  O  O357  1  0.74484976  0.43619683  0.74190544  1
  O  O358  1  0.74665763  0.76158759  0.23061045  1
  O  O359  1  0.74358802  0.75167280  0.72750358  1
