# generated using pymatgen
data_BaLaInIrO6
_symmetry_space_group_name_H-M   'P 1'
_cell_length_a   17.52960201
_cell_length_b   17.56642319
_cell_length_c   16.48312740
_cell_angle_alpha   90.10885386
_cell_angle_beta   89.99087899
_cell_angle_gamma   89.90933717
_symmetry_Int_Tables_number   1
_chemical_formula_structural   BaLaInIrO6
_chemical_formula_sum   'Ba36 La36 In36 Ir36 O216'
_cell_volume   5075.67351734
_cell_formula_units_Z   36
loop_
 _symmetry_equiv_pos_site_id
 _symmetry_equiv_pos_as_xyz
  1  'x, y, z'
loop_
 _atom_site_type_symbol
 _atom_site_label
 _atom_site_symmetry_multiplicity
 _atom_site_fract_x
 _atom_site_fract_y
 _atom_site_fract_z
 _atom_site_occupancy
  Ba  Ba0  1  0.49309749  0.67916558  0.12549633  1
  Ba  Ba1  1  0.66291755  0.50898357  0.12277125  1
  Ba  Ba2  1  -0.00290548  0.49211198  0.87435290  1
  Ba  Ba3  1  0.66676702  0.82160250  0.37401710  1
  Ba  Ba4  1  0.83266089  0.32257634  0.37548447  1
  Ba  Ba5  1  0.83776052  0.32825333  0.87700772  1
  Ba  Ba6  1  0.50378350  0.32840625  0.87688152  1
  Ba  Ba7  1  0.32989472  0.14963514  0.87717724  1
  Ba  Ba8  1  0.66538108  0.82631952  0.87609733  1
  Ba  Ba9  1  0.33184475  0.82223818  0.37450676  1
  Ba  Ba10  1  0.33666189  0.17765684  0.62407338  1
  Ba  Ba11  1  0.50196847  0.66049082  0.37339290  1
  Ba  Ba12  1  0.83039213  0.65793402  0.37316286  1
  Ba  Ba13  1  0.49915610  0.99273403  0.87780207  1
  Ba  Ba14  1  0.33468060  0.50813347  0.12127681  1
  Ba  Ba15  1  0.16472795  0.66983733  0.12667145  1
  Ba  Ba16  1  0.66751891  0.49078474  0.87488319  1
  Ba  Ba17  1  -0.00386219  0.82420028  0.87716714  1
  Ba  Ba18  1  0.66813656  0.15562093  0.37427215  1
  Ba  Ba19  1  0.83340747  0.01197226  0.62683470  1
  Ba  Ba20  1  0.83210906  0.00608150  0.12177317  1
  Ba  Ba21  1  0.49785125  0.67553996  0.62377549  1
  Ba  Ba22  1  0.66187589  0.15933861  0.87525660  1
  Ba  Ba23  1  0.16897423  0.32297650  0.87512507  1
  Ba  Ba24  1  0.66638408  0.17416065  0.12350482  1
  Ba  Ba25  1  0.66316576  0.83593579  0.12740493  1
  Ba  Ba26  1  1.00549271  0.17514271  0.62374574  1
  Ba  Ba27  1  0.33765604  0.17658308  0.12736458  1
  Ba  Ba28  1  0.16896968  0.34400246  0.12443684  1
  Ba  Ba29  1  0.82905417  0.67047169  0.12564960  1
  Ba  Ba30  1  0.50425632  0.32903782  0.37700985  1
  Ba  Ba31  1  0.16700206  0.67877672  0.62549467  1
  Ba  Ba32  1  0.16482435  0.34647486  0.62538436  1
  Ba  Ba33  1  0.66553972  0.83854920  0.62347407  1
  Ba  Ba34  1  0.66725912  0.50538726  0.62682824  1
  Ba  Ba35  1  1.00290606  0.84358489  0.62298246  1
  La  La36  1  0.83304543  0.65134693  0.87694978  1
  La  La37  1  0.50036966  0.01054294  0.12421683  1
  La  La38  1  0.50449387  0.34946634  0.62965355  1
  La  La39  1  0.17274190  0.31541446  0.37342440  1
  La  La40  1  0.50407132  0.98485701  0.37363592  1
  La  La41  1  1.00325669  0.51203658  0.62464298  1
  La  La42  1  0.50162720  0.65482771  0.87629423  1
  La  La43  1  0.17185727  0.98293852  0.37572310  1
  La  La44  1  1.00330404  0.85118836  0.12958781  1
  La  La45  1  0.16248534  0.01408283  0.12702579  1
  La  La46  1  0.66587341  0.50020403  0.36365672  1
  La  La47  1  0.17178798  0.65190564  0.37815139  1
  La  La48  1  0.83320332  0.98832785  0.37671879  1
  La  La49  1  0.15986197  0.00990417  0.62756818  1
  La  La50  1  0.33178347  0.48955089  0.37631538  1
  La  La51  1  0.16849285  0.65151537  0.87056162  1
  La  La52  1  0.67107922  0.18503679  0.62587083  1
  La  La53  1  0.82539022  0.67399999  0.63047675  1
  La  La54  1  1.00273128  0.51218883  0.12345037  1
  La  La55  1  0.17165475  0.98371817  0.87431910  1
  La  La56  1  0.50054040  0.01152583  0.62862823  1
  La  La57  1  0.83383798  0.34802810  0.62846771  1
  La  La58  1  0.34131752  0.84809340  0.62311069  1
  La  La59  1  0.32780846  0.48689485  0.87442364  1
  La  La60  1  0.32645579  0.82076875  0.87596733  1
  La  La61  1  1.00535577  0.18332213  0.12955422  1
  La  La62  1  0.83291718  0.98530983  0.87483430  1
  La  La63  1  0.32763017  0.14811501  0.36593904  1
  La  La64  1  -0.00667226  0.48511404  0.36963155  1
  La  La65  1  -0.00602951  0.14979060  0.37689088  1
  La  La66  1  -0.00578349  0.15804955  0.87181277  1
  La  La67  1  0.49631282  0.34876242  0.12352123  1
  La  La68  1  0.33775918  0.50575547  0.62813848  1
  La  La69  1  0.34039566  0.84975052  0.12906139  1
  La  La70  1  -0.00366824  0.81820835  0.37327876  1
  La  La71  1  0.82877121  0.35188402  0.12595669  1
  In  In72  1  0.66630155  0.00158441  0.49935334  1
  In  In73  1  -0.00070591  0.33311095  0.00272155  1
  In  In74  1  0.16832479  0.82896781  0.24957597  1
  In  In75  1  0.00116356  0.33429864  0.74835214  1
  In  In76  1  0.66530759  -0.00051105  0.74938413  1
  In  In77  1  0.33110382  0.66666616  0.50188015  1
  In  In78  1  0.33410907  0.33121021  0.00020028  1
  In  In79  1  0.33598777  0.33287610  0.49979452  1
  In  In80  1  0.66827148  0.33423886  0.24872726  1
  In  In81  1  0.16518143  0.50047925  -0.00071821  1
  In  In82  1  0.00239747  0.33268550  0.49717932  1
  In  In83  1  0.00243880  0.00350482  0.00106580  1
  In  In84  1  -0.00040088  0.66490196  0.49704561  1
  In  In85  1  0.33138361  0.66876450  -0.00083480  1
  In  In86  1  0.83720688  0.16435445  0.24613983  1
  In  In87  1  0.49951616  0.16756378  0.00163832  1
  In  In88  1  0.16556477  0.82890277  0.00366068  1
  In  In89  1  0.66520342  0.66187100  0.50064198  1
  In  In90  1  0.33317724  0.00054833  0.50066733  1
  In  In91  1  0.16776892  0.16493089  0.75168756  1
  In  In92  1  0.66683993  -0.00161517  0.00129961  1
  In  In93  1  0.67042663  0.33736402  0.49959786  1
  In  In94  1  0.83527943  0.83219670  0.50008521  1
  In  In95  1  0.50011050  0.50307464  -0.00095075  1
  In  In96  1  0.16447127  0.49695999  0.25284774  1
  In  In97  1  0.16931367  0.16515132  0.49569281  1
  In  In98  1  0.00180668  0.00014732  0.75166291  1
  In  In99  1  0.50093403  0.16792983  0.74934243  1
  In  In100  1  0.33524586  0.33213985  0.74792103  1
  In  In101  1  0.49629072  0.83074942  0.75322215  1
  In  In102  1  0.83428999  0.83079129  0.00255094  1
  In  In103  1  0.49926229  0.16870726  0.25431540  1
  In  In104  1  0.83398663  0.83188601  0.24781964  1
  In  In105  1  0.83281151  0.83126876  0.75016304  1
  In  In106  1  0.50199557  0.16747377  0.49949446  1
  In  In107  1  -0.00125277  0.66843282  0.75104217  1
  Ir  Ir108  1  0.83695874  0.16770526  -0.00449514  1
  Ir  Ir109  1  0.67021137  0.33647266  0.75168773  1
  Ir  Ir110  1  0.16605770  0.83536664  0.50002352  1
  Ir  Ir111  1  0.17203498  0.83213327  0.74765058  1
  Ir  Ir112  1  0.83297846  0.50187360  0.00221007  1
  Ir  Ir113  1  0.66541368  -0.00232930  0.25122820  1
  Ir  Ir114  1  0.16374286  0.16665529  0.24837220  1
  Ir  Ir115  1  0.66457050  0.66685774  -0.00256057  1
  Ir  Ir116  1  -0.00297397  0.66617422  0.00260833  1
  Ir  Ir117  1  0.83370042  0.49961764  0.74929842  1
  Ir  Ir118  1  0.00514449  0.00038087  0.49419246  1
  Ir  Ir119  1  0.33198442  0.66394632  0.25398071  1
  Ir  Ir120  1  0.83777848  0.49866044  0.49900993  1
  Ir  Ir121  1  0.49162342  0.83443199  0.00293891  1
  Ir  Ir122  1  0.32800494  -0.00492686  0.00087859  1
  Ir  Ir123  1  0.49815868  0.83352353  0.49883965  1
  Ir  Ir124  1  0.00556178  0.00092299  0.25284340  1
  Ir  Ir125  1  0.66409767  0.66255217  0.75385776  1
  Ir  Ir126  1  0.33091746  -0.00038882  0.24885698  1
  Ir  Ir127  1  0.33252908  0.66682098  0.74991762  1
  Ir  Ir128  1  0.00054600  0.33291048  0.25000052  1
  Ir  Ir129  1  0.83679882  0.16583971  0.50375980  1
  Ir  Ir130  1  0.67075819  0.33493487  0.00080196  1
  Ir  Ir131  1  0.00122183  0.66634085  0.24880261  1
  Ir  Ir132  1  0.83182233  0.16959692  0.75140712  1
  Ir  Ir133  1  0.33438267  0.33702688  0.25320227  1
  Ir  Ir134  1  0.49752447  0.50111363  0.49998663  1
  Ir  Ir135  1  0.16373579  0.16251383  0.00600499  1
  Ir  Ir136  1  0.49811343  0.50490337  0.74773939  1
  Ir  Ir137  1  0.49730370  0.83555788  0.24891407  1
  Ir  Ir138  1  0.16855714  0.50527327  0.74506397  1
  Ir  Ir139  1  0.83590802  0.50092336  0.25192546  1
  Ir  Ir140  1  0.32847435  -0.00690529  0.75028283  1
  Ir  Ir141  1  0.66313283  0.66355707  0.24564463  1
  Ir  Ir142  1  0.49399934  0.50191607  0.25414465  1
  Ir  Ir143  1  0.16334252  0.50106967  0.49904181  1
  O  O144  1  0.31702543  0.33762995  0.13426668  1
  O  O145  1  0.31241478  0.34951591  0.62320066  1
  O  O146  1  0.31562765  0.66416934  0.13289521  1
  O  O147  1  0.31293774  0.64766033  0.62985535  1
  O  O148  1  0.29751472  0.98922798  0.12418166  1
  O  O149  1  0.29668912  0.98775794  0.63048312  1
  O  O150  1  0.63955943  0.33698678  0.12005822  1
  O  O151  1  0.64518374  0.33295856  0.63091843  1
  O  O152  1  0.64114426  0.66651264  0.12059735  1
  O  O153  1  0.64730149  0.65978738  0.63281742  1
  O  O154  1  0.63562259  0.99637502  0.13337496  1
  O  O155  1  0.63399129  0.99589775  0.62186336  1
  O  O156  1  0.96515256  0.32046844  0.13114909  1
  O  O157  1  0.96981484  0.33347380  0.62183246  1
  O  O158  1  0.97580499  0.64916582  0.12647714  1
  O  O159  1  0.96693459  0.65393965  0.62316766  1
  O  O160  1  0.98223928  0.99232679  0.13406755  1
  O  O161  1  0.98808663  0.99904583  0.61473950  1
  O  O162  1  0.19082563  0.15250389  0.12758824  1
  O  O163  1  0.18825619  0.14484173  0.62089783  1
  O  O164  1  0.18311470  0.50680561  0.12779581  1
  O  O165  1  0.19932644  0.50096421  0.62090145  1
  O  O166  1  0.20499639  0.82379616  0.12706034  1
  O  O167  1  0.20220546  0.83093695  0.62309963  1
  O  O168  1  0.51236516  0.14842978  0.12989995  1
  O  O169  1  0.53587457  0.14879829  0.62435539  1
  O  O170  1  0.51030752  0.49206445  0.13275088  1
  O  O171  1  0.51897693  0.49289003  0.62351424  1
  O  O172  1  0.51488871  0.83840559  0.12697981  1
  O  O173  1  0.51278771  0.83223803  0.61864644  1
  O  O174  1  0.86936377  0.15979615  0.11588764  1
  O  O175  1  0.85814567  0.16938517  0.62980585  1
  O  O176  1  0.86577103  0.49474026  0.12772148  1
  O  O177  1  0.86751292  0.49146175  0.62264355  1
  O  O178  1  0.87030239  0.82870463  0.12719948  1
  O  O179  1  0.85564976  0.80940839  0.62503750  1
  O  O180  1  0.13288083  0.17771660  0.36567148  1
  O  O181  1  0.13401487  0.16487132  0.88712169  1
  O  O182  1  0.13058688  0.51127851  0.38004779  1
  O  O183  1  0.14544836  0.51148252  0.86554633  1
  O  O184  1  0.13615130  0.84447817  0.37814609  1
  O  O185  1  0.14894501  0.84465753  0.86869499  1
  O  O186  1  0.45950175  0.17456977  0.37542255  1
  O  O187  1  0.47952136  0.17255227  0.87590339  1
  O  O188  1  0.46797289  0.50399433  0.37824154  1
  O  O189  1  0.46810819  0.51091268  0.86655801  1
  O  O190  1  0.47739874  0.84188016  0.37239502  1
  O  O191  1  0.46281456  0.83170194  0.88317665  1
  O  O192  1  0.82028943  0.16068511  0.38287416  1
  O  O193  1  0.80783734  0.17614853  0.87365191  1
  O  O194  1  0.80308224  0.50288210  0.37703319  1
  O  O195  1  0.81232935  0.51308451  0.87470192  1
  O  O196  1  0.82171654  0.84946421  0.37150357  1
  O  O197  1  0.81681511  0.84634804  0.87675469  1
  O  O198  1  0.03712307  0.01031424  0.37177238  1
  O  O199  1  0.03801807  0.01410137  0.87786764  1
  O  O200  1  0.03535804  0.34715062  0.36808172  1
  O  O201  1  0.01594669  0.33568592  0.87632722  1
  O  O202  1  0.03603162  0.67783245  0.36712225  1
  O  O203  1  0.02972047  0.66923531  0.88219411  1
  O  O204  1  0.36342461  0.00476629  0.36876754  1
  O  O205  1  0.35032622  -0.01070002  0.87498707  1
  O  O206  1  0.35380420  0.34878744  0.37194844  1
  O  O207  1  0.35286963  0.34916517  0.87263888  1
  O  O208  1  0.35077634  0.66518035  0.37301846  1
  O  O209  1  0.36389808  0.68324091  0.86685918  1
  O  O210  1  0.69763578  -0.00014938  0.36938552  1
  O  O211  1  0.69941513  0.00290476  0.87583720  1
  O  O212  1  0.68340084  0.36059190  0.37491806  1
  O  O213  1  0.69178734  0.33595789  0.87660752  1
  O  O214  1  0.67867115  0.65414494  0.36706985  1
  O  O215  1  0.69483065  0.66612839  0.87589936  1
  O  O216  1  0.07307130  0.09720312  0.03642338  1
  O  O217  1  0.07020672  0.09206416  0.50629951  1
  O  O218  1  0.06726397  0.43088477  0.02513461  1
  O  O219  1  0.06920651  0.43860934  0.52235483  1
  O  O220  1  0.05982068  0.76124235  0.02844327  1
  O  O221  1  0.07721391  0.76579024  0.51276082  1
  O  O222  1  0.40032567  0.08150614  0.01936464  1
  O  O223  1  0.41188179  0.08597949  0.52901227  1
  O  O224  1  0.41561619  0.42211722  0.01652490  1
  O  O225  1  0.39883007  0.44142180  0.51489943  1
  O  O226  1  0.39374378  0.77442042  0.02147298  1
  O  O227  1  0.40203363  0.76650980  0.51975016  1
  O  O228  1  0.74908166  0.09964367  0.01462016  1
  O  O229  1  0.74058829  0.10502198  0.52590956  1
  O  O230  1  0.74676489  0.42297920  0.02606693  1
  O  O231  1  0.75535924  0.42354436  0.52740638  1
  O  O232  1  0.73717335  0.75169778  0.01438318  1
  O  O233  1  0.74636228  0.74795827  0.51329220  1
  O  O234  1  0.09270790  0.25135000  0.02901261  1
  O  O235  1  0.10305057  0.26676914  0.50507210  1
  O  O236  1  0.08566922  0.59581208  0.01553122  1
  O  O237  1  0.09516375  0.59113533  0.52161223  1
  O  O238  1  0.09825166  0.92737889  0.03038330  1
  O  O239  1  0.10537707  0.93799103  0.51603638  1
  O  O240  1  0.43225973  0.26454218  0.02913755  1
  O  O241  1  0.43834462  0.27162104  0.52881311  1
  O  O242  1  0.42916157  0.60083497  0.00367214  1
  O  O243  1  0.42756643  0.59000910  0.51501006  1
  O  O244  1  0.42497959  0.92891807  0.03055133  1
  O  O245  1  0.42781511  0.92407493  0.52110228  1
  O  O246  1  0.76979113  0.26513940  0.02605531  1
  O  O247  1  0.77276128  0.26094086  0.52690351  1
  O  O248  1  0.75929527  0.59641184  0.01098449  1
  O  O249  1  0.77061420  0.58918361  0.52498177  1
  O  O250  1  0.75508870  0.92140917  0.02003297  1
  O  O251  1  0.76637084  0.93222143  0.50846163  1
  O  O252  1  0.23262232  0.06857291  0.27375298  1
  O  O253  1  0.23422500  0.05696144  0.77468470  1
  O  O254  1  0.23617141  0.39989546  0.27781516  1
  O  O255  1  0.24247819  0.42157868  0.76820503  1
  O  O256  1  0.23528623  0.72781838  0.27747905  1
  O  O257  1  0.23812241  0.73391572  0.77692407  1
  O  O258  1  0.57042193  0.06273244  0.27304571  1
  O  O259  1  0.56800634  0.06952372  0.76451366  1
  O  O260  1  0.56969845  0.41762834  0.26569781  1
  O  O261  1  0.57018628  0.40926862  0.76293445  1
  O  O262  1  0.57221214  0.74074408  0.26458039  1
  O  O263  1  0.56934750  0.72950115  0.77410315  1
  O  O264  1  0.91168957  0.06682977  0.27913743  1
  O  O265  1  0.89845538  0.07672276  0.77872637  1
  O  O266  1  0.90844009  0.40830987  0.27452199  1
  O  O267  1  0.90189753  0.40831829  0.75970433  1
  O  O268  1  0.91618063  0.73880543  0.27110074  1
  O  O269  1  0.89904299  0.72997358  0.77703587  1
  O  O270  1  0.26396263  0.23732501  0.27504580  1
  O  O271  1  0.26160216  0.23745068  0.76664636  1
  O  O272  1  0.26217283  0.57295614  0.28074054  1
  O  O273  1  0.26496202  0.57281687  0.77574737  1
  O  O274  1  0.25908900  0.91182457  0.27078519  1
  O  O275  1  0.26838804  0.89426109  0.76938208  1
  O  O276  1  0.59489279  0.24183382  0.26772894  1
  O  O277  1  0.60266107  0.24628472  0.75833751  1
  O  O278  1  0.59150635  0.56799722  0.26706481  1
  O  O279  1  0.58721725  0.57760585  0.77627967  1
  O  O280  1  0.58881980  0.90910827  0.27625999  1
  O  O281  1  0.58689442  0.90404053  0.76723153  1
  O  O282  1  0.94176006  0.23277686  0.27171002  1
  O  O283  1  0.92663058  0.23181229  0.77207515  1
  O  O284  1  0.93368254  0.56957343  0.27313102  1
  O  O285  1  0.92070173  0.57069680  0.76548065  1
  O  O286  1  0.94314799  0.90600425  0.27204574  1
  O  O287  1  0.92619386  0.91240104  0.76778323  1
  O  O288  1  0.26785629  0.23552089  0.46556501  1
  O  O289  1  0.25333426  0.23290802  0.98773969  1
  O  O290  1  0.25511036  0.56867357  0.47310584  1
  O  O291  1  0.25866149  0.57563453  0.96582794  1
  O  O292  1  0.25533159  0.90535374  0.48138094  1
  O  O293  1  0.26375388  0.90219083  0.97765568  1
  O  O294  1  0.60562621  0.23692879  0.49287917  1
  O  O295  1  0.59904586  0.24885648  0.98838076  1
  O  O296  1  0.59658967  0.56156212  0.47747989  1
  O  O297  1  0.59140587  0.58142136  0.97630377  1
  O  O298  1  0.58478973  0.90429737  0.47801450  1
  O  O299  1  0.58176047  0.90095297  0.98773460  1
  O  O300  1  0.93245997  0.22969352  0.47568335  1
  O  O301  1  0.93216063  0.22970763  0.97788161  1
  O  O302  1  0.92948278  0.56486152  0.47180961  1
  O  O303  1  0.92433029  0.57496683  0.97972974  1
  O  O304  1  0.94009021  0.90917076  0.47228154  1
  O  O305  1  0.92591047  0.91363780  0.98613117  1
  O  O306  1  0.24139247  0.07129837  0.46018993  1
  O  O307  1  0.22758546  0.06006476  0.98285389  1
  O  O308  1  0.22930499  0.40939401  0.46901514  1
  O  O309  1  0.24516830  0.41216216  0.98091410  1
  O  O310  1  0.22935256  0.73762262  0.47743395  1
  O  O311  1  0.23332430  0.73515565  0.96542850  1
  O  O312  1  0.56850454  0.06613480  0.46499284  1
  O  O313  1  0.57278161  0.07129695  0.99488594  1
  O  O314  1  0.56543374  0.40944312  0.49659503  1
  O  O315  1  0.58303410  0.40948556  0.98703038  1
  O  O316  1  0.57064985  0.74374111  0.48557536  1
  O  O317  1  0.56343112  0.73567832  0.97667611  1
  O  O318  1  0.90701877  0.06570602  0.47361695  1
  O  O319  1  0.90415188  0.07734132  0.96477071  1
  O  O320  1  0.90951961  0.41157406  0.47335563  1
  O  O321  1  0.90101836  0.41053115  0.99666976  1
  O  O322  1  0.91780642  0.74664017  0.46724526  1
  O  O323  1  0.90418971  0.72897083  0.97748994  1
  O  O324  1  0.09431613  0.26173016  0.22518054  1
  O  O325  1  0.09310198  0.25915683  0.73325852  1
  O  O326  1  0.08648138  0.59335650  0.23562180  1
  O  O327  1  0.09306899  0.59082477  0.72869305  1
  O  O328  1  0.09900600  0.93384917  0.22764608  1
  O  O329  1  0.10925437  0.92821382  0.72984680  1
  O  O330  1  0.43057835  0.27599320  0.22791962  1
  O  O331  1  0.43642679  0.26695175  0.72170446  1
  O  O332  1  0.42424998  0.59376433  0.23491243  1
  O  O333  1  0.42513127  0.59467169  0.72793923  1
  O  O334  1  0.42708938  0.93175021  0.22395457  1
  O  O335  1  0.41984246  0.92726408  0.71922357  1
  O  O336  1  0.77020640  0.26408171  0.22784230  1
  O  O337  1  0.76463958  0.26751003  0.72341703  1
  O  O338  1  0.75560298  0.58692328  0.23061116  1
  O  O339  1  0.76424887  0.59689864  0.73353351  1
  O  O340  1  0.75509632  0.92774348  0.23350975  1
  O  O341  1  0.76037036  0.92658147  0.73175167  1
  O  O342  1  0.06843863  0.09900234  0.22526644  1
  O  O343  1  0.07561646  0.08933622  0.73069992  1
  O  O344  1  0.05953647  0.43099263  0.22721990  1
  O  O345  1  0.07412404  0.43855099  0.72243311  1
  O  O346  1  0.06333144  0.76412666  0.22539299  1
  O  O347  1  0.07909263  0.76436461  0.73409158  1
  O  O348  1  0.39994766  0.08853005  0.23553201  1
  O  O349  1  0.39770958  0.08202946  0.73070020  1
  O  O350  1  0.39499085  0.43656089  0.24236576  1
  O  O351  1  0.40930248  0.43550998  0.72598640  1
  O  O352  1  0.39900461  0.76572424  0.22925158  1
  O  O353  1  0.39315191  0.76408380  0.72544332  1
  O  O354  1  0.73910716  0.08617081  0.23232525  1
  O  O355  1  0.73810866  0.10746215  0.72684953  1
  O  O356  1  0.74841243  0.42869160  0.22849402  1
  O  O357  1  0.74575198  0.42533508  0.73045527  1
  O  O358  1  0.73982434  0.75001003  0.23715303  1
  O  O359  1  0.73611806  0.74759098  0.73372720  1
