# generated using pymatgen
data_BaLaInIrO6
_symmetry_space_group_name_H-M   'P 1'
_cell_length_a   17.52337956
_cell_length_b   17.54324349
_cell_length_c   16.47242354
_cell_angle_alpha   89.99513269
_cell_angle_beta   90.01193244
_cell_angle_gamma   90.02158149
_symmetry_Int_Tables_number   1
_chemical_formula_structural   BaLaInIrO6
_chemical_formula_sum   'Ba36 La36 In36 Ir36 O216'
_cell_volume   5063.90113050
_cell_formula_units_Z   36
loop_
 _symmetry_equiv_pos_site_id
 _symmetry_equiv_pos_as_xyz
  1  'x, y, z'
loop_
 _atom_site_type_symbol
 _atom_site_label
 _atom_site_symmetry_multiplicity
 _atom_site_fract_x
 _atom_site_fract_y
 _atom_site_fract_z
 _atom_site_occupancy
  Ba  Ba0  1  0.33306161  0.15917950  0.37618194  1
  Ba  Ba1  1  1.00144767  0.84717389  0.62466366  1
  Ba  Ba2  1  0.66289312  0.15592011  0.37502346  1
  Ba  Ba3  1  0.16600594  0.67443080  0.12233716  1
  Ba  Ba4  1  0.33199331  0.48907048  0.37731817  1
  Ba  Ba5  1  0.83339328  0.67820310  0.12550696  1
  Ba  Ba6  1  -0.00327592  0.15833666  0.37390302  1
  Ba  Ba7  1  0.83011451  0.00989533  0.62373797  1
  Ba  Ba8  1  0.16986584  0.31789804  0.87677300  1
  Ba  Ba9  1  1.00307448  0.17376830  0.12593226  1
  Ba  Ba10  1  0.83011204  0.34240529  0.12175272  1
  Ba  Ba11  1  0.66592527  0.82672651  0.37803732  1
  Ba  Ba12  1  0.99993458  0.50708086  0.12489141  1
  Ba  Ba13  1  0.83363479  0.34053274  0.62454177  1
  Ba  Ba14  1  0.49969525  0.32331351  0.87438075  1
  Ba  Ba15  1  0.50496428  0.00431020  0.62715836  1
  Ba  Ba16  1  0.16762420  0.66010958  0.87715398  1
  Ba  Ba17  1  0.33394423  0.84295537  0.12006537  1
  Ba  Ba18  1  0.83460036  0.99178792  0.37681653  1
  Ba  Ba19  1  1.00598015  0.83956824  0.12207813  1
  Ba  Ba20  1  0.33671537  0.17495364  0.12334356  1
  Ba  Ba21  1  0.49738878  0.34152919  0.62862840  1
  Ba  Ba22  1  0.67148594  0.51344993  0.12503204  1
  Ba  Ba23  1  0.00135883  0.15839652  0.87373390  1
  Ba  Ba24  1  0.49641744  0.34437064  0.12212287  1
  Ba  Ba25  1  0.33524297  0.15319331  0.87671785  1
  Ba  Ba26  1  0.66351905  0.82382722  0.87540387  1
  Ba  Ba27  1  0.50141968  0.98919704  0.87647990  1
  Ba  Ba28  1  0.33704590  0.50818347  0.62673387  1
  Ba  Ba29  1  0.66551062  0.50890668  0.62591546  1
  Ba  Ba30  1  0.66705780  0.83923882  0.12342068  1
  Ba  Ba31  1  0.16636877  0.67506722  0.62216537  1
  Ba  Ba32  1  -0.00142085  0.81965245  0.87288358  1
  Ba  Ba33  1  0.99619188  0.17512491  0.62259418  1
  Ba  Ba34  1  0.16621626  0.33928036  0.12623021  1
  Ba  Ba35  1  0.16876777  0.31854831  0.37707151  1
  La  La36  1  0.33190239  0.17908652  0.62802883  1
  La  La37  1  0.50493625  0.65145846  0.37529346  1
  La  La38  1  0.15925871  0.01653474  0.62575393  1
  La  La39  1  0.83143600  0.65482462  0.37433877  1
  La  La40  1  1.00827549  0.51102978  0.62603595  1
  La  La41  1  0.65742084  0.15706486  0.87042344  1
  La  La42  1  0.17133958  0.65328931  0.36920020  1
  La  La43  1  -0.00115373  0.48575702  0.37586860  1
  La  La44  1  0.50061808  0.67778110  0.12435769  1
  La  La45  1  0.50386308  0.31552702  0.37406841  1
  La  La46  1  0.66283745  0.48473350  0.87572472  1
  La  La47  1  0.50775468  0.98655845  0.37119776  1
  La  La48  1  -0.00421338  0.81977342  0.37599175  1
  La  La49  1  -0.00174129  0.48897313  0.87973547  1
  La  La50  1  0.83490450  0.32288881  0.87311921  1
  La  La51  1  0.16187283  0.99625025  0.37120853  1
  La  La52  1  0.16140949  0.34470304  0.62259279  1
  La  La53  1  0.83005343  0.68748548  0.62774730  1
  La  La54  1  0.33482855  0.84855488  0.62807675  1
  La  La55  1  0.16663280  0.01554011  0.12131282  1
  La  La56  1  0.84060873  0.97694301  0.87398016  1
  La  La57  1  0.83166830  0.01262416  0.12542661  1
  La  La58  1  0.67587419  0.18435297  0.62394150  1
  La  La59  1  0.16853714  0.99174673  0.87606111  1
  La  La60  1  0.66226555  0.48479689  0.37430103  1
  La  La61  1  0.83358622  0.65518519  0.87669389  1
  La  La62  1  0.33061075  0.81909747  0.37470037  1
  La  La63  1  0.67173566  0.18144775  0.12079220  1
  La  La64  1  0.66960068  0.84756476  0.62485964  1
  La  La65  1  0.49468922  0.01137356  0.12202599  1
  La  La66  1  0.50547158  0.65038038  0.87657306  1
  La  La67  1  0.83854168  0.31790819  0.37582269  1
  La  La68  1  0.32944334  0.82491185  0.87236231  1
  La  La69  1  0.33110615  0.48023394  0.87476361  1
  La  La70  1  0.33834620  0.51409318  0.12103355  1
  La  La71  1  0.49076873  0.68209509  0.62671236  1
  In  In72  1  0.16825831  0.83425708  -0.00066081  1
  In  In73  1  0.66439272  0.66791570  0.74915790  1
  In  In74  1  -0.00014426  0.33292570  0.25098775  1
  In  In75  1  0.83360863  0.50221324  0.74770417  1
  In  In76  1  0.66598917  0.66742984  0.50312983  1
  In  In77  1  0.16610702  0.83671508  0.25142216  1
  In  In78  1  0.33510119  -0.00296142  0.25305444  1
  In  In79  1  0.16594110  0.83697370  0.49878847  1
  In  In80  1  0.00037336  0.33307330  0.75040555  1
  In  In81  1  0.66888221  0.00051100  0.75233597  1
  In  In82  1  0.00176160  0.66626726  0.25146786  1
  In  In83  1  0.16845790  0.49987168  0.49988473  1
  In  In84  1  0.16548712  0.83317781  0.74774912  1
  In  In85  1  0.66590633  0.33304703  0.24948317  1
  In  In86  1  0.66801981  -0.00173213  0.00127406  1
  In  In87  1  0.50039955  0.16436285  0.24830161  1
  In  In88  1  -0.00063052  -0.00112039  -0.00214951  1
  In  In89  1  0.16769830  0.50071170  0.00099195  1
  In  In90  1  0.66847467  0.66941457  0.25182112  1
  In  In91  1  -0.00098441  -0.00200615  0.24886801  1
  In  In92  1  0.49638708  0.83247981  0.49894890  1
  In  In93  1  0.49972718  0.16443062  0.74714421  1
  In  In94  1  0.83119437  0.16410334  0.75211699  1
  In  In95  1  0.49937183  0.50056916  0.24932683  1
  In  In96  1  0.50067757  0.50046223  0.50132448  1
  In  In97  1  0.33428287  0.33173097  0.50236253  1
  In  In98  1  0.82995520  0.16425115  -0.00449440  1
  In  In99  1  0.83216202  0.50062053  0.25334119  1
  In  In100  1  0.66599245  -0.00383466  0.24664869  1
  In  In101  1  0.00027851  0.33222234  0.00001244  1
  In  In102  1  0.33480584  0.33610474  0.24839679  1
  In  In103  1  0.16713263  0.50040267  0.75245881  1
  In  In104  1  0.49947766  0.16149143  0.50519470  1
  In  In105  1  0.33572274  0.66512292  0.75453847  1
  In  In106  1  -0.00076128  0.66674141  0.50100592  1
  In  In107  1  0.83423996  0.50261002  0.50257668  1
  Ir  Ir108  1  0.83301553  0.83587514  0.49913429  1
  Ir  Ir109  1  0.82621725  0.50372755  -0.00526051  1
  Ir  Ir110  1  0.00119795  0.00310710  0.50251511  1
  Ir  Ir111  1  0.33155921  -0.00152746  0.50295895  1
  Ir  Ir112  1  0.33616367  0.66874148  0.25058742  1
  Ir  Ir113  1  -0.00554169  0.66399835  0.75251347  1
  Ir  Ir114  1  -0.00378823  0.66456775  -0.00418308  1
  Ir  Ir115  1  0.83559747  0.83398599  0.25136023  1
  Ir  Ir116  1  0.49487396  0.83036504  0.24789674  1
  Ir  Ir117  1  0.66643872  0.66731790  -0.00359798  1
  Ir  Ir118  1  0.50012373  0.49995107  0.75502917  1
  Ir  Ir119  1  0.49729277  0.83224684  0.75195697  1
  Ir  Ir120  1  0.00214129  0.00127416  0.74824830  1
  Ir  Ir121  1  0.34199615  0.66680963  0.00085697  1
  Ir  Ir122  1  0.33602609  -0.00131746  -0.00447857  1
  Ir  Ir123  1  0.33103327  -0.00256739  0.74759131  1
  Ir  Ir124  1  0.33394703  0.67154964  0.49713112  1
  Ir  Ir125  1  0.66881735  0.33304042  0.49946151  1
  Ir  Ir126  1  0.50075272  0.50196798  -0.00275815  1
  Ir  Ir127  1  0.66682671  -0.00287509  0.49900452  1
  Ir  Ir128  1  0.16687388  0.16097727  0.50070793  1
  Ir  Ir129  1  0.16697214  0.16354114  0.25112141  1
  Ir  Ir130  1  0.49719308  0.82937396  -0.00071857  1
  Ir  Ir131  1  0.17042843  0.50303008  0.25097149  1
  Ir  Ir132  1  0.66608623  0.33710078  0.74996561  1
  Ir  Ir133  1  0.17039596  0.16199985  0.74885165  1
  Ir  Ir134  1  0.83080716  0.16608228  0.49750329  1
  Ir  Ir135  1  0.83387158  0.82982521  0.00093175  1
  Ir  Ir136  1  0.33478045  0.33187921  -0.00265484  1
  Ir  Ir137  1  0.83441190  0.83283307  0.74920770  1
  Ir  Ir138  1  0.83097152  0.16522270  0.24877670  1
  Ir  Ir139  1  0.66502165  0.33616013  -0.00481965  1
  Ir  Ir140  1  -0.00144272  0.33107003  0.49943398  1
  Ir  Ir141  1  0.17120557  0.16346235  -0.00101937  1
  Ir  Ir142  1  0.32948617  0.32888660  0.75262845  1
  Ir  Ir143  1  0.50423445  0.16644647  -0.00254674  1
  O  O144  1  0.31740498  0.33424341  0.11559521  1
  O  O145  1  0.29893928  0.32282140  0.63403715  1
  O  O146  1  0.31446263  0.65391967  0.12535592  1
  O  O147  1  0.31753277  0.66705578  0.61865561  1
  O  O148  1  0.30557773  0.99728955  0.11553689  1
  O  O149  1  0.29610149  0.98661950  0.62511452  1
  O  O150  1  0.64571850  0.32572401  0.11603577  1
  O  O151  1  0.64419741  0.32390237  0.62554964  1
  O  O152  1  0.63805454  0.66798474  0.11830161  1
  O  O153  1  0.62571414  0.66823045  0.62764775  1
  O  O154  1  0.62977364  0.99270979  0.12321725  1
  O  O155  1  0.65535123  0.98638830  0.62037255  1
  O  O156  1  0.98061388  0.33374627  0.12604490  1
  O  O157  1  0.98249473  0.32985801  0.61835219  1
  O  O158  1  0.98315283  0.66627302  0.11704329  1
  O  O159  1  0.96436106  0.65478872  0.63250072  1
  O  O160  1  0.96688424  1.00021228  0.12348482  1
  O  O161  1  0.97839599  1.00633810  0.62600487  1
  O  O162  1  0.18940110  0.15398977  0.12605554  1
  O  O163  1  0.19652135  0.15360221  0.62525538  1
  O  O164  1  0.20012516  0.50148176  0.12955321  1
  O  O165  1  0.18712038  0.48890050  0.62678149  1
  O  O166  1  0.18545191  0.82853364  0.12435247  1
  O  O167  1  0.19948318  0.83192461  0.62347559  1
  O  O168  1  0.53443137  0.15638852  0.11674400  1
  O  O169  1  0.54050847  0.16026564  0.62537587  1
  O  O170  1  0.52215513  0.50315704  0.11697217  1
  O  O171  1  0.51708598  0.50070556  0.63441423  1
  O  O172  1  0.51959950  0.81423348  0.12485739  1
  O  O173  1  0.52832038  0.82177901  0.63081535  1
  O  O174  1  0.85305500  0.15981027  0.12863681  1
  O  O175  1  0.84474919  0.16871821  0.61829562  1
  O  O176  1  0.84703625  0.49807647  0.11511408  1
  O  O177  1  0.87299628  0.49308802  0.62476802  1
  O  O178  1  0.85924506  0.83076144  0.12724645  1
  O  O179  1  0.85669799  0.82648481  0.62414890  1
  O  O180  1  0.14546856  0.15731515  0.37534567  1
  O  O181  1  0.14976606  0.15766451  0.87410356  1
  O  O182  1  0.14040643  0.51241603  0.37211748  1
  O  O183  1  0.13603062  0.50237025  0.87553749  1
  O  O184  1  0.13050489  0.85805111  0.37694338  1
  O  O185  1  0.14919634  0.85122688  0.87357993  1
  O  O186  1  0.48349489  0.17658666  0.37980769  1
  O  O187  1  0.48481782  0.16919938  0.87779925  1
  O  O188  1  0.47588108  0.51853764  0.37533721  1
  O  O189  1  0.46845929  0.50905193  0.87647395  1
  O  O190  1  0.46772638  0.84793473  0.36909634  1
  O  O191  1  0.46507520  0.83639074  0.87640498  1
  O  O192  1  0.81015371  0.17491594  0.37354996  1
  O  O193  1  0.79169158  0.17933596  0.87387852  1
  O  O194  1  0.79437488  0.51645940  0.38078733  1
  O  O195  1  0.79828065  0.51751213  0.87628668  1
  O  O196  1  0.81169613  0.83976612  0.37420159  1
  O  O197  1  0.81149290  0.83913596  0.87603026  1
  O  O198  1  0.02520935  0.00208840  0.38146756  1
  O  O199  1  0.03047695  -0.00093237  0.86729294  1
  O  O200  1  0.02062044  0.33585293  0.38097106  1
  O  O201  1  0.02307148  0.34960392  0.87531056  1
  O  O202  1  0.03651146  0.68061839  0.37754168  1
  O  O203  1  0.01875002  0.66263031  0.87362888  1
  O  O204  1  0.37033456  0.00585226  0.38589891  1
  O  O205  1  0.35733608  -0.00038323  0.86932392  1
  O  O206  1  0.36571672  0.33069498  0.37599905  1
  O  O207  1  0.35334170  0.33835231  0.87570922  1
  O  O208  1  0.36743234  0.67874527  0.37392986  1
  O  O209  1  0.37229732  0.68085043  0.88241472  1
  O  O210  1  0.68113423  -0.00544858  0.37841889  1
  O  O211  1  0.70375950  0.01001216  0.87771252  1
  O  O212  1  0.70019647  0.33891684  0.38148469  1
  O  O213  1  0.69565908  0.34533471  0.87211216  1
  O  O214  1  0.69841603  0.67747184  0.37879174  1
  O  O215  1  0.69514417  0.67006460  0.87647506  1
  O  O216  1  0.08274853  0.09268176  0.01643271  1
  O  O217  1  0.07289701  0.09385816  0.52107849  1
  O  O218  1  0.07446638  0.42712440  0.01702201  1
  O  O219  1  0.06517604  0.42352803  0.51842579  1
  O  O220  1  0.07172216  0.75195439  0.00560072  1
  O  O221  1  0.07191388  0.76280497  0.51872122  1
  O  O222  1  0.41756981  0.08756219  0.02183475  1
  O  O223  1  0.39376352  0.08936784  0.53177068  1
  O  O224  1  0.40162203  0.43531455  0.01459189  1
  O  O225  1  0.41038211  0.42493850  0.52020923  1
  O  O226  1  0.41413232  0.75259062  0.02717543  1
  O  O227  1  0.39488696  0.76683034  0.52159474  1
  O  O228  1  0.73854828  0.09339522  0.03688203  1
  O  O229  1  0.73369518  0.09646364  0.51988430  1
  O  O230  1  0.72943397  0.43651416  0.00672513  1
  O  O231  1  0.73742966  0.42253081  0.51766530  1
  O  O232  1  0.73814493  0.75908841  0.01597593  1
  O  O233  1  0.73880353  0.77063180  0.52939399  1
  O  O234  1  0.09826885  0.25107492  0.01308316  1
  O  O235  1  0.09815832  0.26184145  0.52405008  1
  O  O236  1  0.08512954  0.59452021  0.01306716  1
  O  O237  1  0.08538531  0.58394580  0.52711312  1
  O  O238  1  0.10161983  0.93579221  0.01935506  1
  O  O239  1  0.09605273  0.94099868  0.52395930  1
  O  O240  1  0.42897582  0.25597922  0.01680843  1
  O  O241  1  0.41749187  0.24841207  0.53306232  1
  O  O242  1  0.43308904  0.59525137  0.02577318  1
  O  O243  1  0.43155834  0.60978837  0.51831605  1
  O  O244  1  0.43189718  0.92875140  0.02269729  1
  O  O245  1  0.41859380  0.92653954  0.52715374  1
  O  O246  1  0.74974794  0.26236981  0.01591562  1
  O  O247  1  0.75745772  0.25685187  0.52002837  1
  O  O248  1  0.76128301  0.60075447  0.01392611  1
  O  O249  1  0.76926225  0.60557431  0.53231191  1
  O  O250  1  0.77093322  0.92681757  0.02068407  1
  O  O251  1  0.75877364  0.92449646  0.52073138  1
  O  O252  1  0.23373415  0.06834180  0.26791061  1
  O  O253  1  0.23336426  0.06040823  0.76738204  1
  O  O254  1  0.23610080  0.41172662  0.26825908  1
  O  O255  1  0.24416989  0.40208734  0.77039657  1
  O  O256  1  0.24213054  0.73542502  0.27937774  1
  O  O257  1  0.24817945  0.74580961  0.77488890  1
  O  O258  1  0.56716238  0.06294239  0.27201394  1
  O  O259  1  0.57701338  0.07577314  0.77445409  1
  O  O260  1  0.56699644  0.40228357  0.28089093  1
  O  O261  1  0.57296451  0.40895561  0.77239024  1
  O  O262  1  0.55797621  0.73387513  0.26843319  1
  O  O263  1  0.56094641  0.73744793  0.77728117  1
  O  O264  1  0.90143094  0.07532017  0.26255585  1
  O  O265  1  0.90552657  0.06439642  0.77394921  1
  O  O266  1  0.90656359  0.40749984  0.28516346  1
  O  O267  1  0.90286736  0.40825354  0.78307158  1
  O  O268  1  0.89955085  0.73926019  0.28003911  1
  O  O269  1  0.89641656  0.73168140  0.76973744  1
  O  O270  1  0.25444238  0.23679919  0.26142446  1
  O  O271  1  0.26730902  0.22842716  0.76259926  1
  O  O272  1  0.26614161  0.57536543  0.26906034  1
  O  O273  1  0.26832897  0.56793649  0.77827756  1
  O  O274  1  0.26692138  0.90297321  0.28244906  1
  O  O275  1  0.26815443  0.90537030  0.77043546  1
  O  O276  1  0.59298528  0.24064081  0.26600862  1
  O  O277  1  0.60031355  0.24310783  0.76815928  1
  O  O278  1  0.59737552  0.57200644  0.27665481  1
  O  O279  1  0.59285943  0.56684692  0.77941937  1
  O  O280  1  0.58488530  0.89845162  0.26676089  1
  O  O281  1  0.58995713  0.90199238  0.76094425  1
  O  O282  1  0.91492167  0.24223558  0.26985058  1
  O  O283  1  0.92007455  0.24382396  0.76923513  1
  O  O284  1  0.93435169  0.56877080  0.27764620  1
  O  O285  1  0.93014230  0.57337081  0.78129431  1
  O  O286  1  0.93194374  0.89544511  0.27269692  1
  O  O287  1  0.92753008  0.90896515  0.77163604  1
  O  O288  1  0.25659198  0.22932857  0.49226311  1
  O  O289  1  0.26583667  0.23730668  0.98314639  1
  O  O290  1  0.26008722  0.58521330  0.47694181  1
  O  O291  1  0.27403475  0.57419156  0.97867404  1
  O  O292  1  0.26884815  0.90645936  0.47366852  1
  O  O293  1  0.26858801  0.90956500  0.96902115  1
  O  O294  1  0.59404974  0.24827271  0.48218540  1
  O  O295  1  0.60024738  0.23629777  0.97596302  1
  O  O296  1  0.59985006  0.56729123  0.47359103  1
  O  O297  1  0.59510308  0.57347652  0.96917028  1
  O  O298  1  0.59310162  0.90756745  0.48938298  1
  O  O299  1  0.58544445  0.90196522  0.98235650  1
  O  O300  1  0.92017558  0.24316682  0.47469408  1
  O  O301  1  0.91460677  0.24873373  0.97325284  1
  O  O302  1  0.92871543  0.57270842  0.46295486  1
  O  O303  1  0.92315199  0.57053215  0.97122191  1
  O  O304  1  0.93387093  0.90489794  0.47846581  1
  O  O305  1  0.92226305  0.90047559  0.97987082  1
  O  O306  1  0.23168290  0.06169871  0.48014479  1
  O  O307  1  0.23808901  0.06389706  0.97742355  1
  O  O308  1  0.23572055  0.40100528  0.49120399  1
  O  O309  1  0.25062172  0.40839002  0.97706197  1
  O  O310  1  0.24198280  0.73914957  0.46542510  1
  O  O311  1  0.25687994  0.74379192  0.97803956  1
  O  O312  1  0.57106252  0.06084143  0.47694240  1
  O  O313  1  0.57917033  0.08313579  0.97516708  1
  O  O314  1  0.57923266  0.40210046  0.47099508  1
  O  O315  1  0.57488305  0.41362938  0.97064244  1
  O  O316  1  0.56077761  0.73268554  0.47795733  1
  O  O317  1  0.56537302  0.73127636  0.97720730  1
  O  O318  1  0.90601716  0.07490853  0.48269976  1
  O  O319  1  0.89982271  0.06562137  0.97122204  1
  O  O320  1  0.90869233  0.40093234  0.47125312  1
  O  O321  1  0.89414194  0.41395199  0.97032857  1
  O  O322  1  0.89911580  0.74259437  0.47715342  1
  O  O323  1  0.90038694  0.73256418  0.97455768  1
  O  O324  1  0.09439291  0.25303768  0.23816081  1
  O  O325  1  0.10582937  0.25753561  0.72802484  1
  O  O326  1  0.10537784  0.59521813  0.23843920  1
  O  O327  1  0.08236777  0.59315756  0.72877311  1
  O  O328  1  0.10532578  0.94208448  0.22716939  1
  O  O329  1  0.09749585  0.93641088  0.72616529  1
  O  O330  1  0.42900532  0.26150633  0.23597927  1
  O  O331  1  0.41793684  0.25630859  0.73153534  1
  O  O332  1  0.43131860  0.60636121  0.22681137  1
  O  O333  1  0.44023503  0.59971312  0.73715182  1
  O  O334  1  0.43586974  0.92637788  0.22387827  1
  O  O335  1  0.42165700  0.92300355  0.72372236  1
  O  O336  1  0.75845407  0.25152870  0.22983732  1
  O  O337  1  0.75385218  0.26731359  0.73436631  1
  O  O338  1  0.76818520  0.60286960  0.24008481  1
  O  O339  1  0.76762797  0.60447416  0.72688642  1
  O  O340  1  0.77163579  0.93081849  0.22559601  1
  O  O341  1  0.76500492  0.92391710  0.73758914  1
  O  O342  1  0.07893662  0.09365218  0.23461739  1
  O  O343  1  0.07510554  0.09351740  0.72674813  1
  O  O344  1  0.07749068  0.43499318  0.24303497  1
  O  O345  1  0.07222475  0.42599764  0.71910083  1
  O  O346  1  0.06766487  0.76682807  0.24369463  1
  O  O347  1  0.06733557  0.75292810  0.73327804  1
  O  O348  1  0.41169191  0.08393362  0.22437810  1
  O  O349  1  0.39719833  0.09052194  0.72383573  1
  O  O350  1  0.39780609  0.43966350  0.22288509  1
  O  O351  1  0.39876684  0.42925102  0.74537612  1
  O  O352  1  0.39826531  0.76573398  0.23627694  1
  O  O353  1  0.40636626  0.76559433  0.72510745  1
  O  O354  1  0.74019973  0.09474189  0.22386392  1
  O  O355  1  0.73110444  0.10246748  0.72431970  1
  O  O356  1  0.73565052  0.42852544  0.24070520  1
  O  O357  1  0.73221419  0.42996803  0.73916619  1
  O  O358  1  0.74264429  0.77004290  0.23661308  1
  O  O359  1  0.73905455  0.76837795  0.72324452  1
