# generated using pymatgen
data_BaLaInIrO6
_symmetry_space_group_name_H-M   'P 1'
_cell_length_a   17.53754024
_cell_length_b   17.57308654
_cell_length_c   16.51070076
_cell_angle_alpha   89.99723279
_cell_angle_beta   90.00895920
_cell_angle_gamma   90.01973910
_symmetry_Int_Tables_number   1
_chemical_formula_structural   BaLaInIrO6
_chemical_formula_sum   'Ba36 La36 In36 Ir36 O216'
_cell_volume   5088.41123616
_cell_formula_units_Z   36
loop_
 _symmetry_equiv_pos_site_id
 _symmetry_equiv_pos_as_xyz
  1  'x, y, z'
loop_
 _atom_site_type_symbol
 _atom_site_label
 _atom_site_symmetry_multiplicity
 _atom_site_fract_x
 _atom_site_fract_y
 _atom_site_fract_z
 _atom_site_occupancy
  Ba  Ba0  1  0.49899200  0.67115204  0.62237972  1
  Ba  Ba1  1  0.49833475  0.66201624  0.87207324  1
  Ba  Ba2  1  1.00431032  0.83956397  0.12603974  1
  Ba  Ba3  1  0.16245293  0.34414089  0.62278791  1
  Ba  Ba4  1  0.50081164  0.32484783  0.37514864  1
  Ba  Ba5  1  -0.00271593  0.82147951  0.87584257  1
  Ba  Ba6  1  0.49880071  0.67432089  0.12269871  1
  Ba  Ba7  1  0.83538311  0.99023945  0.87490429  1
  Ba  Ba8  1  0.66567085  0.15949578  0.87619792  1
  Ba  Ba9  1  0.33259069  0.82541923  0.37658101  1
  Ba  Ba10  1  0.32873652  0.50673018  0.62020142  1
  Ba  Ba11  1  1.00147064  0.84235294  0.62539783  1
  Ba  Ba12  1  1.00591044  0.17243620  0.12238725  1
  Ba  Ba13  1  -0.00048047  0.48971115  0.87448881  1
  Ba  Ba14  1  0.33417343  0.17809357  0.12729622  1
  Ba  Ba15  1  0.32817408  0.82023742  0.87581010  1
  Ba  Ba16  1  0.33467309  0.17868353  0.62848317  1
  Ba  Ba17  1  0.16520141  0.67368356  0.12452559  1
  Ba  Ba18  1  1.00488010  0.50668120  0.12380345  1
  Ba  Ba19  1  0.32847766  0.15921654  0.37460735  1
  Ba  Ba20  1  0.83188504  0.00704620  0.12288510  1
  Ba  Ba21  1  0.66967576  0.49033695  0.37663200  1
  Ba  Ba22  1  0.16390789  0.00685242  0.12321859  1
  Ba  Ba23  1  0.16583548  0.32816585  0.37627205  1
  Ba  Ba24  1  0.82973761  0.01070169  0.62864824  1
  Ba  Ba25  1  0.00164464  0.15716433  0.37567919  1
  Ba  Ba26  1  0.16356026  0.66152902  0.37234080  1
  Ba  Ba27  1  0.33373572  0.83750315  0.62500271  1
  Ba  Ba28  1  0.16936549  0.33945544  0.13236394  1
  Ba  Ba29  1  0.67131645  0.84415126  0.62659358  1
  Ba  Ba30  1  1.00675470  0.51527996  0.62562298  1
  Ba  Ba31  1  0.33412338  0.50700519  0.12595783  1
  Ba  Ba32  1  0.16653085  0.98335566  0.87771679  1
  Ba  Ba33  1  0.49790591  0.00980017  0.12340951  1
  Ba  Ba34  1  0.66918966  0.49604500  0.87449941  1
  Ba  Ba35  1  0.49810805  0.00649474  0.62590115  1
  La  La36  1  0.49971677  0.34519580  0.62487962  1
  La  La37  1  0.83448762  0.35145863  0.62699744  1
  La  La38  1  0.00671778  0.82410791  0.37757566  1
  La  La39  1  0.65837155  0.83764217  0.87709313  1
  La  La40  1  0.83142815  0.34934347  0.12408658  1
  La  La41  1  0.50074729  0.64932557  0.37553641  1
  La  La42  1  0.67068419  0.84595031  0.12435824  1
  La  La43  1  0.83079669  0.68128980  0.62320159  1
  La  La44  1  0.66964552  0.18671327  0.12589186  1
  La  La45  1  0.32695442  0.49432172  0.87634218  1
  La  La46  1  0.16348380  0.68056895  0.62586842  1
  La  La47  1  0.17182165  0.98669119  0.37054645  1
  La  La48  1  0.83165708  0.67914723  0.12229102  1
  La  La49  1  0.84201047  0.32195331  0.87351681  1
  La  La50  1  0.84230849  0.65072991  0.37498137  1
  La  La51  1  0.50153009  0.32522207  0.87519955  1
  La  La52  1  0.16456188  0.65640747  0.87476490  1
  La  La53  1  -0.00450492  0.15213621  0.87633404  1
  La  La54  1  0.49900202  0.98645712  0.87029970  1
  La  La55  1  0.33576607  0.84343734  0.12631533  1
  La  La56  1  0.83917265  0.98069299  0.37977523  1
  La  La57  1  0.84158333  0.31623213  0.37839952  1
  La  La58  1  0.32998147  0.48845408  0.37521907  1
  La  La59  1  1.00693859  0.18034417  0.62799954  1
  La  La60  1  0.67296375  0.51370040  0.62484540  1
  La  La61  1  0.65836147  0.81637679  0.36811030  1
  La  La62  1  0.84128750  0.64990168  0.86918608  1
  La  La63  1  0.32985770  0.15030810  0.87556167  1
  La  La64  1  0.67060299  0.17715543  0.62061228  1
  La  La65  1  -0.00698721  0.48097437  0.37533370  1
  La  La66  1  0.17124909  0.32399223  0.87666213  1
  La  La67  1  0.66006944  0.15241235  0.37204300  1
  La  La68  1  0.49452016  0.34779976  0.12727552  1
  La  La69  1  0.67191105  0.51736733  0.12642868  1
  La  La70  1  0.15878273  0.01277555  0.62018262  1
  La  La71  1  0.49605266  0.98518099  0.37487292  1
  In  In72  1  0.66857077  0.33550521  0.75215219  1
  In  In73  1  0.83313761  0.83207075  0.75259399  1
  In  In74  1  -0.00136399  0.66331998  0.24825278  1
  In  In75  1  0.33033863  0.00080931  0.50223104  1
  In  In76  1  -0.00117290  -0.00191807  0.25403263  1
  In  In77  1  0.67135025  0.33128913  0.49970692  1
  In  In78  1  0.83388434  0.17017311  0.00265633  1
  In  In79  1  0.50154438  0.83074396  0.49763556  1
  In  In80  1  0.83287728  0.82855641  0.25194894  1
  In  In81  1  0.50132390  0.16460896  0.49914086  1
  In  In82  1  0.50033427  0.50102693  -0.00375018  1
  In  In83  1  0.16605369  0.16711228  0.49762127  1
  In  In84  1  0.16273536  0.50340275  0.49793804  1
  In  In85  1  0.33560582  0.33282941  -0.00176430  1
  In  In86  1  0.00071510  -0.00104613  0.74770216  1
  In  In87  1  0.66759490  0.33826508  -0.00098298  1
  In  In88  1  0.66602708  0.00459846  0.75139065  1
  In  In89  1  -0.00230353  0.33048025  0.24699533  1
  In  In90  1  0.66889520  -0.00139735  0.49547146  1
  In  In91  1  0.66912552  0.66772555  -0.00274912  1
  In  In92  1  0.49860876  0.83027647  0.75002317  1
  In  In93  1  0.33216853  0.66531230  0.49789847  1
  In  In94  1  0.16746826  0.16882038  0.75272231  1
  In  In95  1  0.67029853  0.66600216  0.49517509  1
  In  In96  1  0.66802497  0.33626328  0.25036277  1
  In  In97  1  0.66738773  0.00104409  0.25066898  1
  In  In98  1  0.50277452  0.49738129  0.50063487  1
  In  In99  1  0.49988434  0.16918242  0.75260544  1
  In  In100  1  0.33473430  0.66684275  0.24748915  1
  In  In101  1  0.66151601  0.00632504  0.00236988  1
  In  In102  1  0.32905076  -0.00062480  0.75028663  1
  In  In103  1  0.33271529  0.00013711  0.00280057  1
  In  In104  1  0.16534945  0.49866041  0.00129488  1
  In  In105  1  0.83069529  0.16502490  0.25121176  1
  In  In106  1  0.66871719  0.66685556  0.75153871  1
  In  In107  1  -0.00146570  -0.00343379  -0.00013979  1
  Ir  Ir108  1  -0.00656169  0.33292553  0.50337721  1
  Ir  Ir109  1  0.50084043  0.83230230  0.24616185  1
  Ir  Ir110  1  -0.00274858  0.66565229  -0.00396468  1
  Ir  Ir111  1  0.33462733  0.33561725  0.50350117  1
  Ir  Ir112  1  0.16867746  0.83477326  0.24961391  1
  Ir  Ir113  1  0.16684890  0.82495671  -0.00060443  1
  Ir  Ir114  1  0.16134059  0.83401687  0.50093993  1
  Ir  Ir115  1  0.49767021  0.17009899  0.00193736  1
  Ir  Ir116  1  0.49833101  0.83191586  0.00290614  1
  Ir  Ir117  1  0.50254781  0.49968443  0.25035284  1
  Ir  Ir118  1  0.83422684  0.83105387  0.49663613  1
  Ir  Ir119  1  0.83759031  0.49944807  0.74679589  1
  Ir  Ir120  1  0.16601251  0.50025373  0.75095417  1
  Ir  Ir121  1  0.33685403  0.34058209  0.74898506  1
  Ir  Ir122  1  0.49934162  0.16412630  0.24915469  1
  Ir  Ir123  1  0.33195635  0.66657557  -0.00226791  1
  Ir  Ir124  1  0.33496793  -0.00040253  0.24873337  1
  Ir  Ir125  1  0.00115271  0.33305625  -0.00522587  1
  Ir  Ir126  1  0.16899120  0.16673874  0.24723043  1
  Ir  Ir127  1  0.66631658  0.66631383  0.24913748  1
  Ir  Ir128  1  0.83549845  0.16947052  0.50462374  1
  Ir  Ir129  1  0.49585971  0.49887211  0.74992280  1
  Ir  Ir130  1  0.16529935  0.49902354  0.25346738  1
  Ir  Ir131  1  0.33667363  0.33534145  0.25245770  1
  Ir  Ir132  1  0.16442093  0.17164938  -0.00235911  1
  Ir  Ir133  1  0.83251532  0.50212942  0.25063331  1
  Ir  Ir134  1  0.82954035  0.82726070  0.00115478  1
  Ir  Ir135  1  0.32804308  0.65980514  0.75151368  1
  Ir  Ir136  1  -0.00198337  -0.00052685  0.49944388  1
  Ir  Ir137  1  0.16562282  0.82661487  0.74967014  1
  Ir  Ir138  1  0.00124797  0.33466411  0.75181719  1
  Ir  Ir139  1  0.83691370  0.50126610  0.00377950  1
  Ir  Ir140  1  -0.00346252  0.66995350  0.50085934  1
  Ir  Ir141  1  0.00175205  0.66389677  0.74910097  1
  Ir  Ir142  1  0.83843152  0.17470670  0.74572733  1
  Ir  Ir143  1  0.83824818  0.50175832  0.50210573  1
  O  O144  1  0.31909820  0.33532685  0.13128932  1
  O  O145  1  0.30974332  0.33441240  0.62663336  1
  O  O146  1  0.31462195  0.66747621  0.11763741  1
  O  O147  1  0.29955732  0.66117330  0.63195205  1
  O  O148  1  0.31377391  0.99083084  0.12903707  1
  O  O149  1  0.29324268  0.99668115  0.62659247  1
  O  O150  1  0.63154535  0.32668794  0.12537328  1
  O  O151  1  0.63886519  0.31729835  0.62787637  1
  O  O152  1  0.64723171  0.65473767  0.13016807  1
  O  O153  1  0.65118444  0.65073405  0.62354942  1
  O  O154  1  0.64608953  0.98213125  0.12538662  1
  O  O155  1  0.65037026  1.00761258  0.62183567  1
  O  O156  1  0.96931073  0.33101184  0.11620461  1
  O  O157  1  0.96895638  0.32184564  0.62889191  1
  O  O158  1  0.97005705  0.66504470  0.11750316  1
  O  O159  1  0.96931373  0.66718848  0.62549961  1
  O  O160  1  0.98512861  0.99715286  0.12660166  1
  O  O161  1  0.97856898  0.99796351  0.61724755  1
  O  O162  1  0.18557665  0.16702264  0.12293563  1
  O  O163  1  0.18281482  0.15542247  0.62473684  1
  O  O164  1  0.18368829  0.49702822  0.13242801  1
  O  O165  1  0.17737633  0.50072228  0.62930057  1
  O  O166  1  0.19704843  0.82893160  0.12588359  1
  O  O167  1  0.18385961  0.81602367  0.62575577  1
  O  O168  1  0.53162056  0.16259553  0.12512379  1
  O  O169  1  0.53535417  0.16508509  0.62635571  1
  O  O170  1  0.53323376  0.49087658  0.13008801  1
  O  O171  1  0.53343670  0.48808877  0.63189280  1
  O  O172  1  0.53292594  0.82820877  0.12457057  1
  O  O173  1  0.52258283  0.82905952  0.62436106  1
  O  O174  1  0.85893362  0.16193629  0.12704383  1
  O  O175  1  0.87169689  0.16438995  0.62462943  1
  O  O176  1  0.85953359  0.48775559  0.12747840  1
  O  O177  1  0.86288415  0.48720269  0.62461151  1
  O  O178  1  0.85474488  0.82027356  0.12083477  1
  O  O179  1  0.85476357  0.82335232  0.61529699  1
  O  O180  1  0.15425463  0.16949462  0.36712061  1
  O  O181  1  0.13394314  0.18386735  0.87964205  1
  O  O182  1  0.13147557  0.50143514  0.37151300  1
  O  O183  1  0.15075993  0.51167591  0.87044156  1
  O  O184  1  0.13922552  0.84672654  0.37609827  1
  O  O185  1  0.14451330  0.81683662  0.87552886  1
  O  O186  1  0.47698042  0.17217749  0.36605149  1
  O  O187  1  0.46420422  0.18726265  0.88530015  1
  O  O188  1  0.47027125  0.50578031  0.36913997  1
  O  O189  1  0.46317459  0.50390674  0.86747408  1
  O  O190  1  0.47958417  0.84240010  0.36309161  1
  O  O191  1  0.47578816  0.83963363  0.88493210  1
  O  O192  1  0.79988512  0.18199492  0.38578189  1
  O  O193  1  0.81502094  0.18564089  0.86613008  1
  O  O194  1  0.81444492  0.51683213  0.37714025  1
  O  O195  1  0.81640859  0.51278300  0.87448441  1
  O  O196  1  0.80175553  0.83475060  0.37948329  1
  O  O197  1  0.79870667  0.82535656  0.88318106  1
  O  O198  1  0.03161268  -0.00229018  0.38266819  1
  O  O199  1  0.01850153  0.01056930  0.87409526  1
  O  O200  1  0.00945218  0.34203657  0.38183523  1
  O  O201  1  0.03412130  0.33728416  0.87319322  1
  O  O202  1  0.00979843  0.68115111  0.37922297  1
  O  O203  1  0.02892735  0.66442673  0.87233926  1
  O  O204  1  0.35802426  0.00027121  0.36761259  1
  O  O205  1  0.36032606  0.00528383  0.88046377  1
  O  O206  1  0.35518069  0.34760845  0.37943510  1
  O  O207  1  0.36578483  0.35234498  0.86704109  1
  O  O208  1  0.36605207  0.66978976  0.36992632  1
  O  O209  1  0.35026530  0.65683213  0.87458269  1
  O  O210  1  0.70762530  0.01839032  0.37363884  1
  O  O211  1  0.68725008  -0.00411983  0.88037000  1
  O  O212  1  0.70577825  0.33650190  0.37449839  1
  O  O213  1  0.70775714  0.34222163  0.87437407  1
  O  O214  1  0.70388972  0.67429933  0.36651437  1
  O  O215  1  0.70540196  0.66010948  0.87521401  1
  O  O216  1  0.07874222  0.09786593  0.00791276  1
  O  O217  1  0.06260899  0.09274417  0.52524733  1
  O  O218  1  0.07160856  0.42070077  0.01401216  1
  O  O219  1  0.06348668  0.42531228  0.51006966  1
  O  O220  1  0.07046855  0.75382179  0.01642144  1
  O  O221  1  0.06242168  0.76719150  0.50958981  1
  O  O222  1  0.40492444  0.10395711  0.01275340  1
  O  O223  1  0.40386553  0.09608039  0.51714350  1
  O  O224  1  0.41075940  0.42463155  0.01969175  1
  O  O225  1  0.40805468  0.42033007  0.51894533  1
  O  O226  1  0.40121968  0.76248982  0.02364277  1
  O  O227  1  0.40615996  0.75740141  0.51465677  1
  O  O228  1  0.73067022  0.10447362  0.02464385  1
  O  O229  1  0.74142746  0.10728448  0.52255021  1
  O  O230  1  0.74316576  0.43636900  0.03203084  1
  O  O231  1  0.74411992  0.43483407  0.52972420  1
  O  O232  1  0.74201277  0.75829705  0.03270308  1
  O  O233  1  0.74483288  0.76167760  0.51711494  1
  O  O234  1  0.09765217  0.26764771  0.01511893  1
  O  O235  1  0.08026733  0.25671148  0.52082791  1
  O  O236  1  0.08960655  0.59634398  0.00956414  1
  O  O237  1  0.09373506  0.60802915  0.52154107  1
  O  O238  1  0.09421114  0.91369762  0.01145631  1
  O  O239  1  0.09610143  0.93480134  0.52082960  1
  O  O240  1  0.43768862  0.26629440  0.02558881  1
  O  O241  1  0.42969271  0.26864696  0.52411959  1
  O  O242  1  0.42170654  0.59727242  0.01224459  1
  O  O243  1  0.42758312  0.58957131  0.51041773  1
  O  O244  1  0.42196428  0.91449756  0.02641392  1
  O  O245  1  0.42949660  0.93032218  0.50203874  1
  O  O246  1  0.76621387  0.27079077  0.02527423  1
  O  O247  1  0.77468177  0.26459418  0.53204613  1
  O  O248  1  0.76908447  0.59204165  0.03041063  1
  O  O249  1  0.77369766  0.59554892  0.52206582  1
  O  O250  1  0.75443131  0.91217556  0.02133037  1
  O  O251  1  0.77321724  0.92734528  0.50963230  1
  O  O252  1  0.23963304  0.06699422  0.27097447  1
  O  O253  1  0.24216958  0.08052442  0.78403349  1
  O  O254  1  0.24766551  0.41398778  0.27941943  1
  O  O255  1  0.23818591  0.40815118  0.77807979  1
  O  O256  1  0.23979292  0.74657445  0.26405630  1
  O  O257  1  0.23017961  0.72420586  0.76942373  1
  O  O258  1  0.56236570  0.06933648  0.27540337  1
  O  O259  1  0.56625283  0.07082383  0.78021082  1
  O  O260  1  0.57261187  0.41135966  0.26920961  1
  O  O261  1  0.56388884  0.40888901  0.77354137  1
  O  O262  1  0.57005588  0.73572267  0.27602713  1
  O  O263  1  0.58790762  0.75130088  0.78132268  1
  O  O264  1  0.89773132  0.06397592  0.28065422  1
  O  O265  1  0.90681350  0.08673339  0.76862564  1
  O  O266  1  0.89672461  0.40757662  0.27540378  1
  O  O267  1  0.90150380  0.39979498  0.76984753  1
  O  O268  1  0.89192015  0.72280398  0.26065734  1
  O  O269  1  0.90805634  0.72895340  0.76965042  1
  O  O270  1  0.26097968  0.24764428  0.26813667  1
  O  O271  1  0.26564443  0.25154729  0.78095679  1
  O  O272  1  0.25790425  0.56789416  0.27243374  1
  O  O273  1  0.26063338  0.56573440  0.77447456  1
  O  O274  1  0.26173356  0.90852045  0.26875993  1
  O  O275  1  0.25265093  0.89680694  0.76769780  1
  O  O276  1  0.59532876  0.22814096  0.26730883  1
  O  O277  1  0.58620371  0.25082827  0.78328234  1
  O  O278  1  0.59059097  0.57556481  0.27647637  1
  O  O279  1  0.58490229  0.57048009  0.76502942  1
  O  O280  1  0.59453662  0.89885876  0.27158250  1
  O  O281  1  0.58786647  0.91077884  0.78153159  1
  O  O282  1  0.91871013  0.24590802  0.27925190  1
  O  O283  1  0.93612904  0.23973920  0.77420526  1
  O  O284  1  0.92814458  0.56444670  0.27731412  1
  O  O285  1  0.92773285  0.57427505  0.77111194  1
  O  O286  1  0.93137149  0.89603335  0.28127920  1
  O  O287  1  0.92587011  0.90658821  0.76469834  1
  O  O288  1  0.25959286  0.24942742  0.48869884  1
  O  O289  1  0.25762873  0.24097248  0.97118318  1
  O  O290  1  0.26072969  0.56986625  0.46975812  1
  O  O291  1  0.26339143  0.57389562  0.97870077  1
  O  O292  1  0.24876127  0.90397241  0.48165703  1
  O  O293  1  0.25544731  0.89804485  0.99085427  1
  O  O294  1  0.60839997  0.22702778  0.47983304  1
  O  O295  1  0.58949746  0.23611838  0.98577957  1
  O  O296  1  0.59450236  0.57408101  0.47936593  1
  O  O297  1  0.59638387  0.57287842  0.99215225  1
  O  O298  1  0.60079505  0.90097187  0.46433612  1
  O  O299  1  0.58402472  0.90617026  0.97921640  1
  O  O300  1  0.92577675  0.23954239  0.48276289  1
  O  O301  1  0.93374718  0.24456452  0.96712303  1
  O  O302  1  0.93418450  0.57078916  0.47448893  1
  O  O303  1  0.92463463  0.57746518  0.97518977  1
  O  O304  1  0.93031337  0.90075398  0.47028715  1
  O  O305  1  0.91580203  0.90053634  0.98414316  1
  O  O306  1  0.22600360  0.06308591  0.47852257  1
  O  O307  1  0.23862775  0.08399260  0.97904754  1
  O  O308  1  0.24712124  0.41095115  0.48427287  1
  O  O309  1  0.24137503  0.40781528  0.97029642  1
  O  O310  1  0.22691453  0.73984827  0.49033447  1
  O  O311  1  0.23404773  0.72934253  0.97785342  1
  O  O312  1  0.57125548  0.06761722  0.46134896  1
  O  O313  1  0.55658345  0.07393855  0.97430149  1
  O  O314  1  0.57480908  0.40181436  0.49052817  1
  O  O315  1  0.56973744  0.40231080  0.97017799  1
  O  O316  1  0.57562248  0.73666768  0.46032561  1
  O  O317  1  0.57954134  0.75250196  0.97814888  1
  O  O318  1  0.90009908  0.06686920  0.47571219  1
  O  O319  1  0.91200013  0.08164120  0.97580815  1
  O  O320  1  0.89995707  0.40355474  0.47799569  1
  O  O321  1  0.90187748  0.40011056  0.97746261  1
  O  O322  1  0.89674942  0.73150265  0.47924398  1
  O  O323  1  0.89733930  0.73040729  0.97724122  1
  O  O324  1  0.09410553  0.25445677  0.23670576  1
  O  O325  1  0.09060735  0.26458294  0.73231946  1
  O  O326  1  0.09308188  0.58763680  0.23447444  1
  O  O327  1  0.10243725  0.59937431  0.73172717  1
  O  O328  1  0.09932270  0.92434997  0.24054264  1
  O  O329  1  0.10335240  0.92442087  0.72659926  1
  O  O330  1  0.43354668  0.26389375  0.22584296  1
  O  O331  1  0.42916954  0.27495703  0.72726821  1
  O  O332  1  0.43165981  0.58745738  0.23267691  1
  O  O333  1  0.42166667  0.58959311  0.72751310  1
  O  O334  1  0.42717660  0.92374467  0.22423119  1
  O  O335  1  0.42472367  0.92643158  0.74172115  1
  O  O336  1  0.76228221  0.26811462  0.21632498  1
  O  O337  1  0.77334436  0.26674157  0.72261862  1
  O  O338  1  0.76409741  0.59921579  0.22288660  1
  O  O339  1  0.76895751  0.58813656  0.72069319  1
  O  O340  1  0.75944226  0.92180922  0.23380459  1
  O  O341  1  0.75599981  0.92393220  0.73858235  1
  O  O342  1  0.08222031  0.09282876  0.23825628  1
  O  O343  1  0.06995621  0.09672001  0.72558155  1
  O  O344  1  0.07316119  0.42681909  0.24181565  1
  O  O345  1  0.07179061  0.42854803  0.73311029  1
  O  O346  1  0.07521376  0.76367082  0.24472922  1
  O  O347  1  0.07508769  0.75153517  0.72539416  1
  O  O348  1  0.40506134  0.09340650  0.23075447  1
  O  O349  1  0.39979254  0.10253618  0.74737811  1
  O  O350  1  0.41458375  0.42289332  0.22734270  1
  O  O351  1  0.41058939  0.42609214  0.71914713  1
  O  O352  1  0.40745828  0.76730093  0.22188267  1
  O  O353  1  0.40174737  0.74691937  0.73877538  1
  O  O354  1  0.72250169  0.10913220  0.23070443  1
  O  O355  1  0.74214934  0.11138052  0.72724411  1
  O  O356  1  0.73954410  0.43767944  0.22256490  1
  O  O357  1  0.74276785  0.43335774  0.72005379  1
  O  O358  1  0.72837528  0.76022317  0.22364019  1
  O  O359  1  0.75343188  0.74825481  0.72049896  1
