# generated using pymatgen
data_BaLaInIrO6
_symmetry_space_group_name_H-M   'P 1'
_cell_length_a   17.53591205
_cell_length_b   17.57456838
_cell_length_c   16.51363424
_cell_angle_alpha   90.01120565
_cell_angle_beta   89.98132695
_cell_angle_gamma   89.98450813
_symmetry_Int_Tables_number   1
_chemical_formula_structural   BaLaInIrO6
_chemical_formula_sum   'Ba36 La36 In36 Ir36 O216'
_cell_volume   5089.27173652
_cell_formula_units_Z   36
loop_
 _symmetry_equiv_pos_site_id
 _symmetry_equiv_pos_as_xyz
  1  'x, y, z'
loop_
 _atom_site_type_symbol
 _atom_site_label
 _atom_site_symmetry_multiplicity
 _atom_site_fract_x
 _atom_site_fract_y
 _atom_site_fract_z
 _atom_site_occupancy
  Ba  Ba0  1  0.82909711  0.01069256  0.12796056  1
  Ba  Ba1  1  0.99764105  0.50693738  0.62246306  1
  Ba  Ba2  1  0.49979453  0.32464245  0.87830728  1
  Ba  Ba3  1  -0.00379559  0.16155701  0.87591235  1
  Ba  Ba4  1  0.16492545  0.01039873  0.62344493  1
  Ba  Ba5  1  0.16863337  0.34013407  0.12635053  1
  Ba  Ba6  1  -0.00334104  0.82289278  0.37552874  1
  Ba  Ba7  1  0.83410206  0.32348251  0.37638937  1
  Ba  Ba8  1  0.00392561  0.82429454  0.86878167  1
  Ba  Ba9  1  0.33265637  0.17300385  0.12973936  1
  Ba  Ba10  1  -0.00332026  0.49147820  0.37309849  1
  Ba  Ba11  1  0.33579718  0.49029758  0.87326066  1
  Ba  Ba12  1  0.49928407  0.99480553  0.87303917  1
  Ba  Ba13  1  0.33050205  0.83958579  0.12350389  1
  Ba  Ba14  1  0.83572922  0.65448347  0.87460138  1
  Ba  Ba15  1  0.83760369  0.65532817  0.37341214  1
  Ba  Ba16  1  0.67289360  0.50945511  0.62746133  1
  Ba  Ba17  1  0.99884393  0.83834248  0.12422074  1
  Ba  Ba18  1  0.16363435  0.66304129  0.37522540  1
  Ba  Ba19  1  0.33226659  0.17246501  0.62325155  1
  Ba  Ba20  1  0.33473770  0.50559730  0.12233343  1
  Ba  Ba21  1  0.50752463  0.31759442  0.37416309  1
  Ba  Ba22  1  0.50085693  0.67523044  0.62870308  1
  Ba  Ba23  1  0.66208759  0.15788693  0.87763651  1
  Ba  Ba24  1  0.82975843  0.34357782  0.12363527  1
  Ba  Ba25  1  0.50030973  0.01109288  0.12504196  1
  Ba  Ba26  1  0.16794623  0.99091255  0.37927149  1
  Ba  Ba27  1  0.50254405  0.65669372  0.87415811  1
  Ba  Ba28  1  0.49782363  0.34000872  0.12799375  1
  Ba  Ba29  1  0.49749542  0.98922428  0.37201724  1
  Ba  Ba30  1  0.16924668  0.32679273  0.87620510  1
  Ba  Ba31  1  0.33226679  0.16082356  0.87892644  1
  Ba  Ba32  1  0.33541385  0.15764951  0.37191196  1
  Ba  Ba33  1  1.00293567  0.50729802  0.12716910  1
  Ba  Ba34  1  0.49967067  0.00695567  0.62363338  1
  Ba  Ba35  1  1.00356009  0.17729048  0.62742231  1
  La  La36  1  0.83638166  0.68086216  0.12601570  1
  La  La37  1  0.49840315  0.34931172  0.62635829  1
  La  La38  1  0.83494005  0.32206404  0.87617029  1
  La  La39  1  0.66818412  0.18327044  0.12507780  1
  La  La40  1  -0.00253500  0.48589261  0.87631183  1
  La  La41  1  0.83692039  0.98236960  0.37322094  1
  La  La42  1  -0.00900171  0.14887993  0.37639836  1
  La  La43  1  0.84108847  0.98596642  0.87036833  1
  La  La44  1  0.16399126  0.34568193  0.62857129  1
  La  La45  1  0.66833056  0.84752446  0.62805332  1
  La  La46  1  0.67225792  0.18047985  0.62323278  1
  La  La47  1  0.17140672  0.99200019  0.87843895  1
  La  La48  1  0.32998057  0.82757356  0.87176893  1
  La  La49  1  0.49671719  0.67968312  0.12235353  1
  La  La50  1  1.00273172  0.18214842  0.12937740  1
  La  La51  1  0.83124867  0.01201204  0.62285989  1
  La  La52  1  0.66145489  0.48128865  0.36978090  1
  La  La53  1  0.17253655  0.65591530  0.88142144  1
  La  La54  1  0.16684562  0.67041204  0.13141082  1
  La  La55  1  1.00218411  0.84687737  0.62330273  1
  La  La56  1  0.16999265  0.32526701  0.37636003  1
  La  La57  1  0.66289330  0.82018665  0.37395420  1
  La  La58  1  0.82646254  0.68279734  0.62344630  1
  La  La59  1  0.66016927  0.81887653  0.87755543  1
  La  La60  1  0.66278941  0.14743632  0.36991974  1
  La  La61  1  0.34034149  0.84840007  0.62315293  1
  La  La62  1  0.50483550  0.65157039  0.37260283  1
  La  La63  1  0.67198628  0.51418555  0.12083085  1
  La  La64  1  0.83320238  0.35041004  0.62558154  1
  La  La65  1  0.16556507  0.68273037  0.62507676  1
  La  La66  1  0.32799701  0.82698854  0.37863098  1
  La  La67  1  0.34076423  0.50965462  0.62471296  1
  La  La68  1  0.33146674  0.48746987  0.37446450  1
  La  La69  1  0.67404112  0.84961212  0.12626035  1
  La  La70  1  0.15976509  0.02071439  0.12391812  1
  La  La71  1  0.65804685  0.48487187  0.87449364  1
  In  In72  1  0.83080354  0.83211613  -0.00290915  1
  In  In73  1  0.33722970  0.33342001  0.25334147  1
  In  In74  1  0.50229276  0.16767467  0.74635409  1
  In  In75  1  0.33274462  0.66980378  0.75111744  1
  In  In76  1  0.16668723  0.50509281  0.74844094  1
  In  In77  1  0.66711821  0.33188323  0.74927565  1
  In  In78  1  0.83113630  0.16468472  0.00064476  1
  In  In79  1  0.50156319  0.50064027  0.00253157  1
  In  In80  1  0.50122084  0.83107454  0.49850700  1
  In  In81  1  0.16646530  0.83305030  0.25048177  1
  In  In82  1  0.33189749  0.00238075  0.75079536  1
  In  In83  1  0.66756373  0.00153870  -0.00269348  1
  In  In84  1  0.66708740  0.66632126  0.49911371  1
  In  In85  1  0.66719609  0.66610813  0.24731062  1
  In  In86  1  0.16658932  0.83519456  0.00179223  1
  In  In87  1  0.33706615  0.33122506  0.50002429  1
  In  In88  1  -0.00264924  -0.00155963  0.24756131  1
  In  In89  1  0.00071779  0.66612905  -0.00282421  1
  In  In90  1  0.33242423  -0.00408166  0.24741012  1
  In  In91  1  0.66728144  0.33042718  0.49873433  1
  In  In92  1  -0.00017835  0.66494203  0.74696313  1
  In  In93  1  0.33467678  0.00208990  0.49940802  1
  In  In94  1  0.16315966  0.16977393  0.50065433  1
  In  In95  1  0.83314125  0.16685290  0.74669845  1
  In  In96  1  -0.00106190  0.66540736  0.50223821  1
  In  In97  1  0.83148471  0.50114640  0.49615392  1
  In  In98  1  0.83224153  0.83341618  0.74945942  1
  In  In99  1  0.16688486  0.50113027  0.25489094  1
  In  In100  1  0.16147366  0.16779121  0.25564991  1
  In  In101  1  0.33369292  0.66614869  0.49961053  1
  In  In102  1  0.49970423  0.83486529  -0.00034348  1
  In  In103  1  0.16663344  0.50211614  0.00160523  1
  In  In104  1  -0.00086262  0.00029939  -0.00321221  1
  In  In105  1  0.00007399  0.33171904  0.49938776  1
  In  In106  1  -0.00238304  0.33482559  0.00186814  1
  In  In107  1  0.33163726  0.33198639  0.74821230  1
  Ir  Ir108  1  0.16220552  0.16581956  0.75474688  1
  Ir  Ir109  1  0.67054956  -0.00216935  0.74488012  1
  Ir  Ir110  1  0.50689480  0.16352904  0.25142024  1
  Ir  Ir111  1  0.51104986  0.16296667  0.49811408  1
  Ir  Ir112  1  -0.00574622  0.66587684  0.24842243  1
  Ir  Ir113  1  0.34289879  0.66670993  0.24970613  1
  Ir  Ir114  1  0.50140303  0.82857538  0.24921940  1
  Ir  Ir115  1  0.82984591  0.16720578  0.25499718  1
  Ir  Ir116  1  0.33142660  0.00061944  -0.00038494  1
  Ir  Ir117  1  0.83009224  0.50018182  0.24153900  1
  Ir  Ir118  1  0.83157194  0.16203166  0.49822212  1
  Ir  Ir119  1  0.66680092  0.66477152  -0.00031216  1
  Ir  Ir120  1  0.83082130  0.83795100  0.50146323  1
  Ir  Ir121  1  0.82749912  0.83296987  0.25279064  1
  Ir  Ir122  1  0.50338473  0.50195199  0.74663519  1
  Ir  Ir123  1  0.33545100  0.66981780  0.00151078  1
  Ir  Ir124  1  -0.00341416  0.33253974  0.25195545  1
  Ir  Ir125  1  0.16486280  0.16721768  0.00006147  1
  Ir  Ir126  1  0.66669702  0.33567655  0.00341138  1
  Ir  Ir127  1  0.67165310  -0.00012821  0.50008358  1
  Ir  Ir128  1  0.82801641  0.50077607  -0.00266671  1
  Ir  Ir129  1  0.00194100  -0.00015753  0.74870833  1
  Ir  Ir130  1  0.16574800  0.83239146  0.50431354  1
  Ir  Ir131  1  0.33406121  0.32988835  0.00109131  1
  Ir  Ir132  1  -0.00656669  -0.00255412  0.50113220  1
  Ir  Ir133  1  0.83134502  0.49882080  0.75622779  1
  Ir  Ir134  1  0.66871943  0.66746334  0.75101461  1
  Ir  Ir135  1  -0.00282118  0.33578190  0.75027823  1
  Ir  Ir136  1  0.17254680  0.50104852  0.49968125  1
  Ir  Ir137  1  0.66842381  -0.00180044  0.25544153  1
  Ir  Ir138  1  0.49855410  0.16671579  0.00386591  1
  Ir  Ir139  1  0.50349797  0.83276009  0.75008313  1
  Ir  Ir140  1  0.66776646  0.33390010  0.24676232  1
  Ir  Ir141  1  0.50419795  0.50235794  0.25261687  1
  Ir  Ir142  1  0.50067552  0.50075932  0.49876518  1
  Ir  Ir143  1  0.16660597  0.83679619  0.74653097  1
  O  O144  1  0.32178330  0.33451058  0.12289393  1
  O  O145  1  0.30025408  0.33039885  0.62178213  1
  O  O146  1  0.30683260  0.66039898  0.12589763  1
  O  O147  1  0.30172470  0.64906930  0.62590152  1
  O  O148  1  0.29976891  0.99811353  0.11769776  1
  O  O149  1  0.31597010  0.98688908  0.62588325  1
  O  O150  1  0.64547165  0.32388859  0.12607832  1
  O  O151  1  0.63280220  0.32364142  0.62176753  1
  O  O152  1  0.63440821  0.65271296  0.11971846  1
  O  O153  1  0.64865088  0.66439234  0.63094646  1
  O  O154  1  0.64810855  0.98497524  0.13524360  1
  O  O155  1  0.64603500  0.98366161  0.62208178  1
  O  O156  1  0.97707416  0.32426774  0.13186994  1
  O  O157  1  0.96844869  0.33358644  0.63139110  1
  O  O158  1  0.97145121  0.66326213  0.12875589  1
  O  O159  1  0.96023283  0.66502693  0.62451759  1
  O  O160  1  0.97781726  0.99842971  0.12261099  1
  O  O161  1  0.96650121  0.98949344  0.62548401  1
  O  O162  1  0.17948354  0.16136412  0.12020215  1
  O  O163  1  0.17807045  0.16746257  0.63535615  1
  O  O164  1  0.18403343  0.50435219  0.12933413  1
  O  O165  1  0.20460510  0.48829926  0.61782994  1
  O  O166  1  0.18345533  0.80653217  0.12642580  1
  O  O167  1  0.20043457  0.82529664  0.62641013  1
  O  O168  1  0.53147463  0.16701813  0.12993461  1
  O  O169  1  0.53886799  0.16006970  0.61576828  1
  O  O170  1  0.53422009  0.50054176  0.13203188  1
  O  O171  1  0.52580436  0.49148952  0.62111038  1
  O  O172  1  0.53693530  0.82148800  0.12958074  1
  O  O173  1  0.53474427  0.83022769  0.62999545  1
  O  O174  1  0.86390348  0.16462800  0.13619892  1
  O  O175  1  0.85681754  0.14805123  0.61702439  1
  O  O176  1  0.85434553  0.49915055  0.11808994  1
  O  O177  1  0.84838334  0.48843123  0.63613157  1
  O  O178  1  0.84499375  0.82504810  0.13205637  1
  O  O179  1  0.86141716  0.83054778  0.62027910  1
  O  O180  1  0.12392140  0.18079574  0.37793605  1
  O  O181  1  0.14523759  0.16536747  0.87751833  1
  O  O182  1  0.14521551  0.50967254  0.38271234  1
  O  O183  1  0.13275298  0.51601152  0.87537427  1
  O  O184  1  0.14583514  0.83286229  0.38311664  1
  O  O185  1  0.14989713  0.85203717  0.86603014  1
  O  O186  1  0.48689423  0.16178899  0.37509626  1
  O  O187  1  0.48532014  0.16821688  0.88262889  1
  O  O188  1  0.46976246  0.51217435  0.37583462  1
  O  O189  1  0.48892051  0.50106107  0.86904696  1
  O  O190  1  0.46726868  0.83156770  0.36751241  1
  O  O191  1  0.47078265  0.83327556  0.86992337  1
  O  O192  1  0.79788261  0.17096575  0.37721353  1
  O  O193  1  0.81029303  0.18470282  0.87142391  1
  O  O194  1  0.79914251  0.50151747  0.36211243  1
  O  O195  1  0.79544318  0.50263852  0.87816171  1
  O  O196  1  0.79792338  0.84403890  0.37890698  1
  O  O197  1  0.79501373  0.84553041  0.87146016  1
  O  O198  1  0.01429077  0.00475732  0.37901644  1
  O  O199  1  0.03479847  0.00196132  0.86660433  1
  O  O200  1  0.02698179  0.33432637  0.37070051  1
  O  O201  1  0.01526359  0.34383382  0.87005453  1
  O  O202  1  0.01007417  0.66798510  0.37002564  1
  O  O203  1  0.03323006  0.66374393  0.87036718  1
  O  O204  1  0.34737529  -0.00792276  0.37404920  1
  O  O205  1  0.34832340  -0.00140461  0.87970219  1
  O  O206  1  0.36371402  0.35160263  0.37781895  1
  O  O207  1  0.34871008  0.32627910  0.88010048  1
  O  O208  1  0.37089559  0.68136177  0.36964316  1
  O  O209  1  0.35622119  0.68672811  0.88123490  1
  O  O210  1  0.70128879  0.01083999  0.37886974  1
  O  O211  1  0.70305580  0.00464030  0.86449058  1
  O  O212  1  0.68419155  0.34314744  0.36795383  1
  O  O213  1  0.69471928  0.34361644  0.88158063  1
  O  O214  1  0.69021410  0.68307302  0.37263286  1
  O  O215  1  0.69021028  0.68160821  0.87728534  1
  O  O216  1  0.07158660  0.10255454  0.02320364  1
  O  O217  1  0.06212539  0.08868706  0.51224863  1
  O  O218  1  0.06739506  0.43047676  0.00589723  1
  O  O219  1  0.08555780  0.42928180  0.52112582  1
  O  O220  1  0.06957117  0.76609251  0.00626891  1
  O  O221  1  0.07465771  0.76166137  0.53000938  1
  O  O222  1  0.40326243  0.09545862  0.01997757  1
  O  O223  1  0.41819652  0.09781581  0.51342450  1
  O  O224  1  0.40993878  0.41747839  0.00969077  1
  O  O225  1  0.40926297  0.43199249  0.52843575  1
  O  O226  1  0.41198459  0.75266003  0.02558366  1
  O  O227  1  0.40082566  0.76296376  0.52742022  1
  O  O228  1  0.73215594  0.09965751  0.02897584  1
  O  O229  1  0.73462963  0.09766345  0.52346499  1
  O  O230  1  0.72869095  0.43640494  0.01923399  1
  O  O231  1  0.74242320  0.42207828  0.51585742  1
  O  O232  1  0.72826414  0.75817071  0.02578140  1
  O  O233  1  0.73734220  0.77243354  0.52627867  1
  O  O234  1  0.09263670  0.25534946  0.01803762  1
  O  O235  1  0.09832590  0.27024125  0.52865038  1
  O  O236  1  0.10489954  0.60771374  0.02406717  1
  O  O237  1  0.10854702  0.59769559  0.52515354  1
  O  O238  1  0.10744021  0.94129456  0.01586926  1
  O  O239  1  0.08349447  0.91980620  0.52860632  1
  O  O240  1  0.42649559  0.25599689  0.02026995  1
  O  O241  1  0.44520812  0.25913410  0.52255863  1
  O  O242  1  0.42885273  0.59863523  0.02376615  1
  O  O243  1  0.43059784  0.58889612  0.51778996  1
  O  O244  1  0.42167757  0.93028496  0.01615889  1
  O  O245  1  0.42446643  0.91981412  0.51907732  1
  O  O246  1  0.75211115  0.26200018  0.01857458  1
  O  O247  1  0.76902878  0.25654879  0.52828343  1
  O  O248  1  0.76215477  0.59760640  0.02643379  1
  O  O249  1  0.76596181  0.60175392  0.52424851  1
  O  O250  1  0.75353759  0.92119468  0.02400178  1
  O  O251  1  0.76820063  0.93648641  0.52287216  1
  O  O252  1  0.23408908  0.07082974  0.25603475  1
  O  O253  1  0.22766729  0.07092062  0.77214496  1
  O  O254  1  0.24255551  0.41064404  0.28220456  1
  O  O255  1  0.24151532  0.41087651  0.76396624  1
  O  O256  1  0.25336465  0.73466460  0.26935751  1
  O  O257  1  0.23312107  0.74665938  0.77496210  1
  O  O258  1  0.58022314  0.07161415  0.27278076  1
  O  O259  1  0.58196284  0.06540236  0.76190419  1
  O  O260  1  0.57706555  0.41103183  0.27488170  1
  O  O261  1  0.57531345  0.41329779  0.76387809  1
  O  O262  1  0.56654349  0.73635962  0.27382827  1
  O  O263  1  0.57911654  0.74365726  0.77580400  1
  O  O264  1  0.89608624  0.07591057  0.28249111  1
  O  O265  1  0.90685458  0.06726771  0.77010727  1
  O  O266  1  0.90294122  0.40690750  0.26679369  1
  O  O267  1  0.89758703  0.40198476  0.77702361  1
  O  O268  1  0.89303159  0.73350515  0.25609845  1
  O  O269  1  0.90605821  0.74137180  0.76530791  1
  O  O270  1  0.24964581  0.24967858  0.27247786  1
  O  O271  1  0.25221383  0.23477245  0.76523581  1
  O  O272  1  0.27698380  0.57561688  0.27468263  1
  O  O273  1  0.25297897  0.58595550  0.78359859  1
  O  O274  1  0.26866411  0.89345381  0.27197890  1
  O  O275  1  0.26142291  0.90138535  0.76925953  1
  O  O276  1  0.60500622  0.23234606  0.26793758  1
  O  O277  1  0.59957982  0.23488907  0.76188874  1
  O  O278  1  0.59679513  0.56837141  0.27787476  1
  O  O279  1  0.60169376  0.57109364  0.77362790  1
  O  O280  1  0.60070208  0.89616895  0.27537286  1
  O  O281  1  0.60603502  0.89842918  0.77032366  1
  O  O282  1  0.92837889  0.23307585  0.27614778  1
  O  O283  1  0.92434574  0.24945466  0.76825161  1
  O  O284  1  0.92221998  0.57049669  0.26249060  1
  O  O285  1  0.92730916  0.56014037  0.77551759  1
  O  O286  1  0.91665405  0.90563319  0.27195334  1
  O  O287  1  0.92668845  0.91530596  0.76691165  1
  O  O288  1  0.25358100  0.24868799  0.46819977  1
  O  O289  1  0.25865522  0.23824340  0.98923180  1
  O  O290  1  0.26848808  0.56447452  0.47668599  1
  O  O291  1  0.26309643  0.58416501  0.97747801  1
  O  O292  1  0.25897794  0.89764058  0.48514472  1
  O  O293  1  0.26702930  0.90724722  0.97444193  1
  O  O294  1  0.60776732  0.22480427  0.47804831  1
  O  O295  1  0.59709432  0.23710841  0.99325645  1
  O  O296  1  0.59235108  0.56873536  0.46798809  1
  O  O297  1  0.60635511  0.56829260  0.97836444  1
  O  O298  1  0.60942358  0.90118979  0.48014025  1
  O  O299  1  0.59690461  0.90260744  0.97592465  1
  O  O300  1  0.92746260  0.22549273  0.47668059  1
  O  O301  1  0.91933283  0.24631816  0.98613364  1
  O  O302  1  0.92718024  0.57110919  0.48412901  1
  O  O303  1  0.92693127  0.56046025  0.97563048  1
  O  O304  1  0.92198030  0.90723449  0.47880418  1
  O  O305  1  0.92181943  0.90834101  0.96916357  1
  O  O306  1  0.24152106  0.07949692  0.48860336  1
  O  O307  1  0.23107391  0.06661353  0.98294957  1
  O  O308  1  0.23744338  0.41027367  0.47081643  1
  O  O309  1  0.24849728  0.40669117  0.98742555  1
  O  O310  1  0.23820375  0.74446977  0.48429537  1
  O  O311  1  0.24680662  0.74190272  0.97395515  1
  O  O312  1  0.57952717  0.06887979  0.47415378  1
  O  O313  1  0.56878567  0.07692357  0.98959735  1
  O  O314  1  0.57179813  0.41273257  0.48037724  1
  O  O315  1  0.58086546  0.40854302  0.98244207  1
  O  O316  1  0.56974939  0.73584885  0.47069008  1
  O  O317  1  0.57667736  0.73488235  0.98362248  1
  O  O318  1  0.89661064  0.06493760  0.47341898  1
  O  O319  1  0.89806609  0.06758143  0.96841730  1
  O  O320  1  0.90465123  0.40240842  0.49383743  1
  O  O321  1  0.89287444  0.40766732  0.97164747  1
  O  O322  1  0.89744497  0.74686016  0.48605037  1
  O  O323  1  0.89674537  0.73141493  0.99666381  1
  O  O324  1  0.08130808  0.26108705  0.22835479  1
  O  O325  1  0.09437127  0.26863935  0.73036792  1
  O  O326  1  0.09096239  0.60029133  0.23311855  1
  O  O327  1  0.09850885  0.60007476  0.71242749  1
  O  O328  1  0.10057755  0.93359057  0.22689529  1
  O  O329  1  0.08738307  0.92220890  0.71896147  1
  O  O330  1  0.43196236  0.25062400  0.24095238  1
  O  O331  1  0.43319013  0.26809325  0.72279718  1
  O  O332  1  0.44249003  0.60134134  0.23082102  1
  O  O333  1  0.42487912  0.58605703  0.73060755  1
  O  O334  1  0.43297686  0.91646731  0.22734423  1
  O  O335  1  0.42824728  0.91668393  0.73106474  1
  O  O336  1  0.75610937  0.25654113  0.22410645  1
  O  O337  1  0.76316364  0.26239758  0.71349559  1
  O  O338  1  0.76200243  0.59197690  0.21504669  1
  O  O339  1  0.76735745  0.59940376  0.72909325  1
  O  O340  1  0.76168466  0.92957798  0.24154056  1
  O  O341  1  0.76279119  0.93204887  0.71973528  1
  O  O342  1  0.06023495  0.10205522  0.22988733  1
  O  O343  1  0.06968778  0.09168526  0.73374625  1
  O  O344  1  0.07056407  0.41898728  0.23638160  1
  O  O345  1  0.07149441  0.42242400  0.73159229  1
  O  O346  1  0.06935076  0.75200453  0.23540327  1
  O  O347  1  0.07680926  0.76752380  0.71750558  1
  O  O348  1  0.41720091  0.09071686  0.23740449  1
  O  O349  1  0.40947970  0.09287674  0.73684335  1
  O  O350  1  0.41330974  0.43499337  0.23673937  1
  O  O351  1  0.41193821  0.43174915  0.72132237  1
  O  O352  1  0.41612507  0.75466682  0.21753205  1
  O  O353  1  0.40610332  0.76754678  0.72692115  1
  O  O354  1  0.73131356  0.10039219  0.23308835  1
  O  O355  1  0.73677626  0.08972093  0.71544993  1
  O  O356  1  0.72999538  0.43497671  0.22461969  1
  O  O357  1  0.74324941  0.42736375  0.73873797  1
  O  O358  1  0.73242851  0.76851788  0.22805584  1
  O  O359  1  0.73503673  0.76010649  0.72259713  1
