# generated using pymatgen
data_BaLaInIrO6
_symmetry_space_group_name_H-M   'P 1'
_cell_length_a   17.54884875
_cell_length_b   17.59291272
_cell_length_c   16.51455396
_cell_angle_alpha   90.02178380
_cell_angle_beta   89.97967489
_cell_angle_gamma   90.00521383
_symmetry_Int_Tables_number   1
_chemical_formula_structural   BaLaInIrO6
_chemical_formula_sum   'Ba36 La36 In36 Ir36 O216'
_cell_volume   5098.62612365
_cell_formula_units_Z   36
loop_
 _symmetry_equiv_pos_site_id
 _symmetry_equiv_pos_as_xyz
  1  'x, y, z'
loop_
 _atom_site_type_symbol
 _atom_site_label
 _atom_site_symmetry_multiplicity
 _atom_site_fract_x
 _atom_site_fract_y
 _atom_site_fract_z
 _atom_site_occupancy
  Ba  Ba0  1  0.66269273  0.82581794  0.37633829  1
  Ba  Ba1  1  0.99604928  0.84125928  0.12165390  1
  Ba  Ba2  1  0.50212193  0.34432290  0.62401734  1
  Ba  Ba3  1  0.33485965  0.17727224  0.62445108  1
  Ba  Ba4  1  0.49743293  0.67365921  0.62464390  1
  Ba  Ba5  1  0.49957288  0.00808705  0.12889889  1
  Ba  Ba6  1  0.49807365  0.99568209  0.37661765  1
  Ba  Ba7  1  0.16828620  0.32627789  0.37421140  1
  Ba  Ba8  1  0.66614018  0.83967220  0.12474604  1
  Ba  Ba9  1  0.50590823  0.99268325  0.87472735  1
  Ba  Ba10  1  0.33369426  0.83819706  0.62659108  1
  Ba  Ba11  1  -0.00193139  0.48743019  0.87199556  1
  Ba  Ba12  1  0.16779933  0.33738694  0.12814821  1
  Ba  Ba13  1  0.82972698  0.33807252  0.12503501  1
  Ba  Ba14  1  0.16529343  0.00727458  0.12786992  1
  Ba  Ba15  1  0.83705801  0.31979859  0.87166997  1
  Ba  Ba16  1  0.33470368  0.50621119  0.62188634  1
  Ba  Ba17  1  0.16642792  0.67658423  0.62382072  1
  Ba  Ba18  1  -0.00467404  0.48795763  0.37948251  1
  Ba  Ba19  1  0.33933279  0.17863146  0.12565793  1
  Ba  Ba20  1  0.50035317  0.34425774  0.12681373  1
  Ba  Ba21  1  0.50267696  0.67405024  0.12261316  1
  Ba  Ba22  1  0.50198324  0.32722271  0.37913903  1
  Ba  Ba23  1  0.66422496  0.17219128  0.12405610  1
  Ba  Ba24  1  0.66352239  0.16225218  0.37685298  1
  Ba  Ba25  1  0.00053811  0.15445350  0.37708973  1
  Ba  Ba26  1  0.83155562  0.01458188  0.63005451  1
  Ba  Ba27  1  0.50524768  0.65311096  0.87289907  1
  Ba  Ba28  1  0.82811362  0.34588732  0.62940736  1
  Ba  Ba29  1  0.50013757  0.66245407  0.37283483  1
  Ba  Ba30  1  0.17031267  0.65801984  0.37355766  1
  Ba  Ba31  1  0.32963475  0.16041104  0.37761448  1
  Ba  Ba32  1  0.66646954  0.50859205  0.12470108  1
  Ba  Ba33  1  0.66752068  0.49623248  0.37428737  1
  Ba  Ba34  1  0.33463133  0.82874059  0.37506089  1
  Ba  Ba35  1  0.83573556  0.98452638  0.87032458  1
  La  La36  1  1.00407120  0.84965346  0.63013503  1
  La  La37  1  0.34038984  0.51051663  0.12839494  1
  La  La38  1  0.17003729  0.64798064  0.87206649  1
  La  La39  1  0.83574619  0.98615271  0.37921404  1
  La  La40  1  0.82369031  0.67598584  0.12748908  1
  La  La41  1  0.34359500  0.84753064  0.12618612  1
  La  La42  1  0.50059667  0.01170987  0.62172410  1
  La  La43  1  0.82325199  0.01537148  0.12384172  1
  La  La44  1  0.16281917  0.01176282  0.62354272  1
  La  La45  1  0.17526295  0.98588357  0.37723511  1
  La  La46  1  0.16373894  0.68224416  0.12327394  1
  La  La47  1  0.16810991  0.98480840  0.87588098  1
  La  La48  1  0.83750543  0.65407033  0.37256105  1
  La  La49  1  0.83658943  0.64939042  0.87325639  1
  La  La50  1  -0.00639165  0.81490008  0.87124858  1
  La  La51  1  0.82929283  0.68350343  0.62364054  1
  La  La52  1  0.00064521  0.82946090  0.37678461  1
  La  La53  1  1.00141751  0.18313638  0.63002580  1
  La  La54  1  0.67292829  0.18183789  0.62658022  1
  La  La55  1  0.66551526  0.81347064  0.87448567  1
  La  La56  1  0.17001373  0.31653229  0.87611507  1
  La  La57  1  0.66433781  0.48514298  0.87603758  1
  La  La58  1  0.66687246  0.52132780  0.62646884  1
  La  La59  1  0.33293488  0.14907998  0.87550354  1
  La  La60  1  1.00436397  0.51963866  0.12114020  1
  La  La61  1  0.66912972  0.84924265  0.62989158  1
  La  La62  1  0.66659094  0.15437240  0.87268679  1
  La  La63  1  0.33207885  0.48617806  0.87314567  1
  La  La64  1  0.99803403  0.17390480  0.12814003  1
  La  La65  1  1.00458942  0.51948069  0.62839052  1
  La  La66  1  0.50332986  0.32094566  0.87280446  1
  La  La67  1  0.32953229  0.48720306  0.37299267  1
  La  La68  1  0.16017147  0.34986934  0.62431193  1
  La  La69  1  -0.00534147  0.15145359  0.87589803  1
  La  La70  1  0.84046106  0.31011575  0.37573280  1
  La  La71  1  0.33500960  0.81376253  0.87569542  1
  In  In72  1  0.83625044  0.49702965  0.25101310  1
  In  In73  1  0.16637250  0.83235453  0.24615019  1
  In  In74  1  0.50101936  0.83118165  -0.00361937  1
  In  In75  1  0.50016959  0.83488365  0.74953524  1
  In  In76  1  0.33350417  0.66197193  0.74963737  1
  In  In77  1  0.83099232  0.83414181  0.25180822  1
  In  In78  1  0.50164149  0.83464029  0.24998183  1
  In  In79  1  0.33310418  -0.00200996  0.50705745  1
  In  In80  1  -0.00167050  0.33498624  0.24758712  1
  In  In81  1  0.49905876  0.16650456  -0.00170162  1
  In  In82  1  0.33348272  0.33292260  0.74945310  1
  In  In83  1  0.83449282  0.49811579  -0.00057130  1
  In  In84  1  -0.00183896  0.67264593  0.50203215  1
  In  In85  1  -0.00397964  -0.00110634  0.24994797  1
  In  In86  1  0.50013449  0.16664004  0.74782869  1
  In  In87  1  0.16693255  0.83277303  -0.00382574  1
  In  In88  1  0.66658195  0.33167990  -0.00194791  1
  In  In89  1  0.67042240  0.33862813  0.50150594  1
  In  In90  1  0.16444764  0.16559945  0.24998648  1
  In  In91  1  -0.00014451  0.66954977  0.24908447  1
  In  In92  1  0.50025651  0.50324524  0.49670998  1
  In  In93  1  0.83351453  0.50109788  0.50375767  1
  In  In94  1  0.00181403  0.33428161  -0.00094764  1
  In  In95  1  0.16284469  0.16657736  0.50289269  1
  In  In96  1  0.33152784  0.66639401  0.24756943  1
  In  In97  1  0.16543761  0.50234795  0.49972747  1
  In  In98  1  0.66862408  0.33489912  0.25123669  1
  In  In99  1  0.16557851  0.16615441  -0.00060945  1
  In  In100  1  0.16453550  0.83179723  0.75192195  1
  In  In101  1  0.67021188  -0.00480213  -0.00344138  1
  In  In102  1  0.16754784  0.50095767  0.24535291  1
  In  In103  1  0.66925150  0.00247303  0.50133751  1
  In  In104  1  -0.00247536  -0.00160314  0.00093448  1
  In  In105  1  0.16649496  0.16465209  0.75149661  1
  In  In106  1  0.33214647  0.00205272  0.25219298  1
  In  In107  1  0.16914436  0.49668318  0.00116603  1
  Ir  Ir108  1  0.49481937  0.50113453  -0.00363193  1
  Ir  Ir109  1  0.83476370  0.16231337  -0.00401483  1
  Ir  Ir110  1  0.67020078  0.00434310  0.25040906  1
  Ir  Ir111  1  -0.00137961  -0.00318287  0.50544574  1
  Ir  Ir112  1  0.66991687  -0.00033429  0.75002347  1
  Ir  Ir113  1  0.33229229  0.33330524  0.49940790  1
  Ir  Ir114  1  0.66837408  0.66762397  0.24969562  1
  Ir  Ir115  1  0.83346867  0.50233183  0.74725311  1
  Ir  Ir116  1  0.49824643  0.50329205  0.24658308  1
  Ir  Ir117  1  0.83200556  0.15983717  0.25443995  1
  Ir  Ir118  1  0.83640799  0.16404790  0.50502997  1
  Ir  Ir119  1  0.16269951  0.83582345  0.50481162  1
  Ir  Ir120  1  0.33246853  -0.00301343  -0.00878253  1
  Ir  Ir121  1  0.83492961  0.16622410  0.75073178  1
  Ir  Ir122  1  0.66971797  0.67370571  0.50425319  1
  Ir  Ir123  1  -0.00188418  0.66833817  -0.00483981  1
  Ir  Ir124  1  0.33425104  0.66974624  0.49893757  1
  Ir  Ir125  1  0.32917714  0.66246643  -0.00406394  1
  Ir  Ir126  1  0.83367490  0.82732592  -0.00650108  1
  Ir  Ir127  1  0.83430975  0.83077062  0.74994645  1
  Ir  Ir128  1  0.50355767  0.49907220  0.75396760  1
  Ir  Ir129  1  -0.00038702  0.00140479  0.74723991  1
  Ir  Ir130  1  0.33811151  0.33666238  -0.00333471  1
  Ir  Ir131  1  0.67239151  0.66550450  -0.00323985  1
  Ir  Ir132  1  0.50194543  0.16638552  0.50186718  1
  Ir  Ir133  1  0.66849114  0.33467452  0.75136863  1
  Ir  Ir134  1  0.33305213  -0.00291268  0.75277003  1
  Ir  Ir135  1  0.50055759  0.16850063  0.25392418  1
  Ir  Ir136  1  0.33803217  0.33408385  0.24993825  1
  Ir  Ir137  1  0.16180018  0.49740405  0.75136591  1
  Ir  Ir138  1  0.50544871  0.83171915  0.50426536  1
  Ir  Ir139  1  -0.00492670  0.66659489  0.75248751  1
  Ir  Ir140  1  0.67321244  0.66579399  0.74957510  1
  Ir  Ir141  1  0.83333121  0.83455565  0.50564767  1
  Ir  Ir142  1  -0.00503622  0.33066707  0.50726580  1
  Ir  Ir143  1  0.00100905  0.33538352  0.74532706  1
  O  O144  1  0.31819307  0.33331467  0.12232019  1
  O  O145  1  0.30186257  0.33372534  0.62067961  1
  O  O146  1  0.29908139  0.64945280  0.11295525  1
  O  O147  1  0.31683140  0.66653301  0.61957795  1
  O  O148  1  0.31306523  0.98759081  0.11163264  1
  O  O149  1  0.30031223  0.99384658  0.63518012  1
  O  O150  1  0.65090701  0.32653410  0.12347929  1
  O  O151  1  0.65130319  0.31865608  0.63151242  1
  O  O152  1  0.65055075  0.66550321  0.12248445  1
  O  O153  1  0.64561985  0.66180048  0.62766631  1
  O  O154  1  0.65404079  1.00174062  0.12902189  1
  O  O155  1  0.64001076  0.98969107  0.63116467  1
  O  O156  1  0.97726552  0.30805376  0.12194988  1
  O  O157  1  0.97350363  0.32272660  0.62702890  1
  O  O158  1  0.96214856  0.66217655  0.11282287  1
  O  O159  1  0.96489875  0.66087246  0.63330134  1
  O  O160  1  0.95663208  0.99298672  0.12356198  1
  O  O161  1  0.97458741  0.98438714  0.62678433  1
  O  O162  1  0.18998928  0.16410522  0.12261035  1
  O  O163  1  0.18601050  0.15074131  0.62837339  1
  O  O164  1  0.20723924  0.49537487  0.12132538  1
  O  O165  1  0.18269072  0.48816016  0.63024602  1
  O  O166  1  0.20565452  0.82378918  0.11606620  1
  O  O167  1  0.18241471  0.83450357  0.62507083  1
  O  O168  1  0.51234273  0.16839920  0.13120981  1
  O  O169  1  0.53105685  0.15711827  0.62247108  1
  O  O170  1  0.51792879  0.50060150  0.12021110  1
  O  O171  1  0.53074896  0.50049846  0.63384582  1
  O  O172  1  0.51354616  0.83581484  0.12091128  1
  O  O173  1  0.53241981  0.82846083  0.62485582  1
  O  O174  1  0.86132013  0.15133606  0.12555288  1
  O  O175  1  0.86689467  0.16528207  0.62796582  1
  O  O176  1  0.86798310  0.50201279  0.12368196  1
  O  O177  1  0.86902168  0.50193993  0.63112105  1
  O  O178  1  0.84957398  0.81380668  0.11521234  1
  O  O179  1  0.86756077  0.82173293  0.62817289  1
  O  O180  1  0.14919576  0.17024783  0.37905945  1
  O  O181  1  0.13199939  0.17359470  0.87200708  1
  O  O182  1  0.14781139  0.49711246  0.37435220  1
  O  O183  1  0.14525940  0.50983967  0.87131391  1
  O  O184  1  0.13608219  0.84330962  0.38483950  1
  O  O185  1  0.12898511  0.84664231  0.87242653  1
  O  O186  1  0.47942785  0.16719029  0.37986095  1
  O  O187  1  0.46764258  0.17416065  0.87225266  1
  O  O188  1  0.46888702  0.50598757  0.36650604  1
  O  O189  1  0.46817374  0.50123913  0.87564306  1
  O  O190  1  0.48844864  0.83538622  0.38349805  1
  O  O191  1  0.46932597  0.83547139  0.87396837  1
  O  O192  1  0.81111718  0.17147966  0.37929158  1
  O  O193  1  0.80293792  0.16576102  0.87364220  1
  O  O194  1  0.81450218  0.51961710  0.37851535  1
  O  O195  1  0.80161929  0.51292934  0.86612055  1
  O  O196  1  0.81005544  0.84712916  0.38681921  1
  O  O197  1  0.80144894  0.83198770  0.87075087  1
  O  O198  1  0.03098349  -0.00337968  0.38832611  1
  O  O199  1  0.02934018  0.01296984  0.86639653  1
  O  O200  1  0.01491486  0.32945194  0.38986208  1
  O  O201  1  0.03254489  0.33593808  0.86234085  1
  O  O202  1  0.02160481  0.69253700  0.37740091  1
  O  O203  1  0.03296779  0.67612674  0.87326856  1
  O  O204  1  0.34656025  -0.00112531  0.38229490  1
  O  O205  1  0.35886056  0.01013451  0.87126747  1
  O  O206  1  0.35588466  0.34763703  0.37330518  1
  O  O207  1  0.36610443  0.34910943  0.87884608  1
  O  O208  1  0.34820635  0.67387690  0.38045700  1
  O  O209  1  0.35523199  0.67371782  0.87934979  1
  O  O210  1  0.69803272  0.00404806  0.37300601  1
  O  O211  1  0.69048314  0.01501479  0.86742494  1
  O  O212  1  0.70306066  0.33354801  0.37799131  1
  O  O213  1  0.68874376  0.34783605  0.86845857  1
  O  O214  1  0.69984492  0.67210019  0.37845206  1
  O  O215  1  0.70218182  0.67200730  0.87280399  1
  O  O216  1  0.05934903  0.10441942  0.01776967  1
  O  O217  1  0.05994213  0.09086415  0.53367438  1
  O  O218  1  0.06653737  0.43834786  0.02544807  1
  O  O219  1  0.06342460  0.42250286  0.53101621  1
  O  O220  1  0.06932639  0.75509314  0.01521934  1
  O  O221  1  0.06514057  0.77429864  0.52652574  1
  O  O222  1  0.39850179  0.09128375  0.00665970  1
  O  O223  1  0.41706004  0.08912327  0.52682180  1
  O  O224  1  0.39471738  0.43991289  0.01510993  1
  O  O225  1  0.40527266  0.42142843  0.51197610  1
  O  O226  1  0.39019934  0.76055223  0.01775241  1
  O  O227  1  0.40911071  0.76301674  0.51716479  1
  O  O228  1  0.74829247  0.08973505  0.01633130  1
  O  O229  1  0.74066627  0.10033646  0.52832341  1
  O  O230  1  0.73229603  0.43350180  0.00280212  1
  O  O231  1  0.73400762  0.43960376  0.53349618  1
  O  O232  1  0.73752124  0.76146541  0.01230787  1
  O  O233  1  0.73830032  0.76882556  0.53374857  1
  O  O234  1  0.10717421  0.27387946  -0.00059224  1
  O  O235  1  0.08882098  0.26402599  0.53504417  1
  O  O236  1  0.09212394  0.60234809  0.02098959  1
  O  O237  1  0.08528932  0.58978192  0.52603386  1
  O  O238  1  0.09797398  0.93284387  0.01036940  1
  O  O239  1  0.09534594  0.93130436  0.53112143  1
  O  O240  1  0.43129651  0.27238928  0.00766785  1
  O  O241  1  0.42617159  0.25785001  0.51881773  1
  O  O242  1  0.42082927  0.59251078  0.02043395  1
  O  O243  1  0.42283768  0.59699298  0.51309555  1
  O  O244  1  0.41962713  0.92681865  0.01351802  1
  O  O245  1  0.43757834  0.92480765  0.52894301  1
  O  O246  1  0.76354360  0.24956668  0.01070265  1
  O  O247  1  0.76405004  0.25279385  0.52203473  1
  O  O248  1  0.76949667  0.60519601  0.01553531  1
  O  O249  1  0.76104237  0.60798317  0.52744461  1
  O  O250  1  0.77171192  0.92286721  0.01975277  1
  O  O251  1  0.76393692  0.92420993  0.52534096  1
  O  O252  1  0.23295738  0.06834728  0.27543294  1
  O  O253  1  0.23692778  0.06163174  0.77674779  1
  O  O254  1  0.25180089  0.40479594  0.26574781  1
  O  O255  1  0.23009206  0.40402802  0.77312941  1
  O  O256  1  0.23078704  0.73045969  0.25288466  1
  O  O257  1  0.23325569  0.73352795  0.77658377  1
  O  O258  1  0.57412185  0.07609992  0.26855418  1
  O  O259  1  0.58213840  0.07409924  0.76615714  1
  O  O260  1  0.56933986  0.41657550  0.26536391  1
  O  O261  1  0.57425284  0.40441232  0.77877562  1
  O  O262  1  0.57969171  0.73956726  0.26163466  1
  O  O263  1  0.58749269  0.74075656  0.77346776  1
  O  O264  1  0.89227051  0.06429928  0.27645800  1
  O  O265  1  0.90953370  0.07770413  0.77424869  1
  O  O266  1  0.89859221  0.39354232  0.28017271  1
  O  O267  1  0.90431552  0.40718231  0.76696104  1
  O  O268  1  0.89853606  0.73773945  0.27227407  1
  O  O269  1  0.90082044  0.73624873  0.77846860  1
  O  O270  1  0.26724706  0.24665126  0.26334974  1
  O  O271  1  0.26250304  0.23694224  0.78282371  1
  O  O272  1  0.27142717  0.56288854  0.27159817  1
  O  O273  1  0.25698770  0.56561927  0.77425464  1
  O  O274  1  0.25351564  0.90974288  0.26989435  1
  O  O275  1  0.26710995  0.90329621  0.78027929  1
  O  O276  1  0.58739958  0.24127162  0.26704225  1
  O  O277  1  0.60243109  0.24020863  0.77484718  1
  O  O278  1  0.59105821  0.57526751  0.26664288  1
  O  O279  1  0.60727775  0.56629400  0.77080192  1
  O  O280  1  0.59773188  0.91811837  0.26493183  1
  O  O281  1  0.60737714  0.90254101  0.77095328  1
  O  O282  1  0.92003432  0.22939840  0.26810104  1
  O  O283  1  0.93738125  0.23272924  0.76861122  1
  O  O284  1  0.92825006  0.57603290  0.26976846  1
  O  O285  1  0.92392806  0.57466411  0.77401866  1
  O  O286  1  0.92392498  0.90549058  0.28598275  1
  O  O287  1  0.93464445  0.89766432  0.76940351  1
  O  O288  1  0.25965900  0.24698918  0.48871333  1
  O  O289  1  0.27437403  0.24085816  0.96945012  1
  O  O290  1  0.26630275  0.57628199  0.48121860  1
  O  O291  1  0.26381092  0.57129223  0.96477866  1
  O  O292  1  0.25119258  0.90392306  0.48464152  1
  O  O293  1  0.26584564  0.90489252  0.96269706  1
  O  O294  1  0.59034095  0.23896344  0.49308793  1
  O  O295  1  0.59236379  0.24211720  0.96105665  1
  O  O296  1  0.60117573  0.58199561  0.49137281  1
  O  O297  1  0.60002243  0.56722835  0.97457242  1
  O  O298  1  0.59587176  0.90193852  0.49594324  1
  O  O299  1  0.60279881  0.89842922  0.96995537  1
  O  O300  1  0.92888250  0.23399880  0.48693275  1
  O  O301  1  0.92928942  0.22746686  0.97465838  1
  O  O302  1  0.92286867  0.58041113  0.48532083  1
  O  O303  1  0.92869139  0.58131343  0.97225420  1
  O  O304  1  0.93267035  0.89834761  0.48127937  1
  O  O305  1  0.92808207  0.89224845  0.96986455  1
  O  O306  1  0.22659383  0.06094984  0.49134198  1
  O  O307  1  0.23926045  0.06658798  0.96607275  1
  O  O308  1  0.24628802  0.40821064  0.48441065  1
  O  O309  1  0.24360232  0.39973302  0.96710255  1
  O  O310  1  0.23336621  0.74332781  0.48473397  1
  O  O311  1  0.23559887  0.72845383  0.96835321  1
  O  O312  1  0.57095820  0.07492842  0.49063229  1
  O  O313  1  0.58296654  0.07992871  0.98110144  1
  O  O314  1  0.57626893  0.41288869  0.48584067  1
  O  O315  1  0.56218626  0.40979647  0.97086262  1
  O  O316  1  0.57591624  0.73995184  0.48480659  1
  O  O317  1  0.58207484  0.73558895  0.97755071  1
  O  O318  1  0.90177749  0.06161426  0.48057023  1
  O  O319  1  0.90252073  0.07333153  0.97594574  1
  O  O320  1  0.90000071  0.39422123  0.48231988  1
  O  O321  1  0.90621124  0.40417819  0.97826132  1
  O  O322  1  0.89303816  0.74077120  0.48228273  1
  O  O323  1  0.90346523  0.73529905  0.96360522  1
  O  O324  1  0.08754034  0.25747932  0.23599440  1
  O  O325  1  0.09576662  0.27005537  0.72236112  1
  O  O326  1  0.09536657  0.59713646  0.21153463  1
  O  O327  1  0.08731471  0.59227636  0.72802121  1
  O  O328  1  0.08827591  0.92408909  0.23841198  1
  O  O329  1  0.09324788  0.93510955  0.72586166  1
  O  O330  1  0.43045939  0.26257495  0.23898836  1
  O  O331  1  0.43154131  0.26504964  0.73612677  1
  O  O332  1  0.42686037  0.58908688  0.22545024  1
  O  O333  1  0.43201637  0.58659628  0.73692968  1
  O  O334  1  0.41955047  0.92197666  0.23173282  1
  O  O335  1  0.43069004  0.93695741  0.72477358  1
  O  O336  1  0.76524642  0.25065967  0.24002965  1
  O  O337  1  0.75774224  0.25441345  0.72807349  1
  O  O338  1  0.76335323  0.60366535  0.23433514  1
  O  O339  1  0.76669662  0.59685923  0.71997425  1
  O  O340  1  0.76382558  0.93656778  0.23158303  1
  O  O341  1  0.75951269  0.91969550  0.72424883  1
  O  O342  1  0.06029398  0.09725898  0.22538413  1
  O  O343  1  0.06274762  0.09496243  0.72344754  1
  O  O344  1  0.06459984  0.43578143  0.22151481  1
  O  O345  1  0.06649866  0.43005640  0.71883942  1
  O  O346  1  0.07497515  0.75755077  0.21765933  1
  O  O347  1  0.05803322  0.76329815  0.73173700  1
  O  O348  1  0.41253337  0.09657148  0.24067301  1
  O  O349  1  0.40238240  0.08797627  0.73204753  1
  O  O350  1  0.40395596  0.43484880  0.22958431  1
  O  O351  1  0.40945301  0.43293186  0.73913299  1
  O  O352  1  0.40244694  0.76154517  0.22642347  1
  O  O353  1  0.40430482  0.76011803  0.74220445  1
  O  O354  1  0.74176586  0.09102771  0.22953666  1
  O  O355  1  0.73477575  0.10148077  0.72942502  1
  O  O356  1  0.74016419  0.42882529  0.23166651  1
  O  O357  1  0.73326193  0.43767359  0.72768612  1
  O  O358  1  0.73831801  0.75641481  0.23296659  1
  O  O359  1  0.74016445  0.76192991  0.72302792  1
