# generated using pymatgen
data_BaLaInIrO6
_symmetry_space_group_name_H-M   'P 1'
_cell_length_a   17.52602882
_cell_length_b   17.56764504
_cell_length_c   16.47863080
_cell_angle_alpha   89.95787210
_cell_angle_beta   89.99037472
_cell_angle_gamma   90.01213214
_symmetry_Int_Tables_number   1
_chemical_formula_structural   BaLaInIrO6
_chemical_formula_sum   'Ba36 La36 In36 Ir36 O216'
_cell_volume   5073.62143777
_cell_formula_units_Z   36
loop_
 _symmetry_equiv_pos_site_id
 _symmetry_equiv_pos_as_xyz
  1  'x, y, z'
loop_
 _atom_site_type_symbol
 _atom_site_label
 _atom_site_symmetry_multiplicity
 _atom_site_fract_x
 _atom_site_fract_y
 _atom_site_fract_z
 _atom_site_occupancy
  Ba  Ba0  1  0.16546929  0.33890714  0.62479606  1
  Ba  Ba1  1  0.83734512  0.99590352  0.87593432  1
  Ba  Ba2  1  0.16314500  0.99169740  0.87630501  1
  Ba  Ba3  1  0.83615159  0.32623950  0.37576161  1
  Ba  Ba4  1  0.83347411  0.99500565  0.37452523  1
  Ba  Ba5  1  0.16436354  0.67174626  0.12506259  1
  Ba  Ba6  1  0.66907977  0.18083977  0.62510532  1
  Ba  Ba7  1  0.66472252  0.82188061  0.87470331  1
  Ba  Ba8  1  -0.00125882  0.16335847  0.36968689  1
  Ba  Ba9  1  0.99840094  0.50484566  0.62240107  1
  Ba  Ba10  1  0.33383836  0.50784603  0.12632111  1
  Ba  Ba11  1  0.50293276  0.32466256  0.37408627  1
  Ba  Ba12  1  0.50220738  0.32278803  0.87004151  1
  Ba  Ba13  1  -0.00194299  0.49095847  0.37292528  1
  Ba  Ba14  1  0.99734963  0.17238100  0.12221694  1
  Ba  Ba15  1  0.33737788  0.50904541  0.62104616  1
  Ba  Ba16  1  0.99716409  0.84003451  0.62781659  1
  Ba  Ba17  1  0.99920030  0.50369438  0.12929435  1
  Ba  Ba18  1  0.49729452  0.68330547  0.62786858  1
  Ba  Ba19  1  0.67286955  0.84716031  0.62533440  1
  Ba  Ba20  1  0.99814070  0.83656794  0.12653723  1
  Ba  Ba21  1  0.33845619  0.82651346  0.37517221  1
  Ba  Ba22  1  0.82829411  0.65954013  0.37529710  1
  Ba  Ba23  1  0.16262916  0.32807073  0.37770144  1
  Ba  Ba24  1  0.16148493  0.33768966  0.12746762  1
  Ba  Ba25  1  0.83473171  0.65993718  0.87592790  1
  Ba  Ba26  1  0.67266310  0.84732412  0.12593853  1
  Ba  Ba27  1  0.33505769  0.17623663  0.12419975  1
  Ba  Ba28  1  0.66862873  0.15834421  0.87625740  1
  Ba  Ba29  1  0.83367053  0.32483049  0.87660895  1
  Ba  Ba30  1  0.66738783  0.17997653  0.12334715  1
  Ba  Ba31  1  0.32917385  0.15676486  0.37308638  1
  Ba  Ba32  1  0.16412467  0.66045242  0.87366132  1
  Ba  Ba33  1  0.65776593  0.81975932  0.37246337  1
  Ba  Ba34  1  0.83382798  0.67364630  0.12673902  1
  Ba  Ba35  1  0.83200090  0.34278687  0.12277219  1
  La  La36  1  0.50853309  0.64828175  0.37475967  1
  La  La37  1  0.32706408  0.14932048  0.87551948  1
  La  La38  1  0.49276610  0.68694685  0.12865423  1
  La  La39  1  -0.00288278  0.48851755  0.88552638  1
  La  La40  1  0.16485080  0.31714610  0.87632814  1
  La  La41  1  0.66567876  0.48617853  0.37294836  1
  La  La42  1  0.16781051  0.64929354  0.37365164  1
  La  La43  1  -0.00883848  0.81429615  0.87822447  1
  La  La44  1  0.50045735  0.01442639  0.12383064  1
  La  La45  1  0.67105683  0.51143930  0.12529379  1
  La  La46  1  0.33314177  0.84099647  0.62808716  1
  La  La47  1  0.16526982  0.01342935  0.62389467  1
  La  La48  1  0.16663226  0.01427608  0.12759674  1
  La  La49  1  0.82796264  0.01825521  0.62493827  1
  La  La50  1  0.50801922  0.98908068  0.37220818  1
  La  La51  1  0.50033837  0.01219063  0.62458338  1
  La  La52  1  0.49706081  0.34672006  0.62380589  1
  La  La53  1  -0.00703513  0.15692100  0.87843282  1
  La  La54  1  -0.00345786  0.81592715  0.37504228  1
  La  La55  1  0.82809418  0.01798711  0.12572474  1
  La  La56  1  0.66334964  0.47938811  0.87599974  1
  La  La57  1  0.33902956  0.17886182  0.62696296  1
  La  La58  1  0.82988951  0.35174960  0.62314761  1
  La  La59  1  0.33918984  0.84945613  0.12110154  1
  La  La60  1  0.50933243  0.98880056  0.87450477  1
  La  La61  1  0.49613688  0.34643883  0.12084378  1
  La  La62  1  0.66320955  0.15172113  0.37421190  1
  La  La63  1  0.32868882  0.48698530  0.87573703  1
  La  La64  1  0.82464353  0.68292361  0.62470214  1
  La  La65  1  0.32697002  0.48486978  0.37682397  1
  La  La66  1  0.50818075  0.64894558  0.87555110  1
  La  La67  1  0.33245928  0.81763209  0.87273890  1
  La  La68  1  0.67486805  0.51252202  0.62636663  1
  La  La69  1  0.16372368  0.68219232  0.62071004  1
  La  La70  1  0.99476103  0.17387017  0.62305677  1
  La  La71  1  0.16867576  0.98791537  0.37079816  1
  In  In72  1  0.00250348  -0.00155833  0.49967606  1
  In  In73  1  0.33264922  -0.00076975  0.50032524  1
  In  In74  1  0.16491277  0.83498375  0.75191474  1
  In  In75  1  0.33660257  0.66954448  0.49746653  1
  In  In76  1  0.83216020  0.17032203  0.74942833  1
  In  In77  1  0.50028444  0.16895082  0.24935139  1
  In  In78  1  0.66171651  0.66720049  0.50195588  1
  In  In79  1  0.16694569  0.16769700  0.25076752  1
  In  In80  1  0.33445986  0.32908880  0.49986108  1
  In  In81  1  0.33482472  -0.00224713  0.75217701  1
  In  In82  1  0.00068457  0.66097320  0.74678780  1
  In  In83  1  0.33340090  0.33324297  -0.00037128  1
  In  In84  1  0.16850349  0.49742754  0.24865226  1
  In  In85  1  0.83236143  0.83772162  0.49785061  1
  In  In86  1  0.00233380  -0.00123780  0.25023997  1
  In  In87  1  0.83250058  0.50030106  0.75523945  1
  In  In88  1  0.33583893  0.66553660  -0.00044305  1
  In  In89  1  0.50185797  0.50045008  0.74649490  1
  In  In90  1  -0.00101170  0.33127559  0.75045037  1
  In  In91  1  0.33341877  0.66353138  0.75108863  1
  In  In92  1  0.50154855  0.16696801  0.50077633  1
  In  In93  1  0.50202184  0.83534852  -0.00187907  1
  In  In94  1  0.16851334  0.83455926  0.00026605  1
  In  In95  1  0.33687016  0.66781772  0.25400486  1
  In  In96  1  -0.00051415  0.66336755  0.00173491  1
  In  In97  1  0.83308682  0.83586147  0.25349409  1
  In  In98  1  0.50092809  0.49972556  0.24749442  1
  In  In99  1  -0.00382812  0.33051947  0.50008192  1
  In  In100  1  0.83175783  0.83599949  0.00053011  1
  In  In101  1  0.33193724  0.33171724  0.75157259  1
  In  In102  1  0.50012458  0.16839355  -0.00363301  1
  In  In103  1  0.16666691  0.50004885  0.50434845  1
  In  In104  1  0.83357880  0.83858995  0.75116334  1
  In  In105  1  -0.00058880  0.66492448  0.25324198  1
  In  In106  1  0.00165734  -0.00234827  0.00227977  1
  In  In107  1  0.17042642  0.83108345  0.24986724  1
  Ir  Ir108  1  0.82727878  0.49751853  0.00263817  1
  Ir  Ir109  1  0.82666015  0.49897061  0.24918738  1
  Ir  Ir110  1  -0.00637176  0.33237108  0.24602289  1
  Ir  Ir111  1  0.83085601  0.50305336  0.50038854  1
  Ir  Ir112  1  0.50124242  0.83955870  0.50300192  1
  Ir  Ir113  1  0.33705113  0.00205968  0.00050993  1
  Ir  Ir114  1  0.82860490  0.16709012  0.49791859  1
  Ir  Ir115  1  0.66639384  0.00337738  -0.00166024  1
  Ir  Ir116  1  0.50198652  0.83696881  0.24885032  1
  Ir  Ir117  1  0.16601832  0.16404207  0.75014494  1
  Ir  Ir118  1  0.16531871  0.49509955  -0.00607331  1
  Ir  Ir119  1  0.66460756  0.66414887  0.75452345  1
  Ir  Ir120  1  0.66359465  0.00269716  0.74900872  1
  Ir  Ir121  1  0.16568375  0.83289793  0.49944903  1
  Ir  Ir122  1  0.66461224  0.00276149  0.50101318  1
  Ir  Ir123  1  0.00073346  0.00401598  0.74625201  1
  Ir  Ir124  1  0.66700252  0.33377123  0.25123021  1
  Ir  Ir125  1  0.66484670  0.00402237  0.24929785  1
  Ir  Ir126  1  0.83164751  0.16976787  0.00102350  1
  Ir  Ir127  1  0.33519523  0.33366452  0.24796588  1
  Ir  Ir128  1  0.16610321  0.49718454  0.75304026  1
  Ir  Ir129  1  0.16631539  0.16148360  0.50575035  1
  Ir  Ir130  1  0.66408928  0.33510870  0.00016550  1
  Ir  Ir131  1  -0.00122606  0.66571133  0.50345896  1
  Ir  Ir132  1  0.50085389  0.83926208  0.74693627  1
  Ir  Ir133  1  0.66066053  0.66159353  0.24745577  1
  Ir  Ir134  1  0.66113693  0.65956613  -0.00047729  1
  Ir  Ir135  1  0.50598904  0.49756046  0.49878564  1
  Ir  Ir136  1  0.49993602  0.16502444  0.74823925  1
  Ir  Ir137  1  0.50439506  0.50052395  0.00021174  1
  Ir  Ir138  1  0.33797610  -0.00253381  0.24803435  1
  Ir  Ir139  1  0.66383981  0.33355834  0.74496140  1
  Ir  Ir140  1  0.82557636  0.17082829  0.25072736  1
  Ir  Ir141  1  0.00222674  0.33362045  -0.00097069  1
  Ir  Ir142  1  0.66895980  0.33573865  0.49898667  1
  Ir  Ir143  1  0.16714726  0.16634300  -0.00694234  1
  O  O144  1  0.31401295  0.33827787  0.12762299  1
  O  O145  1  0.31286296  0.31708895  0.62768872  1
  O  O146  1  0.31863732  0.66207368  0.12548081  1
  O  O147  1  0.30559362  0.67031125  0.62308165  1
  O  O148  1  0.30479373  0.99108158  0.12361652  1
  O  O149  1  0.30210450  0.98019386  0.62634718  1
  O  O150  1  0.63364281  0.33232755  0.12565492  1
  O  O151  1  0.63425710  0.33314701  0.62141702  1
  O  O152  1  0.62774286  0.65010646  0.12145056  1
  O  O153  1  0.64401516  0.65105161  0.63384925  1
  O  O154  1  0.63641622  1.00400484  0.12394767  1
  O  O155  1  0.63513539  1.00243218  0.62530059  1
  O  O156  1  0.98119946  0.33091395  0.12129606  1
  O  O157  1  0.96707233  0.31410796  0.62468752  1
  O  O158  1  0.98465904  0.65819461  0.12706946  1
  O  O159  1  0.96115626  0.65927575  0.62032430  1
  O  O160  1  0.96272450  0.99706556  0.12581261  1
  O  O161  1  0.96814394  0.99878216  0.62837871  1
  O  O162  1  0.18776040  0.15989172  0.11462904  1
  O  O163  1  0.20119763  0.15414417  0.62871932  1
  O  O164  1  0.18521622  0.49439084  0.11561175  1
  O  O165  1  0.19127514  0.49315141  0.63507748  1
  O  O166  1  0.20827329  0.82488450  0.12545537  1
  O  O167  1  0.19909051  0.82207635  0.61895066  1
  O  O168  1  0.51951793  0.15169004  0.12391865  1
  O  O169  1  0.52400085  0.15077014  0.63021120  1
  O  O170  1  0.53358870  0.48565486  0.11964983  1
  O  O171  1  0.53901775  0.48905052  0.61832922  1
  O  O172  1  0.52453297  0.82691926  0.12932562  1
  O  O173  1  0.52667893  0.83541807  0.62466903  1
  O  O174  1  0.84548910  0.15867849  0.12700642  1
  O  O175  1  0.85415686  0.15845248  0.61956216  1
  O  O176  1  0.84928448  0.49970349  0.12519255  1
  O  O177  1  0.84436431  0.49528292  0.62124120  1
  O  O178  1  0.84343986  0.83702177  0.12713925  1
  O  O179  1  0.84508942  0.82345568  0.62477659  1
  O  O180  1  0.14979371  0.16508862  0.38440733  1
  O  O181  1  0.13275592  0.17371607  0.87071365  1
  O  O182  1  0.14964628  0.50578283  0.37702694  1
  O  O183  1  0.13381129  0.49998491  0.87304581  1
  O  O184  1  0.13376411  0.85140147  0.38347106  1
  O  O185  1  0.12553240  0.84142979  0.87406327  1
  O  O186  1  0.48083614  0.16399139  0.37506085  1
  O  O187  1  0.46621914  0.16906219  0.86714391  1
  O  O188  1  0.47180401  0.50547595  0.37874814  1
  O  O189  1  0.47100357  0.50925953  0.88026137  1
  O  O190  1  0.48571292  0.85400339  0.37737482  1
  O  O191  1  0.47193708  0.84985400  0.86854889  1
  O  O192  1  0.79765983  0.17345995  0.37469795  1
  O  O193  1  0.81934032  0.16765113  0.87959401  1
  O  O194  1  0.79975022  0.50106193  0.37374276  1
  O  O195  1  0.79853801  0.49604421  0.88309348  1
  O  O196  1  0.80250193  0.83972095  0.37581812  1
  O  O197  1  0.81105960  0.83896042  0.87473267  1
  O  O198  1  0.03611933  0.01448705  0.37725470  1
  O  O199  1  0.01702588  0.02186325  0.86682394  1
  O  O200  1  0.00548581  0.32969437  0.36824154  1
  O  O201  1  0.02616061  0.34284609  0.87877433  1
  O  O202  1  0.03126811  0.67102366  0.38633369  1
  O  O203  1  0.01525715  0.67359509  0.87412805  1
  O  O204  1  0.36838936  0.00097338  0.36895739  1
  O  O205  1  0.36990924  0.01236239  0.88008061  1
  O  O206  1  0.35373156  0.33357110  0.36930227  1
  O  O207  1  0.35535918  0.35018951  0.87487647  1
  O  O208  1  0.37960118  0.67672536  0.37760473  1
  O  O209  1  0.37491385  0.67645215  0.87612083  1
  O  O210  1  0.68549310  0.01360710  0.37528646  1
  O  O211  1  0.68832610  0.00169986  0.87412286  1
  O  O212  1  0.69130383  0.34965865  0.37352897  1
  O  O213  1  0.68723343  0.34381335  0.87263781  1
  O  O214  1  0.67654507  0.66210314  0.36890273  1
  O  O215  1  0.68554945  0.66602009  0.87723670  1
  O  O216  1  0.07857460  0.09602423  0.01155590  1
  O  O217  1  0.07581957  0.09358047  0.53636536  1
  O  O218  1  0.06973597  0.42900950  0.01329242  1
  O  O219  1  0.07603694  0.41866228  0.51347172  1
  O  O220  1  0.07699320  0.75760093  0.01579805  1
  O  O221  1  0.07349368  0.75784413  0.52543225  1
  O  O222  1  0.40438970  0.09137874  0.01748473  1
  O  O223  1  0.40177647  0.09525476  0.53267382  1
  O  O224  1  0.41478905  0.43129932  0.01884845  1
  O  O225  1  0.42095781  0.42275284  0.52012208  1
  O  O226  1  0.40710198  0.76801071  0.02620815  1
  O  O227  1  0.40462066  0.77686173  0.52513639  1
  O  O228  1  0.74190560  0.09361276  0.02268190  1
  O  O229  1  0.73235653  0.09984519  0.51177306  1
  O  O230  1  0.72906015  0.43158643  0.02179414  1
  O  O231  1  0.73498654  0.43343223  0.52433440  1
  O  O232  1  0.72893552  0.74915475  0.01663084  1
  O  O233  1  0.74352750  0.75145679  0.52024134  1
  O  O234  1  0.10115710  0.26518642  0.00564790  1
  O  O235  1  0.09030695  0.24614687  0.52422866  1
  O  O236  1  0.09551408  0.58168064  0.00885726  1
  O  O237  1  0.09397420  0.60092873  0.52644386  1
  O  O238  1  0.10537501  0.93710077  0.03027245  1
  O  O239  1  0.10628873  0.92936035  0.52756709  1
  O  O240  1  0.43229154  0.26631329  0.02342105  1
  O  O241  1  0.43272312  0.26162382  0.52952665  1
  O  O242  1  0.44506650  0.59673795  0.02245809  1
  O  O243  1  0.43852645  0.58819833  0.51715305  1
  O  O244  1  0.42925572  0.93609385  0.02750285  1
  O  O245  1  0.43744406  0.93410835  0.52237550  1
  O  O246  1  0.75701800  0.26397071  0.01551533  1
  O  O247  1  0.76453205  0.26942943  0.52327202  1
  O  O248  1  0.75173575  0.58583048  0.02777643  1
  O  O249  1  0.76108996  0.59211307  0.52505111  1
  O  O250  1  0.76033899  0.93974770  0.02187181  1
  O  O251  1  0.76177125  0.94228354  0.52552180  1
  O  O252  1  0.24360351  0.06425582  0.26908483  1
  O  O253  1  0.23995518  0.07748895  0.76994003  1
  O  O254  1  0.24941325  0.40635985  0.27183534  1
  O  O255  1  0.23128819  0.40356958  0.78041267  1
  O  O256  1  0.23694409  0.73276272  0.28446591  1
  O  O257  1  0.24874791  0.74495341  0.77342255  1
  O  O258  1  0.57125541  0.06833161  0.27157018  1
  O  O259  1  0.56359562  0.06716292  0.77195325  1
  O  O260  1  0.57864424  0.40423052  0.26601314  1
  O  O261  1  0.57784786  0.40580164  0.76620035  1
  O  O262  1  0.56267011  0.73063982  0.26781752  1
  O  O263  1  0.56598168  0.73509580  0.77479533  1
  O  O264  1  0.89603461  0.08113144  0.26113748  1
  O  O265  1  0.90836468  0.07077545  0.75756582  1
  O  O266  1  0.90171839  0.40975401  0.26415213  1
  O  O267  1  0.89719817  0.39837902  0.75263897  1
  O  O268  1  0.90975953  0.74268319  0.27672190  1
  O  O269  1  0.91163141  0.74503798  0.76317637  1
  O  O270  1  0.26104055  0.24520030  0.26121959  1
  O  O271  1  0.25974074  0.23097111  0.77839340  1
  O  O272  1  0.27075787  0.56668085  0.27890135  1
  O  O273  1  0.26298365  0.56002211  0.77641435  1
  O  O274  1  0.26901219  0.91053424  0.26790780  1
  O  O275  1  0.26832731  0.90068670  0.77734838  1
  O  O276  1  0.60367413  0.23879765  0.27479427  1
  O  O277  1  0.59403827  0.23571449  0.76603537  1
  O  O278  1  0.59963460  0.56645550  0.27304655  1
  O  O279  1  0.59993645  0.56952044  0.77919342  1
  O  O280  1  0.59494565  0.91197150  0.26872291  1
  O  O281  1  0.59169755  0.91147586  0.77153084  1
  O  O282  1  0.91846620  0.24050768  0.25811538  1
  O  O283  1  0.93801293  0.22662792  0.76904277  1
  O  O284  1  0.91387831  0.57010252  0.26708978  1
  O  O285  1  0.93410038  0.56084940  0.77748478  1
  O  O286  1  0.93612053  0.90263764  0.28082829  1
  O  O287  1  0.94029724  0.90967855  0.77315434  1
  O  O288  1  0.25869769  0.22882454  0.49236653  1
  O  O289  1  0.25906290  0.23582760  0.96753642  1
  O  O290  1  0.26389506  0.57538976  0.47084476  1
  O  O291  1  0.26237424  0.56068117  0.97409344  1
  O  O292  1  0.25550628  0.90240330  0.47850028  1
  O  O293  1  0.27725860  0.90734503  0.97748622  1
  O  O294  1  0.60588407  0.23920254  0.47638349  1
  O  O295  1  0.59543584  0.24507585  0.98147674  1
  O  O296  1  0.59639170  0.56608984  0.47452669  1
  O  O297  1  0.59794565  0.56432496  0.97226816  1
  O  O298  1  0.59679611  0.90911623  0.48253973  1
  O  O299  1  0.59283258  0.91459187  0.97932500  1
  O  O300  1  0.92107108  0.23115297  0.48696947  1
  O  O301  1  0.93093779  0.23882283  0.97713724  1
  O  O302  1  0.92541677  0.57380010  0.47884352  1
  O  O303  1  0.92094219  0.56256448  0.97947981  1
  O  O304  1  0.93595635  0.90091206  0.47695019  1
  O  O305  1  0.93596576  0.90235813  0.97235263  1
  O  O306  1  0.22930195  0.06549113  0.48335237  1
  O  O307  1  0.24510484  0.07631723  0.97275063  1
  O  O308  1  0.25297833  0.41371395  0.48120445  1
  O  O309  1  0.23324420  0.40443078  0.97037678  1
  O  O310  1  0.22705007  0.73728005  0.47595494  1
  O  O311  1  0.25109711  0.74757787  0.96646741  1
  O  O312  1  0.56846761  0.06502343  0.47923644  1
  O  O313  1  0.56994267  0.06768775  0.97675750  1
  O  O314  1  0.57854476  0.40843689  0.47477183  1
  O  O315  1  0.57266809  0.40697770  0.97674757  1
  O  O316  1  0.56068891  0.73909324  0.47989234  1
  O  O317  1  0.56719415  0.72731099  0.97993642  1
  O  O318  1  0.89754799  0.07496064  0.49076078  1
  O  O319  1  0.90765927  0.08466593  0.98769157  1
  O  O320  1  0.89842126  0.40965199  0.49467100  1
  O  O321  1  0.90920514  0.40849248  0.97665131  1
  O  O322  1  0.91338274  0.73793237  0.48188199  1
  O  O323  1  0.90788069  0.74284639  0.98295924  1
  O  O324  1  0.08083937  0.25760865  0.23879691  1
  O  O325  1  0.09840586  0.25536696  0.73541184  1
  O  O326  1  0.09789749  0.59408526  0.24685125  1
  O  O327  1  0.10611305  0.59166764  0.72488999  1
  O  O328  1  0.11081033  0.93709126  0.23161898  1
  O  O329  1  0.09694923  0.94008550  0.72363073  1
  O  O330  1  0.42974598  0.26761963  0.22322684  1
  O  O331  1  0.43361105  0.25554431  0.72079597  1
  O  O332  1  0.44324591  0.60457943  0.23195041  1
  O  O333  1  0.43050205  0.59467220  0.73500110  1
  O  O334  1  0.43607286  0.93256975  0.22251949  1
  O  O335  1  0.43837243  0.93385658  0.72407715  1
  O  O336  1  0.75737826  0.26564300  0.23420037  1
  O  O337  1  0.76161442  0.27053662  0.72492650  1
  O  O338  1  0.75088645  0.58760273  0.22382007  1
  O  O339  1  0.75890899  0.59695587  0.72800307  1
  O  O340  1  0.76079062  0.94312940  0.22752258  1
  O  O341  1  0.76028663  0.93896029  0.72550943  1
  O  O342  1  0.08082460  0.08985364  0.22282048  1
  O  O343  1  0.06965071  0.09870067  0.71891298  1
  O  O344  1  0.07172235  0.41554209  0.23880487  1
  O  O345  1  0.07356245  0.43041881  0.73767448  1
  O  O346  1  0.06987725  0.76611985  0.24871252  1
  O  O347  1  0.08408417  0.74940063  0.71953690  1
  O  O348  1  0.40807682  0.08416833  0.22602405  1
  O  O349  1  0.40506223  0.09856732  0.72671858  1
  O  O350  1  0.40925566  0.42159350  0.23348139  1
  O  O351  1  0.41500381  0.41906031  0.72373754  1
  O  O352  1  0.40852001  0.77284795  0.22337892  1
  O  O353  1  0.40524432  0.77654035  0.73021702  1
  O  O354  1  0.73030654  0.10326521  0.24099202  1
  O  O355  1  0.73923746  0.08980063  0.73025078  1
  O  O356  1  0.73009391  0.43225332  0.22910129  1
  O  O357  1  0.73010817  0.42803370  0.72546647  1
  O  O358  1  0.73016924  0.75014045  0.23342162  1
  O  O359  1  0.73681567  0.75088063  0.73213292  1
