# generated using pymatgen
data_BaLaInIrO6
_symmetry_space_group_name_H-M   'P 1'
_cell_length_a   17.51194674
_cell_length_b   17.53621004
_cell_length_c   16.48798427
_cell_angle_alpha   89.95755789
_cell_angle_beta   90.00435109
_cell_angle_gamma   90.00986131
_symmetry_Int_Tables_number   1
_chemical_formula_structural   BaLaInIrO6
_chemical_formula_sum   'Ba36 La36 In36 Ir36 O216'
_cell_volume   5063.34598104
_cell_formula_units_Z   36
loop_
 _symmetry_equiv_pos_site_id
 _symmetry_equiv_pos_as_xyz
  1  'x, y, z'
loop_
 _atom_site_type_symbol
 _atom_site_label
 _atom_site_symmetry_multiplicity
 _atom_site_fract_x
 _atom_site_fract_y
 _atom_site_fract_z
 _atom_site_occupancy
  Ba  Ba0  1  0.33670402  0.83761512  0.12704407  1
  Ba  Ba1  1  0.66643605  0.84085942  0.12913037  1
  Ba  Ba2  1  0.50090931  0.99027431  0.37899994  1
  Ba  Ba3  1  1.00229640  0.17569686  0.12106680  1
  Ba  Ba4  1  0.49694281  0.00478310  0.13108711  1
  Ba  Ba5  1  0.66438686  0.48977147  0.86835281  1
  Ba  Ba6  1  0.49944130  0.34190552  0.61870444  1
  Ba  Ba7  1  0.49813244  0.67755574  0.12580550  1
  Ba  Ba8  1  0.66624591  0.49717640  0.37377454  1
  Ba  Ba9  1  0.83415818  0.66164096  0.37446145  1
  Ba  Ba10  1  0.83540579  0.67536515  0.62949564  1
  Ba  Ba11  1  0.83553414  0.01039492  0.62374025  1
  Ba  Ba12  1  0.16688653  0.00990652  0.12576128  1
  Ba  Ba13  1  -0.00345186  0.49148970  0.87278647  1
  Ba  Ba14  1  1.00666823  0.84252338  0.13113946  1
  Ba  Ba15  1  0.66695020  0.83016133  0.38057753  1
  Ba  Ba16  1  0.16610506  0.99372030  0.87823619  1
  Ba  Ba17  1  0.33215314  0.83816745  0.62973828  1
  Ba  Ba18  1  0.83948108  0.99506880  0.87462063  1
  Ba  Ba19  1  0.66608871  0.17146999  0.12448355  1
  Ba  Ba20  1  0.83115968  0.33974877  0.12463922  1
  Ba  Ba21  1  0.16632274  0.65217806  0.37041881  1
  Ba  Ba22  1  0.50269980  0.98914480  0.87763024  1
  Ba  Ba23  1  0.00116159  0.15969053  0.87453843  1
  Ba  Ba24  1  0.16687847  0.65760155  0.87466110  1
  Ba  Ba25  1  1.00183929  0.18168841  0.62763537  1
  Ba  Ba26  1  -0.00487971  0.81757865  0.37826601  1
  Ba  Ba27  1  0.50024488  0.66057185  0.37371162  1
  Ba  Ba28  1  0.33576887  0.17218637  0.12330079  1
  Ba  Ba29  1  0.33392268  0.50790571  0.12425880  1
  Ba  Ba30  1  0.83894278  0.32678555  0.87686560  1
  Ba  Ba31  1  0.83278698  0.99313205  0.37376157  1
  Ba  Ba32  1  0.50284474  0.00549360  0.62541017  1
  Ba  Ba33  1  0.67081688  0.84516902  0.62710646  1
  Ba  Ba34  1  0.16543688  0.67376281  0.12238036  1
  Ba  Ba35  1  0.66447321  0.16215577  0.37375958  1
  La  La36  1  -0.00556989  0.48952310  0.37227108  1
  La  La37  1  0.82745806  0.01667238  0.12546385  1
  La  La38  1  0.50172483  0.65715341  0.87697133  1
  La  La39  1  0.66793394  0.14972680  0.87668844  1
  La  La40  1  0.16775145  0.31953508  0.87196793  1
  La  La41  1  0.83058363  0.68231497  0.12523779  1
  La  La42  1  0.49717372  0.34113499  0.12381964  1
  La  La43  1  0.15641440  0.68150259  0.62140371  1
  La  La44  1  0.16748385  0.31860368  0.37723348  1
  La  La45  1  0.32943379  0.48707466  0.87570254  1
  La  La46  1  0.33733551  0.17836899  0.62616595  1
  La  La47  1  1.00187342  0.50801806  0.12100321  1
  La  La48  1  0.50558129  0.31537494  0.87118038  1
  La  La49  1  0.83822395  0.65414039  0.87657514  1
  La  La50  1  0.83332589  0.32124753  0.37498373  1
  La  La51  1  0.33646088  0.51583911  0.61825662  1
  La  La52  1  0.82783714  0.34114832  0.62729526  1
  La  La53  1  1.00523746  0.85163484  0.62628162  1
  La  La54  1  0.66356361  0.82235486  0.87377032  1
  La  La55  1  -0.00605572  0.15448843  0.37477076  1
  La  La56  1  1.00020262  0.50965794  0.62191588  1
  La  La57  1  0.32935021  0.15303149  0.37664606  1
  La  La58  1  0.33247624  0.81949875  0.87701189  1
  La  La59  1  0.49673434  0.68029133  0.62119677  1
  La  La60  1  0.15944118  0.34311147  0.12825674  1
  La  La61  1  0.32898495  0.81540605  0.37696226  1
  La  La62  1  0.49941026  0.32368138  0.37244864  1
  La  La63  1  0.16319553  0.35207180  0.62592026  1
  La  La64  1  0.32802652  0.48160284  0.37373462  1
  La  La65  1  0.32794160  0.15009355  0.87234833  1
  La  La66  1  -0.00530372  0.82130705  0.88124291  1
  La  La67  1  0.66998406  0.16956202  0.63450425  1
  La  La68  1  0.66830329  0.51773903  0.12310203  1
  La  La69  1  0.66970065  0.51291447  0.61813619  1
  La  La70  1  0.17226012  0.98385093  0.37703839  1
  La  La71  1  0.15773638  0.02240368  0.62671939  1
  In  In72  1  0.32858185  -0.00150007  0.50493349  1
  In  In73  1  0.16568344  0.83412766  0.75350380  1
  In  In74  1  0.82966171  0.49802345  0.00195694  1
  In  In75  1  0.50097342  0.16491850  -0.00178340  1
  In  In76  1  0.33514937  0.33167412  -0.00115603  1
  In  In77  1  0.83700872  0.16965723  0.75187167  1
  In  In78  1  0.17012871  0.16868511  0.00254788  1
  In  In79  1  0.00006304  0.66046536  0.24786114  1
  In  In80  1  0.00029150  0.66788114  0.75007813  1
  In  In81  1  0.33142237  0.66253675  0.74753029  1
  In  In82  1  0.66608645  0.33509023  0.49849273  1
  In  In83  1  0.66833951  0.66815749  0.24976694  1
  In  In84  1  0.66807847  0.00436793  0.50168420  1
  In  In85  1  0.66568401  0.66828044  0.50215423  1
  In  In86  1  0.49738302  0.16839701  0.50142621  1
  In  In87  1  0.66483125  0.66741808  0.75118071  1
  In  In88  1  0.33253736  -0.00312912  0.74897708  1
  In  In89  1  0.50124220  0.49742721  -0.00352567  1
  In  In90  1  0.49633085  0.50004691  0.74565034  1
  In  In91  1  0.33233910  0.66053908  0.25001043  1
  In  In92  1  0.66607286  0.33779361  0.24648984  1
  In  In93  1  0.33227627  -0.00037328  0.25282498  1
  In  In94  1  0.50012449  0.49735529  0.24952159  1
  In  In95  1  0.83056098  0.49750325  0.74617131  1
  In  In96  1  -0.00134546  0.00096949  0.00406407  1
  In  In97  1  0.00156491  0.33595543  0.50014995  1
  In  In98  1  0.83652136  0.83328355  0.50525842  1
  In  In99  1  0.16660412  0.49823804  -0.00319294  1
  In  In100  1  0.00418397  0.00244684  0.49861548  1
  In  In101  1  0.16727174  0.83145143  0.25278241  1
  In  In102  1  0.83747575  0.83609819  0.24819951  1
  In  In103  1  0.66570121  0.00219229  0.24958587  1
  In  In104  1  0.83688880  0.17148342  0.24946507  1
  In  In105  1  0.66796943  -0.00550366  -0.00019133  1
  In  In106  1  0.16698681  0.83352860  0.00006691  1
  In  In107  1  0.33388949  0.33509170  0.74560707  1
  Ir  Ir108  1  0.33811340  0.66697905  -0.00418603  1
  Ir  Ir109  1  0.83293025  0.17133169  -0.00057176  1
  Ir  Ir110  1  0.49890917  0.82995346  -0.00392083  1
  Ir  Ir111  1  0.50119758  0.83283287  0.75262237  1
  Ir  Ir112  1  0.49749674  0.83312422  0.25298640  1
  Ir  Ir113  1  0.33786011  -0.00287745  -0.00196636  1
  Ir  Ir114  1  -0.00526099  0.66446898  -0.00076333  1
  Ir  Ir115  1  0.49426434  0.49995314  0.49979895  1
  Ir  Ir116  1  0.16815547  0.49662643  0.74606807  1
  Ir  Ir117  1  0.00407407  0.00061508  0.75051424  1
  Ir  Ir118  1  0.50108449  0.16655138  0.74938065  1
  Ir  Ir119  1  0.66373439  0.32787061  0.74904459  1
  Ir  Ir120  1  0.16827427  0.49899160  0.49877537  1
  Ir  Ir121  1  0.66429839  0.33087965  -0.00785749  1
  Ir  Ir122  1  0.32866848  0.66272217  0.50110652  1
  Ir  Ir123  1  0.00227551  0.33447938  0.00255139  1
  Ir  Ir124  1  0.83603457  0.49614495  0.49738189  1
  Ir  Ir125  1  0.49334529  0.17210509  0.25101613  1
  Ir  Ir126  1  0.83479601  0.83690727  0.75695393  1
  Ir  Ir127  1  0.00456568  0.00644173  0.25335395  1
  Ir  Ir128  1  0.49387413  0.83056846  0.50410776  1
  Ir  Ir129  1  0.00282629  0.33689844  0.25127606  1
  Ir  Ir130  1  0.32824350  0.32984366  0.25241219  1
  Ir  Ir131  1  0.16700846  0.83031064  0.50172140  1
  Ir  Ir132  1  0.83694758  0.17382203  0.50137561  1
  Ir  Ir133  1  0.16311053  0.17190499  0.25759924  1
  Ir  Ir134  1  0.66932076  0.67020213  -0.00309249  1
  Ir  Ir135  1  0.83677004  0.49706265  0.24806302  1
  Ir  Ir136  1  0.16334230  0.49120217  0.25246124  1
  Ir  Ir137  1  0.32696590  0.33342327  0.49711104  1
  Ir  Ir138  1  0.00300503  0.33785972  0.74890744  1
  Ir  Ir139  1  0.00382543  0.65871131  0.50115583  1
  Ir  Ir140  1  0.16720131  0.17131761  0.49949321  1
  Ir  Ir141  1  0.83311266  0.83173221  -0.00350476  1
  Ir  Ir142  1  0.66827673  0.00062565  0.75294665  1
  Ir  Ir143  1  0.16980090  0.17082517  0.74745438  1
  O  O144  1  0.29545168  0.32575604  0.13250120  1
  O  O145  1  0.29556427  0.31916233  0.61749387  1
  O  O146  1  0.31616805  0.66670288  0.11655247  1
  O  O147  1  0.29278275  0.65436352  0.61873056  1
  O  O148  1  0.31903331  0.99558840  0.12094485  1
  O  O149  1  0.29199370  0.99556296  0.62669879  1
  O  O150  1  0.63420110  0.32632303  0.11285816  1
  O  O151  1  0.64705070  0.31043430  0.62811189  1
  O  O152  1  0.64851673  0.66078527  0.11572319  1
  O  O153  1  0.63191788  0.65421172  0.62624237  1
  O  O154  1  0.64792240  1.00281429  0.12338087  1
  O  O155  1  0.65286491  1.01089921  0.63390814  1
  O  O156  1  0.97982701  0.32978443  0.12612702  1
  O  O157  1  0.97089625  0.33934343  0.62754439  1
  O  O158  1  0.96818603  0.64871897  0.11833175  1
  O  O159  1  0.98896820  0.64912764  0.62084814  1
  O  O160  1  0.96842261  1.00336453  0.13405399  1
  O  O161  1  0.99064461  0.99507339  0.62993279  1
  O  O162  1  0.18457872  0.17474012  0.13679099  1
  O  O163  1  0.20028556  0.15992095  0.62171738  1
  O  O164  1  0.18631182  0.48170891  0.13057292  1
  O  O165  1  0.20041361  0.48888835  0.62150173  1
  O  O166  1  0.18496056  0.83232689  0.12562201  1
  O  O167  1  0.18338119  0.82024039  0.62078235  1
  O  O168  1  0.51371123  0.16894943  0.13097906  1
  O  O169  1  0.53340645  0.16600794  0.63217538  1
  O  O170  1  0.53475453  0.47997689  0.12042582  1
  O  O171  1  0.53101546  0.49510479  0.61797535  1
  O  O172  1  0.51829876  0.83255035  0.12655695  1
  O  O173  1  0.52205887  0.81955160  0.62920857  1
  O  O174  1  0.85169696  0.16614143  0.11950747  1
  O  O175  1  0.85106705  0.17726774  0.62120356  1
  O  O176  1  0.86542039  0.49367625  0.12901819  1
  O  O177  1  0.86464039  0.48262544  0.61719280  1
  O  O178  1  0.85898766  0.81935338  0.11278435  1
  O  O179  1  0.86917271  0.83119414  0.63924259  1
  O  O180  1  0.13022221  0.18220672  0.37977262  1
  O  O181  1  0.14922709  0.18037484  0.86766481  1
  O  O182  1  0.13282647  0.49757850  0.37656038  1
  O  O183  1  0.14533653  0.50068508  0.86573023  1
  O  O184  1  0.14303830  0.84194595  0.38484061  1
  O  O185  1  0.12959329  0.83102919  0.87656860  1
  O  O186  1  0.46386082  0.18286428  0.37174038  1
  O  O187  1  0.46537955  0.17578241  0.86776849  1
  O  O188  1  0.46316533  0.50212862  0.38150737  1
  O  O189  1  0.46339584  0.51150855  0.87246098  1
  O  O190  1  0.46564841  0.83274522  0.38032678  1
  O  O191  1  0.46879525  0.83232839  0.87462049  1
  O  O192  1  0.81979396  0.17759805  0.38202360  1
  O  O193  1  0.80709946  0.17069989  0.87882612  1
  O  O194  1  0.81489175  0.50488630  0.37180333  1
  O  O195  1  0.81406402  0.50976306  0.87435901  1
  O  O196  1  0.82362021  0.83244066  0.37652630  1
  O  O197  1  0.80052412  0.84095571  0.87709751  1
  O  O198  1  0.03636653  0.01590104  0.37396445  1
  O  O199  1  0.01392330  0.00116911  0.87010338  1
  O  O200  1  0.03197427  0.34999429  0.37066187  1
  O  O201  1  0.03346554  0.33794935  0.87636036  1
  O  O202  1  0.01410923  0.65233142  0.38059954  1
  O  O203  1  0.01692088  0.67531139  0.87871500  1
  O  O204  1  0.34854010  0.01738251  0.38017476  1
  O  O205  1  0.35387235  0.01257836  0.87649138  1
  O  O206  1  0.36070241  0.34208297  0.37531462  1
  O  O207  1  0.36936484  0.35020029  0.86935335  1
  O  O208  1  0.35082644  0.67116006  0.38302234  1
  O  O209  1  0.36414102  0.67072297  0.87461729  1
  O  O210  1  0.68117951  -0.00084391  0.37497762  1
  O  O211  1  0.68788616  0.00119271  0.87228380  1
  O  O212  1  0.69941602  0.34310180  0.37494441  1
  O  O213  1  0.69045364  0.33662609  0.87013336  1
  O  O214  1  0.68113559  0.66563976  0.37672831  1
  O  O215  1  0.70128402  0.67697537  0.87849288  1
  O  O216  1  0.07887689  0.09321873  0.01078491  1
  O  O217  1  0.07796570  0.10063147  0.52153022  1
  O  O218  1  0.07111585  0.42423709  0.02757444  1
  O  O219  1  0.07372440  0.43502751  0.52637302  1
  O  O220  1  0.06687082  0.75036664  0.01647997  1
  O  O221  1  0.06990106  0.75888086  0.52788529  1
  O  O222  1  0.40718643  0.08713364  0.01094824  1
  O  O223  1  0.39619315  0.10111818  0.52526193  1
  O  O224  1  0.40891609  0.42337563  0.02499402  1
  O  O225  1  0.39273191  0.43235044  0.51849584  1
  O  O226  1  0.40403117  0.76262880  0.00948198  1
  O  O227  1  0.40115414  0.75475129  0.52461592  1
  O  O228  1  0.74857460  0.09445972  0.01333130  1
  O  O229  1  0.74031684  0.11191672  0.52387428  1
  O  O230  1  0.72714746  0.42790649  0.02053351  1
  O  O231  1  0.74186719  0.42978528  0.52800241  1
  O  O232  1  0.73945460  0.76192572  0.01724963  1
  O  O233  1  0.74551988  0.75523921  0.52492486  1
  O  O234  1  0.10101901  0.27268352  0.01545151  1
  O  O235  1  0.10690923  0.27078210  0.52143446  1
  O  O236  1  0.08228079  0.58770610  0.01852412  1
  O  O237  1  0.10310430  0.59309071  0.52522594  1
  O  O238  1  0.09029237  0.92572943  0.01782176  1
  O  O239  1  0.10669231  0.92896874  0.52436108  1
  O  O240  1  0.43802210  0.26655417  0.01684782  1
  O  O241  1  0.41297738  0.26113713  0.52127891  1
  O  O242  1  0.42920462  0.59951723  0.01095369  1
  O  O243  1  0.42439005  0.59478549  0.52894302  1
  O  O244  1  0.42995136  0.92437479  0.01634208  1
  O  O245  1  0.42305719  0.91905483  0.51983434  1
  O  O246  1  0.75700662  0.26149140  0.01544675  1
  O  O247  1  0.77501477  0.27175153  0.51522515  1
  O  O248  1  0.76031543  0.60079280  0.02338788  1
  O  O249  1  0.76042235  0.58080482  0.52442794  1
  O  O250  1  0.77291280  0.92813398  0.02264348  1
  O  O251  1  0.76010895  0.92854976  0.51763155  1
  O  O252  1  0.22887478  0.07813288  0.28012691  1
  O  O253  1  0.23988334  0.08130587  0.76836272  1
  O  O254  1  0.23321944  0.39732282  0.28002496  1
  O  O255  1  0.22764648  0.39883316  0.76714314  1
  O  O256  1  0.25031616  0.74342635  0.27400967  1
  O  O257  1  0.24225710  0.73900863  0.76513293  1
  O  O258  1  0.56579018  0.08506894  0.26886329  1
  O  O259  1  0.57872020  0.07807806  0.77747625  1
  O  O260  1  0.56484010  0.39902281  0.27428426  1
  O  O261  1  0.56758541  0.39503322  0.76917461  1
  O  O262  1  0.57327907  0.74883181  0.26395838  1
  O  O263  1  0.57282856  0.74612514  0.78148956  1
  O  O264  1  0.91791909  0.07983954  0.27358912  1
  O  O265  1  0.91387550  0.07424585  0.76055299  1
  O  O266  1  0.90290789  0.40024215  0.27606512  1
  O  O267  1  0.91060610  0.40555867  0.76401479  1
  O  O268  1  0.90786599  0.73601421  0.25129981  1
  O  O269  1  0.90156293  0.74595252  0.78430332  1
  O  O270  1  0.25816830  0.23809682  0.28494098  1
  O  O271  1  0.26324730  0.23653831  0.77273571  1
  O  O272  1  0.25763299  0.55717563  0.27463613  1
  O  O273  1  0.26683217  0.55573702  0.76945463  1
  O  O274  1  0.25919935  0.90797523  0.28653079  1
  O  O275  1  0.26535648  0.90018261  0.78098669  1
  O  O276  1  0.58066376  0.24457599  0.26882139  1
  O  O277  1  0.59715440  0.23272415  0.77964157  1
  O  O278  1  0.59967193  0.56913716  0.24836523  1
  O  O279  1  0.57939710  0.58370546  0.77951000  1
  O  O280  1  0.58395747  0.90710919  0.26453935  1
  O  O281  1  0.59938299  0.90261557  0.77388647  1
  O  O282  1  0.93612310  0.24544042  0.28054925  1
  O  O283  1  0.93204223  0.24854315  0.76700181  1
  O  O284  1  0.93519727  0.55463596  0.26425743  1
  O  O285  1  0.91835067  0.58171733  0.76069492  1
  O  O286  1  0.93743234  0.91659718  0.27076846  1
  O  O287  1  0.93948798  0.90111427  0.77104887  1
  O  O288  1  0.26119652  0.23793551  0.46975567  1
  O  O289  1  0.26612425  0.23642161  0.96770936  1
  O  O290  1  0.26728260  0.56212252  0.47537323  1
  O  O291  1  0.26892045  0.57204882  0.97675923  1
  O  O292  1  0.25919155  0.89708610  0.47467367  1
  O  O293  1  0.27112505  0.90520884  0.97423915  1
  O  O294  1  0.58070368  0.25296356  0.47285004  1
  O  O295  1  0.59929578  0.23944771  0.96359064  1
  O  O296  1  0.58507405  0.56738698  0.48657384  1
  O  O297  1  0.59723399  0.58050222  0.97768217  1
  O  O298  1  0.58186256  0.90358150  0.49401436  1
  O  O299  1  0.59510282  0.89406609  0.97691786  1
  O  O300  1  0.93242466  0.23901352  0.47500172  1
  O  O301  1  0.92743675  0.24357862  0.98203338  1
  O  O302  1  0.94086676  0.55695528  0.48511247  1
  O  O303  1  0.92080885  0.58007890  0.97723802  1
  O  O304  1  0.93887926  0.90232687  0.49979223  1
  O  O305  1  0.92690862  0.89649814  0.97725759  1
  O  O306  1  0.22765263  0.07576523  0.47499158  1
  O  O307  1  0.25130024  0.07341914  0.98376858  1
  O  O308  1  0.23360295  0.40361433  0.47115577  1
  O  O309  1  0.23852334  0.40363485  0.96732430  1
  O  O310  1  0.23464677  0.73498687  0.47920316  1
  O  O311  1  0.25037938  0.74039888  0.97420827  1
  O  O312  1  0.57351059  0.07806862  0.48747431  1
  O  O313  1  0.58408756  0.08114263  0.97563860  1
  O  O314  1  0.56117784  0.40920870  0.47431245  1
  O  O315  1  0.57056101  0.39415387  0.96772265  1
  O  O316  1  0.56282053  0.74042892  0.49215423  1
  O  O317  1  0.57291018  0.73826443  0.96756885  1
  O  O318  1  0.90888277  0.08207414  0.48315456  1
  O  O319  1  0.90366996  0.08072868  0.98996623  1
  O  O320  1  0.90420973  0.40620336  0.46808558  1
  O  O321  1  0.91381214  0.40732122  0.98818161  1
  O  O322  1  0.91380424  0.72767918  0.49255124  1
  O  O323  1  0.89922755  0.73484947  0.97257876  1
  O  O324  1  0.10305172  0.27460627  0.23734045  1
  O  O325  1  0.10341381  0.27158065  0.72746448  1
  O  O326  1  0.09352045  0.57907587  0.22491407  1
  O  O327  1  0.10345371  0.59150053  0.72407798  1
  O  O328  1  0.09557595  0.93769393  0.24381983  1
  O  O329  1  0.09755736  0.93396609  0.72508832  1
  O  O330  1  0.42531994  0.26732508  0.22618987  1
  O  O331  1  0.42746622  0.25332502  0.72474342  1
  O  O332  1  0.42365694  0.58685101  0.23331999  1
  O  O333  1  0.42427688  0.59593408  0.70901970  1
  O  O334  1  0.42394363  0.91931492  0.24231477  1
  O  O335  1  0.43108189  0.92181502  0.73432016  1
  O  O336  1  0.76194353  0.26536713  0.24290838  1
  O  O337  1  0.75847545  0.26249271  0.72638742  1
  O  O338  1  0.77399642  0.59075560  0.22178921  1
  O  O339  1  0.74574864  0.58107548  0.72199326  1
  O  O340  1  0.76916301  0.93188525  0.22249275  1
  O  O341  1  0.76272912  0.93056841  0.73278178  1
  O  O342  1  0.06909682  0.10612204  0.23958352  1
  O  O343  1  0.07757383  0.09434066  0.72661591  1
  O  O344  1  0.06738062  0.42885338  0.22283969  1
  O  O345  1  0.07144045  0.43215935  0.71893751  1
  O  O346  1  0.07918499  0.75000287  0.24130874  1
  O  O347  1  0.06732422  0.76323894  0.72242196  1
  O  O348  1  0.40198477  0.10190123  0.24309822  1
  O  O349  1  0.40636876  0.09935321  0.72531953  1
  O  O350  1  0.40064719  0.41609628  0.23104336  1
  O  O351  1  0.39586071  0.43449773  0.71707278  1
  O  O352  1  0.41153891  0.75910032  0.24540387  1
  O  O353  1  0.41607856  0.75767395  0.73488516  1
  O  O354  1  0.75143776  0.08978201  0.23157512  1
  O  O355  1  0.73408513  0.09819010  0.74031921  1
  O  O356  1  0.73697427  0.43968855  0.22142209  1
  O  O357  1  0.73249406  0.41921113  0.71647679  1
  O  O358  1  0.74899349  0.75221006  0.22442383  1
  O  O359  1  0.74369743  0.76610429  0.74099512  1
