# generated using pymatgen
data_BaLaInIrO6
_symmetry_space_group_name_H-M   'P 1'
_cell_length_a   17.51464980
_cell_length_b   17.54229686
_cell_length_c   16.48769560
_cell_angle_alpha   90.00688843
_cell_angle_beta   89.99047262
_cell_angle_gamma   89.95016489
_symmetry_Int_Tables_number   1
_chemical_formula_structural   BaLaInIrO6
_chemical_formula_sum   'Ba36 La36 In36 Ir36 O216'
_cell_volume   5065.79605452
_cell_formula_units_Z   36
loop_
 _symmetry_equiv_pos_site_id
 _symmetry_equiv_pos_as_xyz
  1  'x, y, z'
loop_
 _atom_site_type_symbol
 _atom_site_label
 _atom_site_symmetry_multiplicity
 _atom_site_fract_x
 _atom_site_fract_y
 _atom_site_fract_z
 _atom_site_occupancy
  Ba  Ba0  1  0.33153294  0.15854649  0.87465848  1
  Ba  Ba1  1  0.50007269  0.99313722  0.37229555  1
  Ba  Ba2  1  0.16139293  0.67706608  0.62049436  1
  Ba  Ba3  1  1.00008374  0.17664801  0.62119425  1
  Ba  Ba4  1  0.66794294  0.50620190  0.62136952  1
  Ba  Ba5  1  0.32853921  0.48959829  0.36865634  1
  Ba  Ba6  1  0.16667528  0.32763565  0.87643533  1
  Ba  Ba7  1  0.33226600  0.17495923  0.12944381  1
  Ba  Ba8  1  0.66980805  0.82197120  0.87336792  1
  Ba  Ba9  1  0.33092586  0.17555286  0.62307220  1
  Ba  Ba10  1  0.83672026  0.99092375  0.87356886  1
  Ba  Ba11  1  -0.00338574  0.82343259  0.87808256  1
  Ba  Ba12  1  0.83517305  0.32403490  0.87789022  1
  Ba  Ba13  1  0.49514772  0.67478613  0.12428402  1
  Ba  Ba14  1  0.33291587  0.82621160  0.37249544  1
  Ba  Ba15  1  -0.00201489  0.48988250  0.37640210  1
  Ba  Ba16  1  0.83428709  0.99161266  0.37774494  1
  Ba  Ba17  1  0.16754517  0.00927549  0.12685680  1
  Ba  Ba18  1  0.66764329  0.84007384  0.62098340  1
  Ba  Ba19  1  0.49762592  0.32731449  0.37711617  1
  Ba  Ba20  1  0.16572332  0.67977763  0.12795214  1
  Ba  Ba21  1  0.16443256  0.65917038  0.87724070  1
  Ba  Ba22  1  0.33245880  0.50627466  0.62292255  1
  Ba  Ba23  1  0.66933163  0.17423620  0.62656458  1
  Ba  Ba24  1  0.66914374  0.84264054  0.12232484  1
  Ba  Ba25  1  0.33478180  0.15696879  0.37901359  1
  Ba  Ba26  1  0.66318472  0.82545273  0.37387808  1
  Ba  Ba27  1  0.83537348  0.34186084  0.12558537  1
  Ba  Ba28  1  0.83288901  0.65912160  0.37365970  1
  Ba  Ba29  1  0.50063894  0.65766064  0.37399626  1
  Ba  Ba30  1  0.82908354  0.34248244  0.62763326  1
  Ba  Ba31  1  0.33018088  0.50805864  0.12455964  1
  Ba  Ba32  1  0.66948999  0.15994910  0.87489680  1
  Ba  Ba33  1  0.16730954  0.99002298  0.87523794  1
  Ba  Ba34  1  0.83315991  0.67273367  0.61887042  1
  Ba  Ba35  1  0.83807399  0.65863747  0.87037726  1
  La  La36  1  0.33837841  0.84629419  0.62549368  1
  La  La37  1  0.67121384  0.17675017  0.12673606  1
  La  La38  1  0.82770166  0.01284378  0.62572603  1
  La  La39  1  0.51193970  0.98994131  0.87570980  1
  La  La40  1  0.16163455  0.34880420  0.12777545  1
  La  La41  1  1.00784299  0.51937449  0.12444513  1
  La  La42  1  0.49817295  0.34126628  0.62214512  1
  La  La43  1  0.49582459  0.68433464  0.62341146  1
  La  La44  1  0.83226566  0.01579060  0.12247071  1
  La  La45  1  0.16035572  0.34750036  0.62605180  1
  La  La46  1  0.16565781  0.01614654  0.62536435  1
  La  La47  1  1.00914978  0.18210599  0.12736640  1
  La  La48  1  0.66459875  0.48419400  0.37713313  1
  La  La49  1  0.17320558  0.31943880  0.37594414  1
  La  La50  1  0.32371136  0.81903052  0.87690867  1
  La  La51  1  1.00348725  0.84623117  0.12623293  1
  La  La52  1  0.83885157  0.31672258  0.37836685  1
  La  La53  1  0.49262767  0.01622162  0.61826527  1
  La  La54  1  0.33860418  0.84641461  0.12280813  1
  La  La55  1  -0.00324245  0.15197684  0.37470179  1
  La  La56  1  0.49328012  0.34272278  0.13036821  1
  La  La57  1  0.17343124  0.65153651  0.37207370  1
  La  La58  1  -0.00698283  0.48924182  0.87312510  1
  La  La59  1  1.00294107  0.51671986  0.62541005  1
  La  La60  1  0.67145787  0.51673396  0.13069963  1
  La  La61  1  0.66624456  0.48759186  0.87307319  1
  La  La62  1  0.66189252  0.15451902  0.37859531  1
  La  La63  1  0.33111749  0.48786999  0.87876277  1
  La  La64  1  0.83252717  0.68045597  0.12386293  1
  La  La65  1  0.50567516  0.64897769  0.87269682  1
  La  La66  1  0.49621802  0.00931869  0.12630788  1
  La  La67  1  1.00147611  0.84763579  0.62800944  1
  La  La68  1  0.17118616  0.98663982  0.37637050  1
  La  La69  1  0.50568858  0.32171416  0.87338039  1
  La  La70  1  -0.00681266  0.81635026  0.37501126  1
  La  La71  1  -0.01066651  0.15070440  0.87513869  1
  In  In72  1  0.16664074  0.50176350  0.75490104  1
  In  In73  1  0.16189127  0.16918400  0.75200833  1
  In  In74  1  0.33398399  0.33374834  0.74968164  1
  In  In75  1  0.83507830  0.50232829  0.00337082  1
  In  In76  1  0.33412414  0.33313565  0.00348380  1
  In  In77  1  0.66517976  0.33509897  0.00336183  1
  In  In78  1  0.83648637  0.83666606  0.24949914  1
  In  In79  1  0.00044403  0.33430509  -0.00016446  1
  In  In80  1  0.16661280  0.83264964  0.74917939  1
  In  In81  1  0.66664717  -0.00097000  0.74847555  1
  In  In82  1  0.33062715  0.66837437  0.50088833  1
  In  In83  1  0.33281979  0.66879712  0.24743652  1
  In  In84  1  0.49837928  0.83171151  -0.00396365  1
  In  In85  1  0.33685093  0.00061361  -0.00011001  1
  In  In86  1  0.50151684  0.49897216  0.25095902  1
  In  In87  1  0.66823422  0.66582180  -0.00267168  1
  In  In88  1  0.66625542  0.66403506  0.49806966  1
  In  In89  1  0.49778017  0.83485833  0.75041873  1
  In  In90  1  0.83547472  0.49779347  0.49933735  1
  In  In91  1  0.83347020  0.83172063  0.74684831  1
  In  In92  1  0.00128371  -0.00060534  0.49817315  1
  In  In93  1  0.83648489  0.49915802  0.24963974  1
  In  In94  1  0.00132201  -0.00033322  0.00397514  1
  In  In95  1  0.83496453  0.17037888  0.74832132  1
  In  In96  1  0.50122540  0.49777418  0.00006317  1
  In  In97  1  0.49928288  0.50091917  0.50054458  1
  In  In98  1  0.49891170  0.16825854  0.74890966  1
  In  In99  1  0.50237976  0.16813007  0.00414160  1
  In  In100  1  0.66989927  0.00117728  0.24671336  1
  In  In101  1  0.16447069  0.49711731  0.49780375  1
  In  In102  1  0.49950224  0.83596321  0.49806775  1
  In  In103  1  0.33113843  0.00199956  0.25244604  1
  In  In104  1  0.33530769  0.00006370  0.75177766  1
  In  In105  1  0.16459279  0.16824615  -0.00065562  1
  In  In106  1  0.66862008  0.33207171  0.25108354  1
  In  In107  1  0.33349776  0.66445558  0.75044581  1
  Ir  Ir108  1  0.00145592  0.00155139  0.25198381  1
  Ir  Ir109  1  0.32918211  0.32863568  0.49852099  1
  Ir  Ir110  1  0.33277014  0.66920399  -0.00139001  1
  Ir  Ir111  1  0.00274463  0.66796627  0.25048569  1
  Ir  Ir112  1  0.66965946  0.32809457  0.50023823  1
  Ir  Ir113  1  0.83248416  0.16620026  0.49437579  1
  Ir  Ir114  1  0.15897683  0.83554888  0.25262760  1
  Ir  Ir115  1  0.66900702  0.66798414  0.24624058  1
  Ir  Ir116  1  0.50129692  0.49983712  0.74865926  1
  Ir  Ir117  1  0.50272230  0.83313268  0.24544392  1
  Ir  Ir118  1  0.00111862  0.33062910  0.49924433  1
  Ir  Ir119  1  0.00175949  0.33015007  0.25659023  1
  Ir  Ir120  1  -0.00038695  0.66766278  0.00078801  1
  Ir  Ir121  1  0.16083266  0.16952013  0.25511324  1
  Ir  Ir122  1  -0.00032352  -0.00030105  0.74607720  1
  Ir  Ir123  1  -0.00213107  0.33803886  0.74494424  1
  Ir  Ir124  1  0.83793324  0.83468088  0.49871172  1
  Ir  Ir125  1  0.16321893  0.50455958  0.00119462  1
  Ir  Ir126  1  0.16000663  0.49712964  0.24746595  1
  Ir  Ir127  1  0.66884445  -0.00004494  0.00156326  1
  Ir  Ir128  1  0.16228016  0.83711278  0.49783640  1
  Ir  Ir129  1  0.83645414  0.16372271  0.00508269  1
  Ir  Ir130  1  0.50563000  0.16632991  0.25422792  1
  Ir  Ir131  1  0.83322077  0.49975852  0.75021200  1
  Ir  Ir132  1  0.83829393  0.83204265  0.00282057  1
  Ir  Ir133  1  -0.00133653  0.66605829  0.74843140  1
  Ir  Ir134  1  0.50225245  0.16657319  0.49683104  1
  Ir  Ir135  1  0.16308825  0.16938967  0.49750299  1
  Ir  Ir136  1  0.66552807  0.33800001  0.74898303  1
  Ir  Ir137  1  0.32732514  0.32866763  0.25222794  1
  Ir  Ir138  1  0.16782999  0.83014829  0.00621480  1
  Ir  Ir139  1  0.66814699  0.00253989  0.49963975  1
  Ir  Ir140  1  0.00229860  0.67122243  0.49945400  1
  Ir  Ir141  1  0.83901404  0.16639542  0.24947790  1
  Ir  Ir142  1  0.32647412  -0.00040702  0.49925690  1
  Ir  Ir143  1  0.66521491  0.65913156  0.75028780  1
  O  O144  1  0.29694231  0.33060070  0.13447599  1
  O  O145  1  0.29887652  0.33392816  0.61659512  1
  O  O146  1  0.31324883  0.66730910  0.11799157  1
  O  O147  1  0.30760871  0.65946189  0.62548973  1
  O  O148  1  0.31337678  0.98529687  0.12982630  1
  O  O149  1  0.29688065  0.98899947  0.61698306  1
  O  O150  1  0.63169706  0.31465098  0.12876967  1
  O  O151  1  0.63690277  0.32884033  0.62368486  1
  O  O152  1  0.64567647  0.65981217  0.12773359  1
  O  O153  1  0.63434937  0.66133650  0.63217974  1
  O  O154  1  0.63805832  1.00445672  0.11929132  1
  O  O155  1  0.63693559  1.00241193  0.61785949  1
  O  O156  1  0.98107255  0.32018494  0.13641879  1
  O  O157  1  0.97541253  0.32949482  0.62078269  1
  O  O158  1  0.97076403  0.65877212  0.12546194  1
  O  O159  1  0.98089287  0.65321857  0.62437094  1
  O  O160  1  0.96895650  0.99017036  0.13430115  1
  O  O161  1  0.96897454  0.99239817  0.62519621  1
  O  O162  1  0.17899842  0.16619103  0.13695513  1
  O  O163  1  0.17944500  0.15724574  0.61731165  1
  O  O164  1  0.18168138  0.48916011  0.12534236  1
  O  O165  1  0.17927589  0.48874722  0.62545154  1
  O  O166  1  0.19668542  0.83218299  0.13148982  1
  O  O167  1  0.19729749  0.83248377  0.61512962  1
  O  O168  1  0.53635130  0.15756933  0.13648196  1
  O  O169  1  0.52190889  0.16033938  0.61554770  1
  O  O170  1  0.53685862  0.48352247  0.12574062  1
  O  O171  1  0.52094263  0.48043219  0.62899997  1
  O  O172  1  0.52033200  0.82903240  0.12760053  1
  O  O173  1  0.52113047  0.82129405  0.62448967  1
  O  O174  1  0.87202293  0.15851567  0.12857890  1
  O  O175  1  0.85153280  0.15788597  0.61644791  1
  O  O176  1  0.87461992  0.49709055  0.12779903  1
  O  O177  1  0.86563423  0.49688226  0.62968283  1
  O  O178  1  0.86596571  0.82173694  0.12348853  1
  O  O179  1  0.86622274  0.83340800  0.61726070  1
  O  O180  1  0.13212395  0.18149451  0.37588562  1
  O  O181  1  0.12181286  0.17091710  0.87465176  1
  O  O182  1  0.14446941  0.50423521  0.36780700  1
  O  O183  1  0.13005614  0.50281730  0.88309308  1
  O  O184  1  0.12588736  0.84909835  0.37472242  1
  O  O185  1  0.14637983  0.83291075  0.88575069  1
  O  O186  1  0.48174669  0.16826459  0.37500778  1
  O  O187  1  0.47831672  0.18455382  0.87609507  1
  O  O188  1  0.47634342  0.49708292  0.37637372  1
  O  O189  1  0.46987772  0.51236018  0.86793917  1
  O  O190  1  0.48526656  0.83401869  0.36558226  1
  O  O191  1  0.46062865  0.85140134  0.87368787  1
  O  O192  1  0.80294900  0.17392766  0.37126302  1
  O  O193  1  0.82198871  0.16425473  0.88288143  1
  O  O194  1  0.80454945  0.49860053  0.37311416  1
  O  O195  1  0.80521054  0.50232563  0.87139708  1
  O  O196  1  0.81704522  0.83586554  0.37858269  1
  O  O197  1  0.82209659  0.83484498  0.88021710  1
  O  O198  1  0.03366418  0.01172174  0.37060764  1
  O  O199  1  0.01660803  0.00933145  0.87046243  1
  O  O200  1  0.03374989  0.33347349  0.37890370  1
  O  O201  1  0.01768964  0.34821604  0.86560556  1
  O  O202  1  0.03505719  0.68062504  0.37447508  1
  O  O203  1  0.01764156  0.67227538  0.87386335  1
  O  O204  1  0.34769991  -0.00011239  0.37867247  1
  O  O205  1  0.37457620  0.00500054  0.87621179  1
  O  O206  1  0.34805596  0.32685738  0.37518761  1
  O  O207  1  0.36797821  0.34757093  0.87670649  1
  O  O208  1  0.34451997  0.67029802  0.37323593  1
  O  O209  1  0.36611586  0.68032305  0.88020486  1
  O  O210  1  0.68823217  0.01076130  0.37756446  1
  O  O211  1  0.68929498  0.00011127  0.88381593  1
  O  O212  1  0.70114993  0.33556214  0.38059470  1
  O  O213  1  0.68754073  0.34656665  0.86845221  1
  O  O214  1  0.68491320  0.67251427  0.36453372  1
  O  O215  1  0.68864291  0.65541271  0.86791941  1
  O  O216  1  0.06365612  0.10028009  0.02518975  1
  O  O217  1  0.07421272  0.09846814  0.51055721  1
  O  O218  1  0.07286824  0.43488667  0.02577765  1
  O  O219  1  0.06564742  0.42373808  0.52655435  1
  O  O220  1  0.06755584  0.76430162  0.02822547  1
  O  O221  1  0.06489881  0.77356067  0.52154971  1
  O  O222  1  0.41837771  0.08735649  0.03449139  1
  O  O223  1  0.40909818  0.08877036  0.52245780  1
  O  O224  1  0.40921058  0.42555080  0.02577559  1
  O  O225  1  0.40681098  0.41178479  0.51880793  1
  O  O226  1  0.39325287  0.76561947  0.01942346  1
  O  O227  1  0.39630295  0.77072571  0.52193505  1
  O  O228  1  0.74106895  0.09375552  0.03232934  1
  O  O229  1  0.74531573  0.08917424  0.52091289  1
  O  O230  1  0.73262563  0.43390993  0.02544613  1
  O  O231  1  0.73967657  0.41700862  0.51567630  1
  O  O232  1  0.74872366  0.76022922  0.01741825  1
  O  O233  1  0.74857237  0.76375898  0.51269533  1
  O  O234  1  0.09571450  0.26808159  0.03064492  1
  O  O235  1  0.10184837  0.26926518  0.52058963  1
  O  O236  1  0.09013780  0.59575215  0.02525308  1
  O  O237  1  0.08572227  0.59399349  0.51254569  1
  O  O238  1  0.09332609  0.91757072  0.02544719  1
  O  O239  1  0.09983580  0.93138385  0.52702781  1
  O  O240  1  0.43304582  0.26551164  0.03456570  1
  O  O241  1  0.42912189  0.25958374  0.52268261  1
  O  O242  1  0.42402083  0.59928848  0.00768103  1
  O  O243  1  0.43386082  0.60040495  0.52690174  1
  O  O244  1  0.43011029  0.92542482  0.03493329  1
  O  O245  1  0.42036835  0.93341427  0.52253012  1
  O  O246  1  0.76220955  0.25062035  0.02268217  1
  O  O247  1  0.76170464  0.25685257  0.51438460  1
  O  O248  1  0.76486858  0.59696768  0.03277292  1
  O  O249  1  0.75989288  0.59022230  0.51336931  1
  O  O250  1  0.77006676  0.93185999  0.02586012  1
  O  O251  1  0.76744865  0.93225347  0.52443681  1
  O  O252  1  0.22708943  0.07524106  0.27679171  1
  O  O253  1  0.23416194  0.06985811  0.75621964  1
  O  O254  1  0.22714544  0.39750533  0.26924025  1
  O  O255  1  0.24297415  0.41032971  0.77184401  1
  O  O256  1  0.22530070  0.74338089  0.27543489  1
  O  O257  1  0.24198026  0.74295638  0.77446087  1
  O  O258  1  0.58034850  0.08107155  0.27375900  1
  O  O259  1  0.57132251  0.07237034  0.77234678  1
  O  O260  1  0.58182533  0.41036288  0.27975577  1
  O  O261  1  0.56764356  0.40477279  0.77296717  1
  O  O262  1  0.57361503  0.73894431  0.26436357  1
  O  O263  1  0.57095550  0.72567943  0.77318762  1
  O  O264  1  0.91231183  0.07599548  0.27647406  1
  O  O265  1  0.91467220  0.07539294  0.76423671  1
  O  O266  1  0.90621378  0.39248132  0.27848115  1
  O  O267  1  0.90582284  0.41101651  0.77279160  1
  O  O268  1  0.91539237  0.74108248  0.26775334  1
  O  O269  1  0.91072024  0.73774284  0.75760331  1
  O  O270  1  0.25219752  0.23833543  0.27877420  1
  O  O271  1  0.25696715  0.24153127  0.76633873  1
  O  O272  1  0.24538377  0.57476862  0.26325863  1
  O  O273  1  0.26799101  0.56662365  0.78266672  1
  O  O274  1  0.24519596  0.90916085  0.27311579  1
  O  O275  1  0.26589856  0.90078055  0.77408498  1
  O  O276  1  0.59864345  0.23194921  0.27785148  1
  O  O277  1  0.59443788  0.25169767  0.76752688  1
  O  O278  1  0.60813880  0.57015030  0.26532998  1
  O  O279  1  0.59710508  0.56364977  0.77578239  1
  O  O280  1  0.59211888  0.90606860  0.25973798  1
  O  O281  1  0.58943544  0.90958717  0.77685788  1
  O  O282  1  0.93358351  0.23564344  0.28100506  1
  O  O283  1  0.93494800  0.24126972  0.77045958  1
  O  O284  1  0.93408449  0.57767110  0.26750967  1
  O  O285  1  0.93279706  0.56509999  0.76857380  1
  O  O286  1  0.94002676  0.90488471  0.27375506  1
  O  O287  1  0.93319668  0.90829659  0.75952299  1
  O  O288  1  0.25315033  0.23931046  0.47733569  1
  O  O289  1  0.25805477  0.24341399  0.98357674  1
  O  O290  1  0.24997320  0.57781641  0.47546894  1
  O  O291  1  0.26382196  0.57189337  0.97622181  1
  O  O292  1  0.25167355  0.91081405  0.47058788  1
  O  O293  1  0.26429634  0.89368867  0.98542326  1
  O  O294  1  0.59889341  0.23449359  0.47506015  1
  O  O295  1  0.59734464  0.23869787  0.98246683  1
  O  O296  1  0.60143695  0.56247950  0.47179358  1
  O  O297  1  0.59766745  0.56752943  0.97402481  1
  O  O298  1  0.59458656  0.91665865  0.48275563  1
  O  O299  1  0.59609431  0.91193621  0.97954748  1
  O  O300  1  0.92757050  0.23746265  0.46738182  1
  O  O301  1  0.93312151  0.22900448  0.98436692  1
  O  O302  1  0.93307356  0.57802902  0.48720513  1
  O  O303  1  0.93730904  0.57234342  0.97728688  1
  O  O304  1  0.93331979  0.90004360  0.47819294  1
  O  O305  1  0.92855637  0.90205671  0.99536725  1
  O  O306  1  0.22654508  0.06874869  0.47887586  1
  O  O307  1  0.24017488  0.07328223  0.98490377  1
  O  O308  1  0.23556852  0.39603493  0.47715500  1
  O  O309  1  0.23849645  0.41943099  0.98272699  1
  O  O310  1  0.22065877  0.74315826  0.47042967  1
  O  O311  1  0.24059876  0.73992701  0.98068694  1
  O  O312  1  0.57879985  0.07669760  0.47323113  1
  O  O313  1  0.57562455  0.06512877  0.97948429  1
  O  O314  1  0.58388590  0.40051738  0.48412826  1
  O  O315  1  0.57039702  0.40375072  0.96306018  1
  O  O316  1  0.57090051  0.73689946  0.49097393  1
  O  O317  1  0.56781095  0.73426022  0.97250653  1
  O  O318  1  0.90939283  0.08075120  0.47725628  1
  O  O319  1  0.90271926  0.07200894  0.98995320  1
  O  O320  1  0.90597109  0.39444625  0.47638331  1
  O  O321  1  0.91165389  0.41075417  0.98010608  1
  O  O322  1  0.91129512  0.74528273  0.47499149  1
  O  O323  1  0.90270746  0.73371057  0.98921288  1
  O  O324  1  0.09812338  0.26682732  0.23049979  1
  O  O325  1  0.09177930  0.27333648  0.72320815  1
  O  O326  1  0.09014111  0.59051033  0.22712896  1
  O  O327  1  0.08622121  0.59367932  0.73294788  1
  O  O328  1  0.08773379  0.92666015  0.22479483  1
  O  O329  1  0.09144649  0.92887967  0.71983513  1
  O  O330  1  0.43046445  0.25949517  0.22936695  1
  O  O331  1  0.43377313  0.26959985  0.72198943  1
  O  O332  1  0.42240898  0.58854336  0.23147930  1
  O  O333  1  0.44458599  0.59854921  0.73004186  1
  O  O334  1  0.43131922  0.92349360  0.22686584  1
  O  O335  1  0.42611871  0.92923822  0.70624120  1
  O  O336  1  0.76519225  0.25300036  0.22971027  1
  O  O337  1  0.75439969  0.26424506  0.73786057  1
  O  O338  1  0.76175241  0.60042056  0.22159988  1
  O  O339  1  0.76118966  0.58968846  0.72785319  1
  O  O340  1  0.76989112  0.93490795  0.22372890  1
  O  O341  1  0.76469284  0.92781781  0.72298753  1
  O  O342  1  0.06224800  0.10444734  0.23398045  1
  O  O343  1  0.07012877  0.08649241  0.72690063  1
  O  O344  1  0.06666433  0.42485306  0.22318873  1
  O  O345  1  0.06268441  0.43101055  0.72527936  1
  O  O346  1  0.06589495  0.76724526  0.22878537  1
  O  O347  1  0.06396804  0.76236254  0.72507983  1
  O  O348  1  0.41897188  0.09034651  0.23299040  1
  O  O349  1  0.41123898  0.09010445  0.71922429  1
  O  O350  1  0.40531539  0.41152042  0.22834380  1
  O  O351  1  0.41120293  0.43354218  0.73269441  1
  O  O352  1  0.40473049  0.76941863  0.22657520  1
  O  O353  1  0.40377593  0.76122758  0.72138205  1
  O  O354  1  0.74788357  0.09803628  0.22000209  1
  O  O355  1  0.74986206  0.08683214  0.73113222  1
  O  O356  1  0.73667347  0.43171310  0.22215235  1
  O  O357  1  0.73648448  0.43182414  0.73527111  1
  O  O358  1  0.74450832  0.75582852  0.22633201  1
  O  O359  1  0.73607208  0.75033287  0.73384689  1
