# generated using pymatgen
data_BaLaInIrO6
_symmetry_space_group_name_H-M   'P 1'
_cell_length_a   17.50669518
_cell_length_b   17.52904406
_cell_length_c   16.48925752
_cell_angle_alpha   89.91918477
_cell_angle_beta   90.00715056
_cell_angle_gamma   90.05037516
_symmetry_Int_Tables_number   1
_chemical_formula_structural   BaLaInIrO6
_chemical_formula_sum   'Ba36 La36 In36 Ir36 O216'
_cell_volume   5060.14427921
_cell_formula_units_Z   36
loop_
 _symmetry_equiv_pos_site_id
 _symmetry_equiv_pos_as_xyz
  1  'x, y, z'
loop_
 _atom_site_type_symbol
 _atom_site_label
 _atom_site_symmetry_multiplicity
 _atom_site_fract_x
 _atom_site_fract_y
 _atom_site_fract_z
 _atom_site_occupancy
  Ba  Ba0  1  0.83404760  0.32009367  0.37789251  1
  Ba  Ba1  1  0.99910182  0.50357730  0.62868343  1
  Ba  Ba2  1  1.00514002  0.50785588  0.12458137  1
  Ba  Ba3  1  0.32957484  0.15988429  0.37714930  1
  Ba  Ba4  1  0.33596487  0.82706565  0.87513977  1
  Ba  Ba5  1  0.66863361  0.17465086  0.12243363  1
  Ba  Ba6  1  0.33296985  0.51009382  0.62762073  1
  Ba  Ba7  1  0.83558713  0.32240456  0.87908562  1
  Ba  Ba8  1  0.67129251  0.15689593  0.87674894  1
  Ba  Ba9  1  0.49662483  0.01137347  0.62726067  1
  Ba  Ba10  1  0.83128269  0.67307097  0.62613458  1
  Ba  Ba11  1  0.49704917  0.01141197  0.12091860  1
  Ba  Ba12  1  0.33069647  0.15791706  0.87526705  1
  Ba  Ba13  1  1.00506360  0.84052311  0.62421466  1
  Ba  Ba14  1  0.33385656  0.17839915  0.62614452  1
  Ba  Ba15  1  0.83417037  0.33869548  0.62701945  1
  Ba  Ba16  1  0.83184246  0.01279326  0.12578196  1
  Ba  Ba17  1  0.50135248  0.99330196  0.87506229  1
  Ba  Ba18  1  1.00249771  0.84695655  0.12149386  1
  Ba  Ba19  1  0.82663064  0.65701015  0.87963692  1
  Ba  Ba20  1  0.33365513  0.84644936  0.62054930  1
  Ba  Ba21  1  0.67379308  0.84717385  0.12127073  1
  Ba  Ba22  1  0.16446013  0.01319953  0.12331959  1
  Ba  Ba23  1  0.67064465  0.84449929  0.62164166  1
  Ba  Ba24  1  0.83279049  0.00657049  0.62335872  1
  Ba  Ba25  1  0.83458506  0.33955976  0.12398167  1
  Ba  Ba26  1  0.66529447  0.17202996  0.62870950  1
  Ba  Ba27  1  0.16465832  0.34123888  0.12671748  1
  Ba  Ba28  1  0.00140652  0.15882172  0.37215063  1
  Ba  Ba29  1  0.66611801  0.82299234  0.37392820  1
  Ba  Ba30  1  0.16296141  0.67957412  0.12318779  1
  Ba  Ba31  1  0.16563201  0.65779312  0.37798044  1
  Ba  Ba32  1  0.50211921  0.32540052  0.37779447  1
  Ba  Ba33  1  1.00186478  0.17528606  0.12587079  1
  Ba  Ba34  1  0.16483404  0.00980215  0.62401171  1
  Ba  Ba35  1  0.33462724  0.48924100  0.87515462  1
  La  La36  1  -0.00265024  0.81671806  0.87721375  1
  La  La37  1  0.50145663  0.31468071  0.87487137  1
  La  La38  1  0.66217127  0.47762706  0.87138902  1
  La  La39  1  0.49251786  0.34585680  0.62823872  1
  La  La40  1  0.15627430  0.67997015  0.62975455  1
  La  La41  1  0.49791243  0.68505290  0.61999804  1
  La  La42  1  0.50488960  0.66354492  0.86520588  1
  La  La43  1  0.33016172  0.82399008  0.36854053  1
  La  La44  1  0.16948549  0.31934843  0.87602029  1
  La  La45  1  0.16923318  0.31995511  0.37614957  1
  La  La46  1  0.66194798  0.15522337  0.37508569  1
  La  La47  1  0.16681038  0.34117399  0.62735037  1
  La  La48  1  0.83888381  0.65255015  0.37180957  1
  La  La49  1  0.66153122  0.48609689  0.37711814  1
  La  La50  1  -0.00542634  0.48588265  0.88127516  1
  La  La51  1  0.49257425  0.68348510  0.12445967  1
  La  La52  1  0.50283584  0.65002586  0.37691691  1
  La  La53  1  0.33762375  0.18312954  0.11809197  1
  La  La54  1  0.82990522  0.68099774  0.12306797  1
  La  La55  1  0.67173081  0.50722662  0.12016261  1
  La  La56  1  0.16804524  0.65163348  0.87568020  1
  La  La57  1  0.67231428  0.83377524  0.86932154  1
  La  La58  1  -0.00445261  0.48346809  0.37045456  1
  La  La59  1  0.83253822  0.98808043  0.37341048  1
  La  La60  1  0.32756586  0.48288132  0.37921598  1
  La  La61  1  0.33418634  0.51094434  0.11962825  1
  La  La62  1  0.50016138  0.33984908  0.11583928  1
  La  La63  1  -0.00426881  0.82086103  0.37325046  1
  La  La64  1  1.00643512  0.17599595  0.61748857  1
  La  La65  1  0.67365183  0.51022243  0.62482574  1
  La  La66  1  0.33505967  0.85280970  0.12429142  1
  La  La67  1  0.17140646  0.98525216  0.87562004  1
  La  La68  1  -0.00754586  0.15102819  0.87877875  1
  La  La69  1  0.16909865  0.98723071  0.37406441  1
  La  La70  1  0.83773309  0.98698456  0.87838840  1
  La  La71  1  0.50580242  0.99019414  0.37889882  1
  In  In72  1  0.16570834  0.16707230  0.75076854  1
  In  In73  1  0.00003515  0.66148125  0.49898286  1
  In  In74  1  0.66133544  0.66456174  0.00036358  1
  In  In75  1  -0.00216653  0.66182136  0.75338605  1
  In  In76  1  0.16851195  0.83368390  0.49702026  1
  In  In77  1  0.49885451  0.83408421  0.74640116  1
  In  In78  1  0.83624146  0.16493565  0.74849811  1
  In  In79  1  0.00122533  0.00117149  0.25045807  1
  In  In80  1  0.33295925  0.00702333  0.24900676  1
  In  In81  1  0.66574710  0.66696412  0.74760902  1
  In  In82  1  -0.00116526  0.33151362  0.25005805  1
  In  In83  1  0.00251464  0.32993748  0.75273865  1
  In  In84  1  0.50003393  0.83162198  -0.00073764  1
  In  In85  1  0.83290543  0.49687218  0.49826996  1
  In  In86  1  0.66673054  0.33250385  0.25020672  1
  In  In87  1  0.33191673  0.66491144  0.49910666  1
  In  In88  1  0.66313681  0.66329964  0.25037428  1
  In  In89  1  0.66695270  0.33036367  0.50428380  1
  In  In90  1  0.33359300  0.66490520  0.25006447  1
  In  In91  1  0.33216304  0.66813399  -0.00021290  1
  In  In92  1  0.83234558  0.83086850  0.50121343  1
  In  In93  1  0.83267447  0.83251143  0.24910198  1
  In  In94  1  0.66728635  0.00144431  0.74866991  1
  In  In95  1  0.49759011  0.83375457  0.25044961  1
  In  In96  1  0.33213016  0.66605917  0.74804891  1
  In  In97  1  0.16765636  0.49939062  0.25225865  1
  In  In98  1  0.66484642  0.00062986  0.24948556  1
  In  In99  1  0.50368524  0.50075012  -0.00294516  1
  In  In100  1  0.16716898  0.83261944  0.75290242  1
  In  In101  1  0.49790770  0.16938836  0.25021457  1
  In  In102  1  0.83222936  0.49747613  0.75499506  1
  In  In103  1  0.50005235  0.49937386  0.24693365  1
  In  In104  1  0.33388899  0.33633807  0.24849760  1
  In  In105  1  0.00095653  0.00090325  0.74905557  1
  In  In106  1  0.00033255  0.66581738  0.24655875  1
  In  In107  1  0.49839395  0.16900338  0.50152342  1
  Ir  Ir108  1  0.66320085  0.66343142  0.49670235  1
  Ir  Ir109  1  0.49959272  0.16685004  -0.00276523  1
  Ir  Ir110  1  0.83545327  0.83373670  0.75392747  1
  Ir  Ir111  1  0.16573832  0.83630980  0.24934236  1
  Ir  Ir112  1  0.00320578  0.00285640  0.49567340  1
  Ir  Ir113  1  0.33244447  0.00321563  0.75155405  1
  Ir  Ir114  1  0.50307992  0.49826667  0.74804033  1
  Ir  Ir115  1  0.83529533  0.16626249  0.00223509  1
  Ir  Ir116  1  0.66938197  0.00309689  0.49749526  1
  Ir  Ir117  1  0.00042791  0.66561751  -0.00178507  1
  Ir  Ir118  1  0.83744428  0.16301904  0.49723643  1
  Ir  Ir119  1  0.83057150  0.16658362  0.25274813  1
  Ir  Ir120  1  0.83348131  0.49878395  0.00508315  1
  Ir  Ir121  1  0.49771097  0.16971662  0.75330214  1
  Ir  Ir122  1  0.00485880  0.32969871  0.50157295  1
  Ir  Ir123  1  0.00424685  0.00217604  -0.00277348  1
  Ir  Ir124  1  0.00442414  0.33308159  -0.00082824  1
  Ir  Ir125  1  0.83116144  0.50077631  0.24667419  1
  Ir  Ir126  1  0.33124156  0.33760092  0.50540284  1
  Ir  Ir127  1  0.33589346  0.00161194  0.49782335  1
  Ir  Ir128  1  0.16279012  0.83515502  -0.00052924  1
  Ir  Ir129  1  0.49914087  0.50079053  0.50470941  1
  Ir  Ir130  1  0.83771568  0.83349833  -0.00361284  1
  Ir  Ir131  1  0.67237640  -0.00007265  -0.00266903  1
  Ir  Ir132  1  0.16854338  0.16715204  0.49783016  1
  Ir  Ir133  1  0.65895622  0.33178981  0.75206656  1
  Ir  Ir134  1  0.49879169  0.83713638  0.49686872  1
  Ir  Ir135  1  0.16722442  0.49741805  0.75203537  1
  Ir  Ir136  1  0.17000205  0.16677233  0.25018417  1
  Ir  Ir137  1  0.66419795  0.33060133  -0.00377062  1
  Ir  Ir138  1  0.16565071  0.49383415  0.50549219  1
  Ir  Ir139  1  0.32757600  0.00293776  -0.00427999  1
  Ir  Ir140  1  0.33434347  0.33679346  0.75310956  1
  Ir  Ir141  1  0.16528228  0.49778783  -0.00560902  1
  Ir  Ir142  1  0.16385540  0.16825242  -0.00093267  1
  Ir  Ir143  1  0.33086399  0.33365674  -0.00353145  1
  O  O144  1  0.31262821  0.32575497  0.11635866  1
  O  O145  1  0.30377836  0.33612028  0.62976849  1
  O  O146  1  0.30695610  0.64417366  0.12501054  1
  O  O147  1  0.29186585  0.66335647  0.62203656  1
  O  O148  1  0.31147732  0.99533811  0.11542810  1
  O  O149  1  0.31244992  1.00286075  0.62715714  1
  O  O150  1  0.63616285  0.32988707  0.11642373  1
  O  O151  1  0.62950681  0.32894005  0.63320123  1
  O  O152  1  0.62851906  0.64419897  0.12516703  1
  O  O153  1  0.63417442  0.65163298  0.61577534  1
  O  O154  1  0.65088937  1.00293540  0.11720743  1
  O  O155  1  0.64927685  0.99939830  0.61716722  1
  O  O156  1  0.98638855  0.33295996  0.11912334  1
  O  O157  1  0.98467324  0.31810425  0.62133710  1
  O  O158  1  0.96705426  0.66428214  0.11710755  1
  O  O159  1  0.98175328  0.65881198  0.62593333  1
  O  O160  1  0.98328231  1.00224615  0.11842106  1
  O  O161  1  0.98390185  1.00269663  0.61515782  1
  O  O162  1  0.19861284  0.16529725  0.12558471  1
  O  O163  1  0.18319127  0.16710782  0.61820420  1
  O  O164  1  0.19732226  0.49301463  0.11614235  1
  O  O165  1  0.18966767  0.47871679  0.63011275  1
  O  O166  1  0.19686420  0.83379041  0.12540727  1
  O  O167  1  0.18403929  0.82154546  0.62498335  1
  O  O168  1  0.51610329  0.17317050  0.11566660  1
  O  O169  1  0.51317131  0.17449736  0.63327234  1
  O  O170  1  0.53499992  0.47731343  0.12084583  1
  O  O171  1  0.53571713  0.48557510  0.62696522  1
  O  O172  1  0.52522228  0.82295974  0.12368539  1
  O  O173  1  0.52292328  0.83196911  0.61546217  1
  O  O174  1  0.85344818  0.16773946  0.12815501  1
  O  O175  1  0.86979909  0.16141793  0.61694279  1
  O  O176  1  0.85833558  0.49580918  0.12625392  1
  O  O177  1  0.84723296  0.50100241  0.62585680  1
  O  O178  1  0.85496924  0.82444286  0.11695721  1
  O  O179  1  0.85471726  0.83313603  0.63196756  1
  O  O180  1  0.15096060  0.18021529  0.37431396  1
  O  O181  1  0.13275706  0.17846860  0.88022318  1
  O  O182  1  0.13279465  0.49785534  0.38920402  1
  O  O183  1  0.13307852  0.51007223  0.87247632  1
  O  O184  1  0.13436707  0.84462299  0.36895732  1
  O  O185  1  0.13314194  0.84575862  0.88215275  1
  O  O186  1  0.47658297  0.16967652  0.37711378  1
  O  O187  1  0.47772995  0.17196854  0.87551427  1
  O  O188  1  0.46420150  0.50872417  0.38622083  1
  O  O189  1  0.48112627  0.51611121  0.86682635  1
  O  O190  1  0.46604103  0.84644097  0.38044769  1
  O  O191  1  0.48969209  0.81714370  0.87376655  1
  O  O192  1  0.80242902  0.16478593  0.37535736  1
  O  O193  1  0.82284937  0.16691552  0.88361113  1
  O  O194  1  0.79948923  0.50866215  0.36645293  1
  O  O195  1  0.80062582  0.49732378  0.88663576  1
  O  O196  1  0.81630657  0.84761212  0.37652070  1
  O  O197  1  0.80724329  0.84172077  0.87619202  1
  O  O198  1  0.03267803  0.00586071  0.37840547  1
  O  O199  1  0.03400577  0.01315769  0.88000917  1
  O  O200  1  0.03074803  0.33901735  0.38228255  1
  O  O201  1  0.03128996  0.34106802  0.88118719  1
  O  O202  1  0.01854123  0.68190347  0.37282209  1
  O  O203  1  0.03229964  0.67429878  0.88084864  1
  O  O204  1  0.36568536  0.00346893  0.37939932  1
  O  O205  1  0.35160195  0.00253938  0.87416270  1
  O  O206  1  0.35183830  0.34287284  0.38412867  1
  O  O207  1  0.36377380  0.33495194  0.87485476  1
  O  O208  1  0.36874844  0.67812661  0.37540458  1
  O  O209  1  0.36976218  0.66584097  0.87518369  1
  O  O210  1  0.69678575  0.01368910  0.37993687  1
  O  O211  1  0.69864927  -0.00380385  0.87845947  1
  O  O212  1  0.68717340  0.35012526  0.37792196  1
  O  O213  1  0.68800833  0.33928443  0.87353896  1
  O  O214  1  0.69924761  0.66608927  0.37992421  1
  O  O215  1  0.67160234  0.69361076  0.87504228  1
  O  O216  1  0.06971015  0.09903131  0.01546341  1
  O  O217  1  0.07071617  0.10038840  0.51830298  1
  O  O218  1  0.07250346  0.42828259  0.01260490  1
  O  O219  1  0.07915529  0.41601588  0.53219963  1
  O  O220  1  0.06687948  0.76500222  0.01377058  1
  O  O221  1  0.08142827  0.75121989  0.51692495  1
  O  O222  1  0.39916619  0.09944863  0.01992428  1
  O  O223  1  0.40425829  0.09077128  0.51908972  1
  O  O224  1  0.40368621  0.42165266  0.02297200  1
  O  O225  1  0.40882009  0.42677245  0.52937383  1
  O  O226  1  0.39509147  0.76691736  0.03297421  1
  O  O227  1  0.41676264  0.76110667  0.52066615  1
  O  O228  1  0.74269834  0.09519384  0.01697352  1
  O  O229  1  0.74170715  0.09528245  0.51788315  1
  O  O230  1  0.73445185  0.42857140  0.02274101  1
  O  O231  1  0.73537753  0.42813775  0.52555316  1
  O  O232  1  0.74987400  0.75608234  0.01780936  1
  O  O233  1  0.73367300  0.75178291  0.51788481  1
  O  O234  1  0.09715715  0.26362146  0.01707046  1
  O  O235  1  0.09880301  0.26020239  0.52502818  1
  O  O236  1  0.09459752  0.59344075  0.01481479  1
  O  O237  1  0.10434313  0.58764988  0.52996910  1
  O  O238  1  0.09717794  0.93272509  0.01428141  1
  O  O239  1  0.09558224  0.93502267  0.50884424  1
  O  O240  1  0.42757203  0.26291448  0.01904387  1
  O  O241  1  0.42523264  0.27154273  0.52700945  1
  O  O242  1  0.42675828  0.58846061  0.03231928  1
  O  O243  1  0.43477548  0.59526426  0.52610499  1
  O  O244  1  0.41720938  0.92921566  0.01287007  1
  O  O245  1  0.43231227  0.93315457  0.51602878  1
  O  O246  1  0.76145742  0.25924238  0.01759132  1
  O  O247  1  0.76761480  0.25205545  0.51860332  1
  O  O248  1  0.76551232  0.59064185  0.03064477  1
  O  O249  1  0.74913640  0.59091540  0.51778329  1
  O  O250  1  0.76936264  0.93123533  0.01202605  1
  O  O251  1  0.75916020  0.93115444  0.50944783  1
  O  O252  1  0.23148954  0.07093735  0.27494257  1
  O  O253  1  0.23664868  0.07007363  0.77246219  1
  O  O254  1  0.23495336  0.40060268  0.28172094  1
  O  O255  1  0.23358650  0.40016437  0.77482735  1
  O  O256  1  0.23629487  0.74831520  0.27032812  1
  O  O257  1  0.23482500  0.73412611  0.78103631  1
  O  O258  1  0.56857452  0.07109904  0.27608838  1
  O  O259  1  0.57027220  0.08033062  0.76590642  1
  O  O260  1  0.57339113  0.40759722  0.27124323  1
  O  O261  1  0.56412354  0.40053642  0.77818458  1
  O  O262  1  0.56098113  0.72994494  0.27493136  1
  O  O263  1  0.56254223  0.72667990  0.74867915  1
  O  O264  1  0.89847170  0.07135291  0.27325286  1
  O  O265  1  0.90476146  0.06597995  0.78252404  1
  O  O266  1  0.90344071  0.41266373  0.27243243  1
  O  O267  1  0.91177585  0.40694004  0.77056282  1
  O  O268  1  0.89865281  0.73098787  0.26853591  1
  O  O269  1  0.90522374  0.74524346  0.77538323  1
  O  O270  1  0.26074362  0.23632926  0.25925495  1
  O  O271  1  0.26163086  0.24904925  0.77146266  1
  O  O272  1  0.26833321  0.56375428  0.28014762  1
  O  O273  1  0.25502188  0.56869701  0.77205862  1
  O  O274  1  0.25760491  0.90564611  0.27397558  1
  O  O275  1  0.26088520  0.91504832  0.77100614  1
  O  O276  1  0.60192948  0.23201677  0.27350317  1
  O  O277  1  0.58634050  0.24240035  0.77891593  1
  O  O278  1  0.59699541  0.56668034  0.28662585  1
  O  O279  1  0.59760935  0.55924452  0.76920052  1
  O  O280  1  0.58580044  0.91228030  0.27680413  1
  O  O281  1  0.59975245  0.90215330  0.76892359  1
  O  O282  1  0.92135035  0.23737136  0.26535899  1
  O  O283  1  0.93639954  0.22968902  0.77058894  1
  O  O284  1  0.92301471  0.56708410  0.27681058  1
  O  O285  1  0.92974172  0.56768340  0.78494262  1
  O  O286  1  0.93465236  0.90217824  0.27428784  1
  O  O287  1  0.92820048  0.90095151  0.77939102  1
  O  O288  1  0.25585975  0.24819003  0.47760341  1
  O  O289  1  0.25452184  0.24288089  0.97558959  1
  O  O290  1  0.25905425  0.56001906  0.47729128  1
  O  O291  1  0.25101679  0.57210160  0.97479778  1
  O  O292  1  0.26515842  0.91322506  0.46905707  1
  O  O293  1  0.25481041  0.90962334  0.97515087  1
  O  O294  1  0.59960148  0.23431281  0.47856796  1
  O  O295  1  0.58922963  0.24197699  0.97097157  1
  O  O296  1  0.59152642  0.57044662  0.47209649  1
  O  O297  1  0.61050105  0.55561035  0.97376075  1
  O  O298  1  0.59099180  0.91543649  0.47079437  1
  O  O299  1  0.60617839  0.90404611  0.97652014  1
  O  O300  1  0.93202028  0.23595792  0.48172074  1
  O  O301  1  0.93574652  0.23635232  0.97936306  1
  O  O302  1  0.92463522  0.56973152  0.46341300  1
  O  O303  1  0.93105517  0.56802361  0.97736378  1
  O  O304  1  0.93668603  0.90994365  0.47429975  1
  O  O305  1  0.93252756  0.90852525  0.96755779  1
  O  O306  1  0.23592092  0.06825567  0.47445427  1
  O  O307  1  0.23036255  0.07293761  0.97354494  1
  O  O308  1  0.23453110  0.40238949  0.47797696  1
  O  O309  1  0.23376799  0.40220799  0.97107283  1
  O  O310  1  0.25386636  0.75233836  0.46591000  1
  O  O311  1  0.22697372  0.74070393  0.97514010  1
  O  O312  1  0.57806959  0.07199201  0.47627734  1
  O  O313  1  0.57555096  0.07216655  0.98062416  1
  O  O314  1  0.57025167  0.41427059  0.48521427  1
  O  O315  1  0.57095826  0.39566681  0.96971545  1
  O  O316  1  0.56546541  0.73471214  0.47661188  1
  O  O317  1  0.55055383  0.71643744  0.99100281  1
  O  O318  1  0.90427489  0.06712397  0.47236600  1
  O  O319  1  0.90819352  0.07048060  0.97502534  1
  O  O320  1  0.91998854  0.40639708  0.47925895  1
  O  O321  1  0.91374160  0.40923265  0.97677142  1
  O  O322  1  0.90292557  0.73693308  0.47247372  1
  O  O323  1  0.91058324  0.74125759  0.97276301  1
  O  O324  1  0.10014755  0.25825959  0.24256283  1
  O  O325  1  0.10715701  0.27213407  0.73423298  1
  O  O326  1  0.09461172  0.59309602  0.23444559  1
  O  O327  1  0.10584750  0.59338091  0.73235632  1
  O  O328  1  0.10122998  0.92862782  0.23641443  1
  O  O329  1  0.09733774  0.93188746  0.74310938  1
  O  O330  1  0.43399934  0.27342119  0.22251136  1
  O  O331  1  0.43237661  0.27112360  0.73572398  1
  O  O332  1  0.43989407  0.60250343  0.22729886  1
  O  O333  1  0.44076582  0.59263121  0.72146271  1
  O  O334  1  0.41871309  0.92704933  0.22641525  1
  O  O335  1  0.42129744  0.93078875  0.73838724  1
  O  O336  1  0.76503146  0.25925239  0.23676148  1
  O  O337  1  0.75221171  0.26280963  0.73677653  1
  O  O338  1  0.76760714  0.59294375  0.22052558  1
  O  O339  1  0.75326380  0.58809771  0.73435676  1
  O  O340  1  0.76253957  0.93079346  0.24041998  1
  O  O341  1  0.76741483  0.92378795  0.74374467  1
  O  O342  1  0.07947124  0.09746803  0.23755513  1
  O  O343  1  0.06093965  0.10799197  0.73108833  1
  O  O344  1  0.06863361  0.42902223  0.24616584  1
  O  O345  1  0.07818307  0.42935773  0.73905653  1
  O  O346  1  0.07369904  0.76884774  0.23416054  1
  O  O347  1  0.07321411  0.75529426  0.73850363  1
  O  O348  1  0.39489261  0.10777261  0.21976521  1
  O  O349  1  0.40497680  0.09772494  0.73529747  1
  O  O350  1  0.39223888  0.44221900  0.23004130  1
  O  O351  1  0.41133742  0.42489858  0.72788645  1
  O  O352  1  0.39358311  0.76979920  0.22450940  1
  O  O353  1  0.40897483  0.75493252  0.71873318  1
  O  O354  1  0.73944769  0.10083161  0.24161375  1
  O  O355  1  0.74383931  0.09158950  0.73479862  1
  O  O356  1  0.73711620  0.43584528  0.22464720  1
  O  O357  1  0.72406238  0.42636876  0.73275956  1
  O  O358  1  0.74134162  0.75208737  0.22349465  1
  O  O359  1  0.74186081  0.76637645  0.73824745  1
