# generated using pymatgen
data_BaLaInIrO6
_symmetry_space_group_name_H-M   'P 1'
_cell_length_a   17.53256169
_cell_length_b   17.54768423
_cell_length_c   16.50084444
_cell_angle_alpha   90.00724572
_cell_angle_beta   90.00333298
_cell_angle_gamma   89.96883765
_symmetry_Int_Tables_number   1
_chemical_formula_structural   BaLaInIrO6
_chemical_formula_sum   'Ba36 La36 In36 Ir36 O216'
_cell_volume   5076.58062581
_cell_formula_units_Z   36
loop_
 _symmetry_equiv_pos_site_id
 _symmetry_equiv_pos_as_xyz
  1  'x, y, z'
loop_
 _atom_site_type_symbol
 _atom_site_label
 _atom_site_symmetry_multiplicity
 _atom_site_fract_x
 _atom_site_fract_y
 _atom_site_fract_z
 _atom_site_occupancy
  Ba  Ba0  1  0.16207927  0.34199506  0.12237907  1
  Ba  Ba1  1  0.50183179  0.00287094  0.62385996  1
  Ba  Ba2  1  0.83664253  0.68203009  0.62272080  1
  Ba  Ba3  1  0.66714858  0.15500621  0.37850261  1
  Ba  Ba4  1  0.32641433  0.48594261  0.37504457  1
  Ba  Ba5  1  0.16541539  0.99227551  0.87542713  1
  Ba  Ba6  1  0.33585809  0.17191299  0.62460871  1
  Ba  Ba7  1  0.82963472  0.33994784  0.62675691  1
  Ba  Ba8  1  0.50011426  0.33520334  0.62786016  1
  Ba  Ba9  1  0.66826532  0.82804350  0.87695862  1
  Ba  Ba10  1  -0.00133145  0.15225834  0.87310211  1
  Ba  Ba11  1  0.49696574  1.00004508  0.87269629  1
  Ba  Ba12  1  0.33207216  0.49031548  0.87463975  1
  Ba  Ba13  1  0.16689076  0.32177261  0.37643249  1
  Ba  Ba14  1  0.33113881  0.15605079  0.37575039  1
  Ba  Ba15  1  0.33711202  0.50368888  0.62253029  1
  Ba  Ba16  1  0.16529428  0.65755020  0.37717061  1
  Ba  Ba17  1  0.66247714  0.16303403  0.87457041  1
  Ba  Ba18  1  0.66296204  0.17110537  0.62571607  1
  Ba  Ba19  1  0.32823281  0.15552621  0.87147255  1
  Ba  Ba20  1  0.49785667  0.99272963  0.37409341  1
  Ba  Ba21  1  -0.00318334  0.48995541  0.37647019  1
  Ba  Ba22  1  0.49562068  0.32463030  0.87425409  1
  Ba  Ba23  1  0.83000576  0.34061159  0.12494182  1
  Ba  Ba24  1  0.67038015  0.84392115  0.62493056  1
  Ba  Ba25  1  0.83093500  0.67638049  0.12818848  1
  Ba  Ba26  1  1.00054235  0.17700146  0.12295643  1
  Ba  Ba27  1  0.33281225  0.17464248  0.12434131  1
  Ba  Ba28  1  0.66804643  0.51124858  0.12334874  1
  Ba  Ba29  1  0.83591485  0.99058173  0.37446654  1
  Ba  Ba30  1  0.33273237  0.84032876  0.62434730  1
  Ba  Ba31  1  0.66740970  0.82983369  0.37587850  1
  Ba  Ba32  1  0.66953793  0.50844778  0.62372182  1
  Ba  Ba33  1  0.50483920  0.00726611  0.12504572  1
  Ba  Ba34  1  1.00652868  0.84562761  0.62491207  1
  Ba  Ba35  1  0.16515639  0.34097919  0.62722273  1
  La  La36  1  -0.00762822  0.81569456  0.37878207  1
  La  La37  1  0.49767778  0.68051512  0.12454228  1
  La  La38  1  0.84331762  0.98916251  0.86737532  1
  La  La39  1  0.66420233  0.48982888  0.87652662  1
  La  La40  1  0.16118903  0.68317715  0.62396943  1
  La  La41  1  0.50196085  0.65922452  0.87207088  1
  La  La42  1  0.33392864  0.84514406  0.12406655  1
  La  La43  1  1.00642891  0.17813330  0.62078404  1
  La  La44  1  0.17166635  0.65730984  0.87462242  1
  La  La45  1  0.50012394  0.31579688  0.37884215  1
  La  La46  1  0.16146631  0.01577521  0.12652040  1
  La  La47  1  0.83659959  0.65175462  0.37825525  1
  La  La48  1  -0.00646215  0.82605615  0.87588650  1
  La  La49  1  0.33757459  0.50731031  0.12996294  1
  La  La50  1  0.49808456  0.68193482  0.62610706  1
  La  La51  1  0.17328904  0.98564937  0.37512464  1
  La  La52  1  1.00265016  0.51088294  0.12502807  1
  La  La53  1  0.33014228  0.82304901  0.37740191  1
  La  La54  1  0.67163028  0.17978375  0.12180476  1
  La  La55  1  0.82998765  0.01315423  0.62114348  1
  La  La56  1  0.82470792  0.01282993  0.12948181  1
  La  La57  1  0.83992201  0.31705640  0.37984862  1
  La  La58  1  0.83514856  0.31589684  0.87226000  1
  La  La59  1  0.66723016  0.48544746  0.37345097  1
  La  La60  1  0.16473527  0.67767063  0.12869122  1
  La  La61  1  -0.00473870  0.48582349  0.87338105  1
  La  La62  1  0.16410346  0.01687079  0.62300557  1
  La  La63  1  -0.00400671  0.15555885  0.36859993  1
  La  La64  1  1.00823969  0.52088472  0.62172938  1
  La  La65  1  0.33006841  0.82635044  0.87199625  1
  La  La66  1  0.50292928  0.65476757  0.37942430  1
  La  La67  1  0.66813021  0.85001000  0.12893586  1
  La  La68  1  0.17368877  0.31513924  0.87617349  1
  La  La69  1  1.00472782  0.85325180  0.13207255  1
  La  La70  1  0.83342848  0.65526003  0.87339681  1
  La  La71  1  0.49567279  0.34474163  0.12503979  1
  In  In72  1  0.33060588  0.66480512  0.75048060  1
  In  In73  1  0.00042104  0.33607943  0.74790221  1
  In  In74  1  0.67030742  0.66688970  0.49711685  1
  In  In75  1  0.83661200  0.49886018  0.50541718  1
  In  In76  1  0.49936132  0.83359458  0.75309185  1
  In  In77  1  0.83539552  0.83048977  0.00539748  1
  In  In78  1  -0.00343395  0.33502441  0.24900363  1
  In  In79  1  0.33162037  0.32984027  0.24983936  1
  In  In80  1  0.83457877  0.50159001  -0.00036329  1
  In  In81  1  0.49762503  0.16549656  0.75040352  1
  In  In82  1  0.00123002  0.66960261  0.75576289  1
  In  In83  1  0.67163393  0.00044904  0.75184761  1
  In  In84  1  0.16657322  0.49832521  0.50181802  1
  In  In85  1  0.66935770  0.66779057  0.75066037  1
  In  In86  1  0.49882082  0.83223238  0.00071397  1
  In  In87  1  0.33366168  0.66525911  0.50195468  1
  In  In88  1  0.16622380  0.49964345  0.24858225  1
  In  In89  1  0.83444415  0.16234026  -0.00070171  1
  In  In90  1  0.49950918  0.83337354  0.49680960  1
  In  In91  1  0.67048616  -0.00016815  -0.00139206  1
  In  In92  1  0.00276067  -0.00071635  0.49779218  1
  In  In93  1  0.33392057  0.00034868  0.24783966  1
  In  In94  1  0.49909312  0.16652946  0.00304634  1
  In  In95  1  -0.00262976  0.66793384  0.24603495  1
  In  In96  1  0.66812432  0.66980200  0.25036553  1
  In  In97  1  0.66619020  0.33687181  0.00118741  1
  In  In98  1  0.33465977  0.66760396  0.24826982  1
  In  In99  1  0.66771959  0.33116909  0.49711957  1
  In  In100  1  0.50185671  0.49795304  0.49881301  1
  In  In101  1  0.16435267  0.16302858  -0.00072283  1
  In  In102  1  -0.00015112  0.33536041  -0.00501944  1
  In  In103  1  0.50182519  0.50174525  0.25072765  1
  In  In104  1  0.16338927  0.83194400  0.00048115  1
  In  In105  1  0.33118498  0.33589014  0.00081687  1
  In  In106  1  0.66841793  0.33530220  0.75021921  1
  In  In107  1  0.33068709  0.33514363  0.74806550  1
  Ir  Ir108  1  0.83219848  0.16314790  0.25322616  1
  Ir  Ir109  1  0.16040959  0.50463541  0.75297448  1
  Ir  Ir110  1  0.83936017  0.16374329  0.74664945  1
  Ir  Ir111  1  0.33350463  0.32710927  0.49899086  1
  Ir  Ir112  1  0.49745519  0.83171494  0.24728470  1
  Ir  Ir113  1  0.00284597  -0.00082778  0.25012543  1
  Ir  Ir114  1  0.66538673  0.66793598  0.00026449  1
  Ir  Ir115  1  0.00060358  -0.00187914  0.74780745  1
  Ir  Ir116  1  0.32860466  -0.00107359  0.49981092  1
  Ir  Ir117  1  -0.00147948  0.32946538  0.50025896  1
  Ir  Ir118  1  0.50345119  0.50352263  0.75452060  1
  Ir  Ir119  1  0.83872551  0.83704458  0.74839768  1
  Ir  Ir120  1  0.83654332  0.50294866  0.75368676  1
  Ir  Ir121  1  0.32804400  -0.00673286  0.00032123  1
  Ir  Ir122  1  0.66768964  -0.00060100  0.25332206  1
  Ir  Ir123  1  0.16256097  0.16214410  0.74428137  1
  Ir  Ir124  1  0.16116706  0.16077566  0.25352832  1
  Ir  Ir125  1  0.16529440  0.83713065  0.49699665  1
  Ir  Ir126  1  0.66736810  0.33056523  0.25298103  1
  Ir  Ir127  1  0.49787801  0.16168832  0.49566635  1
  Ir  Ir128  1  0.83667535  0.83568566  0.49803688  1
  Ir  Ir129  1  0.16387465  0.50887061  -0.00473957  1
  Ir  Ir130  1  0.16326655  0.83685003  0.75086375  1
  Ir  Ir131  1  -0.00168365  -0.00657243  0.00339779  1
  Ir  Ir132  1  0.16364262  0.16611991  0.49904548  1
  Ir  Ir133  1  0.00124573  0.67086671  0.50067075  1
  Ir  Ir134  1  0.16606773  0.83475867  0.25168026  1
  Ir  Ir135  1  0.83766865  0.83610070  0.25341639  1
  Ir  Ir136  1  0.67062242  0.00144614  0.49781355  1
  Ir  Ir137  1  0.83903285  0.16484995  0.49809848  1
  Ir  Ir138  1  0.50023391  0.50687410  -0.00121539  1
  Ir  Ir139  1  0.50751647  0.16736783  0.25130204  1
  Ir  Ir140  1  0.33085488  0.66535140  0.00063206  1
  Ir  Ir141  1  0.00346959  0.66794450  -0.00054161  1
  Ir  Ir142  1  0.32546888  -0.00384830  0.74879858  1
  Ir  Ir143  1  0.83087304  0.49753877  0.25063257  1
  O  O144  1  0.31249323  0.34325536  0.12409402  1
  O  O145  1  0.31490231  0.33240973  0.61932557  1
  O  O146  1  0.29839158  0.65599614  0.11677941  1
  O  O147  1  0.29337760  0.66390449  0.62816084  1
  O  O148  1  0.29823388  0.98590935  0.12152413  1
  O  O149  1  0.29826278  0.99726040  0.62492528  1
  O  O150  1  0.63426090  0.32701092  0.13499216  1
  O  O151  1  0.65633978  0.33473696  0.62356627  1
  O  O152  1  0.63606533  0.66619446  0.12118063  1
  O  O153  1  0.63710719  0.66652886  0.62504266  1
  O  O154  1  0.65463846  0.98908344  0.13486773  1
  O  O155  1  0.65988560  1.00192655  0.61707963  1
  O  O156  1  0.98062775  0.33603358  0.12201170  1
  O  O157  1  0.97853168  0.31785360  0.62070921  1
  O  O158  1  0.97747027  0.65082597  0.11611618  1
  O  O159  1  0.98820994  0.66709019  0.62413852  1
  O  O160  1  0.96698079  0.99084510  0.12705406  1
  O  O161  1  0.97181922  1.00111533  0.62787634  1
  O  O162  1  0.18022969  0.15356150  0.13187978  1
  O  O163  1  0.18576423  0.15620845  0.62151993  1
  O  O164  1  0.19757266  0.50328564  0.11170580  1
  O  O165  1  0.18246633  0.49963418  0.63441293  1
  O  O166  1  0.19652108  0.82030797  0.13083640  1
  O  O167  1  0.18443338  0.82010503  0.62368549  1
  O  O168  1  0.53588731  0.16501572  0.13479076  1
  O  O169  1  0.51019994  0.16095191  0.61478551  1
  O  O170  1  0.52170839  0.48868187  0.11726066  1
  O  O171  1  0.52222661  0.49282870  0.63444366  1
  O  O172  1  0.53016288  0.82097622  0.12956019  1
  O  O173  1  0.51938627  0.82129652  0.62476534  1
  O  O174  1  0.85478095  0.15396471  0.13426503  1
  O  O175  1  0.87060287  0.15715571  0.62126827  1
  O  O176  1  0.86514122  0.49537740  0.12885665  1
  O  O177  1  0.87234800  0.49512753  0.63474155  1
  O  O178  1  0.86958204  0.83148575  0.13581491  1
  O  O179  1  0.85965455  0.83747112  0.62123166  1
  O  O180  1  0.13305676  0.16337628  0.37715564  1
  O  O181  1  0.14840792  0.16444439  0.86537706  1
  O  O182  1  0.14459877  0.50218487  0.37678322  1
  O  O183  1  0.12831851  0.52057269  0.87385841  1
  O  O184  1  0.13211581  0.85007609  0.37401996  1
  O  O185  1  0.13108554  0.84082759  0.87137530  1
  O  O186  1  0.48016092  0.17263354  0.37219265  1
  O  O187  1  0.47659107  0.16307296  0.87766451  1
  O  O188  1  0.47071122  0.52131856  0.37389269  1
  O  O189  1  0.47750995  0.52284489  0.87751920  1
  O  O190  1  0.46587393  0.83711503  0.36579596  1
  O  O191  1  0.46426087  0.83155366  0.87919611  1
  O  O192  1  0.81418905  0.17595869  0.37600807  1
  O  O193  1  0.81646479  0.16103891  0.86626189  1
  O  O194  1  0.80706281  0.51021771  0.37010459  1
  O  O195  1  0.80414668  0.51844979  0.87130774  1
  O  O196  1  0.81603728  0.83654240  0.37519422  1
  O  O197  1  0.82379765  0.84875779  0.87108630  1
  O  O198  1  0.03593980  0.01168394  0.36956392  1
  O  O199  1  0.01733610  -0.01238232  0.87728995  1
  O  O200  1  0.01494540  0.33160673  0.38014910  1
  O  O201  1  0.03992715  0.34972238  0.86947885  1
  O  O202  1  0.01390233  0.67238352  0.37740037  1
  O  O203  1  0.03511799  0.68625280  0.88274351  1
  O  O204  1  0.34347545  -0.00260893  0.37825298  1
  O  O205  1  0.34791223  -0.01006078  0.87563001  1
  O  O206  1  0.35954020  0.32505348  0.37751198  1
  O  O207  1  0.34059488  0.33490800  0.87478164  1
  O  O208  1  0.36517195  0.68309066  0.37225737  1
  O  O209  1  0.36183911  0.67888659  0.88230069  1
  O  O210  1  0.68691395  -0.00173368  0.37561621  1
  O  O211  1  0.70990388  0.00241817  0.87544043  1
  O  O212  1  0.70384328  0.33497681  0.36836442  1
  O  O213  1  0.70109956  0.34556667  0.87394629  1
  O  O214  1  0.70686934  0.67829828  0.37102606  1
  O  O215  1  0.69841374  0.67251767  0.88170786  1
  O  O216  1  0.06920915  0.08359423  0.01770820  1
  O  O217  1  0.07241092  0.09907693  0.52338560  1
  O  O218  1  0.06632662  0.44920305  0.01621577  1
  O  O219  1  0.06097650  0.42743249  0.52638774  1
  O  O220  1  0.06711375  0.76024529  0.03508042  1
  O  O221  1  0.06911099  0.76852588  0.50712143  1
  O  O222  1  0.39776068  0.08270743  0.01795928  1
  O  O223  1  0.40267404  0.08806717  0.51447232  1
  O  O224  1  0.40715321  0.43932267  0.02005561  1
  O  O225  1  0.40675321  0.41434254  0.51100480  1
  O  O226  1  0.39956473  0.75423519  0.03424848  1
  O  O227  1  0.40648669  0.75901217  0.51818674  1
  O  O228  1  0.74201692  0.09214245  0.03658033  1
  O  O229  1  0.74976911  0.09189038  0.52176283  1
  O  O230  1  0.73870041  0.43169448  0.01422477  1
  O  O231  1  0.73903537  0.43002872  0.50363017  1
  O  O232  1  0.72989485  0.76321940  0.02567535  1
  O  O233  1  0.74617410  0.76893822  0.51528983  1
  O  O234  1  0.09303458  0.25976583  0.00340267  1
  O  O235  1  0.09159907  0.25719650  0.52311204  1
  O  O236  1  0.10310641  0.60811052  0.02199801  1
  O  O237  1  0.09340987  0.60198382  0.52832662  1
  O  O238  1  0.09321736  0.92834631  0.03440870  1
  O  O239  1  0.10506152  0.93500746  0.51870105  1
  O  O240  1  0.43076531  0.26652055  0.02922440  1
  O  O241  1  0.42993203  0.25761221  0.50787211  1
  O  O242  1  0.42750082  0.59841066  0.02746282  1
  O  O243  1  0.43839875  0.60027448  0.52723554  1
  O  O244  1  0.41411176  0.92019264  0.02670327  1
  O  O245  1  0.41728197  0.92821081  0.51347876  1
  O  O246  1  0.75562307  0.25375885  0.01816664  1
  O  O247  1  0.76809407  0.25439418  0.50954744  1
  O  O248  1  0.76105445  0.60371900  0.01243368  1
  O  O249  1  0.77220905  0.60050722  0.50968898  1
  O  O250  1  0.76669844  0.92534446  0.03324832  1
  O  O251  1  0.77029057  0.93478222  0.51832660  1
  O  O252  1  0.22703223  0.06363643  0.26567809  1
  O  O253  1  0.23101097  0.06624511  0.75647026  1
  O  O254  1  0.23767200  0.40327642  0.26436343  1
  O  O255  1  0.22239462  0.40894329  0.77473216  1
  O  O256  1  0.23708710  0.74634654  0.27233982  1
  O  O257  1  0.23327619  0.74608305  0.78073461  1
  O  O258  1  0.57527698  0.07058977  0.26991474  1
  O  O259  1  0.58187641  0.07905971  0.75852256  1
  O  O260  1  0.57960808  0.40214304  0.28079631  1
  O  O261  1  0.57742931  0.41964400  0.78062860  1
  O  O262  1  0.55934504  0.73533730  0.26991416  1
  O  O263  1  0.57091938  0.73437981  0.77826411  1
  O  O264  1  0.91467375  0.07735610  0.27802441  1
  O  O265  1  0.90569434  0.06493679  0.76805964  1
  O  O266  1  0.89351883  0.40351580  0.27604883  1
  O  O267  1  0.90072652  0.40755593  0.78123389  1
  O  O268  1  0.90248302  0.74134003  0.27708882  1
  O  O269  1  0.90560257  0.74292675  0.77948000  1
  O  O270  1  0.25292894  0.22881489  0.26356920  1
  O  O271  1  0.24355910  0.24174580  0.76354686  1
  O  O272  1  0.26466883  0.57123875  0.25543997  1
  O  O273  1  0.24938873  0.57557002  0.77850561  1
  O  O274  1  0.25934982  0.90024199  0.27516542  1
  O  O275  1  0.25789418  0.90065581  0.77242513  1
  O  O276  1  0.59374569  0.24443857  0.28098053  1
  O  O277  1  0.58799263  0.24787964  0.76270941  1
  O  O278  1  0.59776067  0.57310313  0.27782269  1
  O  O279  1  0.59527479  0.57133594  0.77948452  1
  O  O280  1  0.59434065  0.90036378  0.26131038  1
  O  O281  1  0.59261628  0.90986097  0.76695466  1
  O  O282  1  0.92032890  0.23757870  0.27596908  1
  O  O283  1  0.92240335  0.24082243  0.77030245  1
  O  O284  1  0.91926836  0.57132337  0.26704245  1
  O  O285  1  0.92963612  0.57080485  0.77787127  1
  O  O286  1  0.93994405  0.90002694  0.27409529  1
  O  O287  1  0.93487724  0.90338752  0.77341230  1
  O  O288  1  0.25823346  0.23549223  0.48284602  1
  O  O289  1  0.25343218  0.24207390  0.98352507  1
  O  O290  1  0.25925921  0.57387399  0.48352124  1
  O  O291  1  0.25547388  0.57942233  0.96893469  1
  O  O292  1  0.25962710  0.90496333  0.47259844  1
  O  O293  1  0.26564413  0.89583550  0.98086908  1
  O  O294  1  0.58345867  0.23825884  0.48006146  1
  O  O295  1  0.59351648  0.24374905  0.99272655  1
  O  O296  1  0.60336727  0.56616105  0.46921669  1
  O  O297  1  0.59805669  0.57383518  0.97276241  1
  O  O298  1  0.59500855  0.91444588  0.48614311  1
  O  O299  1  0.59758614  0.90137583  0.99772038  1
  O  O300  1  0.93404200  0.23204055  0.47349810  1
  O  O301  1  0.91889105  0.24429595  0.97247491  1
  O  O302  1  0.93531945  0.57548211  0.49185706  1
  O  O303  1  0.93685055  0.57617359  0.96976448  1
  O  O304  1  0.93364347  0.89981243  0.47547516  1
  O  O305  1  0.94084343  0.89406686  0.98895798  1
  O  O306  1  0.22742075  0.06527718  0.48095657  1
  O  O307  1  0.23709949  0.06325304  0.99284712  1
  O  O308  1  0.24396664  0.39850153  0.48923481  1
  O  O309  1  0.22075906  0.41185885  0.97180784  1
  O  O310  1  0.23716375  0.75020706  0.47792975  1
  O  O311  1  0.23899323  0.73495434  0.97472949  1
  O  O312  1  0.57245685  0.07153209  0.48230190  1
  O  O313  1  0.57658773  0.07340890  0.98905202  1
  O  O314  1  0.57295149  0.40300488  0.46324140  1
  O  O315  1  0.57093963  0.41926938  0.97494662  1
  O  O316  1  0.56912822  0.73408894  0.47252230  1
  O  O317  1  0.56605843  0.72634828  0.98264556  1
  O  O318  1  0.91225917  0.07857781  0.47730733  1
  O  O319  1  0.90171884  0.05622632  0.98204240  1
  O  O320  1  0.90426521  0.39546232  0.47954874  1
  O  O321  1  0.90590535  0.40873231  0.96102985  1
  O  O322  1  0.90425401  0.73933221  0.47189465  1
  O  O323  1  0.90728783  0.73239655  0.97326503  1
  O  O324  1  0.09034561  0.25062491  0.23951509  1
  O  O325  1  0.08769977  0.24818384  0.72933876  1
  O  O326  1  0.09351712  0.59819647  0.21980073  1
  O  O327  1  0.09912260  0.60059396  0.72816261  1
  O  O328  1  0.09711683  0.92960533  0.22192242  1
  O  O329  1  0.09926178  0.93385739  0.72277649  1
  O  O330  1  0.44143840  0.26198776  0.23178371  1
  O  O331  1  0.41724756  0.25430245  0.73460095  1
  O  O332  1  0.42922150  0.59670269  0.21217843  1
  O  O333  1  0.43674019  0.59658954  0.73167245  1
  O  O334  1  0.42358260  0.91864825  0.22352921  1
  O  O335  1  0.41323104  0.92607084  0.73747471  1
  O  O336  1  0.75198977  0.24852202  0.22317469  1
  O  O337  1  0.76933960  0.25418801  0.74132004  1
  O  O338  1  0.76383059  0.58824212  0.23256512  1
  O  O339  1  0.77198468  0.59725997  0.73514030  1
  O  O340  1  0.76735312  0.93081478  0.22939505  1
  O  O341  1  0.77738086  0.93276537  0.72837352  1
  O  O342  1  0.07064680  0.09032573  0.22663634  1
  O  O343  1  0.06886605  0.09081755  0.71850214  1
  O  O344  1  0.06410564  0.43478644  0.22538741  1
  O  O345  1  0.06226348  0.44395600  0.72928705  1
  O  O346  1  0.07132775  0.76793631  0.22921094  1
  O  O347  1  0.07726704  0.76413502  0.73458836  1
  O  O348  1  0.41543306  0.09543913  0.23364756  1
  O  O349  1  0.39873341  0.08150218  0.73611935  1
  O  O350  1  0.41148099  0.42463530  0.22303062  1
  O  O351  1  0.41352546  0.43199388  0.74128521  1
  O  O352  1  0.40536960  0.76619260  0.21887860  1
  O  O353  1  0.40773021  0.75389625  0.73261534  1
  O  O354  1  0.73874737  0.09029503  0.22640135  1
  O  O355  1  0.75697436  0.09008292  0.72078615  1
  O  O356  1  0.73639672  0.42540509  0.23217508  1
  O  O357  1  0.74714561  0.43598473  0.73726370  1
  O  O358  1  0.74090300  0.77379890  0.22636455  1
  O  O359  1  0.74863443  0.76681552  0.73809470  1
