# generated using pymatgen
data_BaLaInIrO6
_symmetry_space_group_name_H-M   'P 1'
_cell_length_a   17.50984492
_cell_length_b   17.52948738
_cell_length_c   16.48307247
_cell_angle_alpha   89.98910851
_cell_angle_beta   89.99668008
_cell_angle_gamma   89.98378273
_symmetry_Int_Tables_number   1
_chemical_formula_structural   BaLaInIrO6
_chemical_formula_sum   'Ba36 La36 In36 Ir36 O216'
_cell_volume   5059.29097758
_cell_formula_units_Z   36
loop_
 _symmetry_equiv_pos_site_id
 _symmetry_equiv_pos_as_xyz
  1  'x, y, z'
loop_
 _atom_site_type_symbol
 _atom_site_label
 _atom_site_symmetry_multiplicity
 _atom_site_fract_x
 _atom_site_fract_y
 _atom_site_fract_z
 _atom_site_occupancy
  Ba  Ba0  1  0.16866996  0.65876130  0.37191838  1
  Ba  Ba1  1  -0.00088016  0.82961452  0.87810805  1
  Ba  Ba2  1  0.16747321  0.99313049  0.87821221  1
  Ba  Ba3  1  0.82991818  0.00493825  0.12304548  1
  Ba  Ba4  1  0.33327064  0.84165680  0.62330684  1
  Ba  Ba5  1  0.83789209  0.00510856  0.62222724  1
  Ba  Ba6  1  -0.00067291  0.15792695  0.87021593  1
  Ba  Ba7  1  0.50062825  0.32178081  0.37510868  1
  Ba  Ba8  1  0.66622239  0.82596227  0.87600868  1
  Ba  Ba9  1  0.66661365  0.82878011  0.37543394  1
  Ba  Ba10  1  0.66127854  0.15648207  0.37489885  1
  Ba  Ba11  1  0.33187169  0.17399979  0.62394310  1
  Ba  Ba12  1  0.50276429  0.99110051  0.37921660  1
  Ba  Ba13  1  0.33148920  0.48979170  0.37345519  1
  Ba  Ba14  1  0.83001519  0.67527702  0.12096583  1
  Ba  Ba15  1  0.67121157  0.50716833  0.62803397  1
  Ba  Ba16  1  0.33390962  0.50596623  0.62659118  1
  Ba  Ba17  1  0.16306707  0.34716756  0.62636703  1
  Ba  Ba18  1  0.16686387  0.67359074  0.12172818  1
  Ba  Ba19  1  0.83588984  0.98982736  0.87247277  1
  Ba  Ba20  1  0.66930711  0.49474753  0.87459873  1
  Ba  Ba21  1  0.83085889  0.99213275  0.37173431  1
  Ba  Ba22  1  0.83222127  0.67100144  0.62418631  1
  Ba  Ba23  1  1.00333260  0.51004317  0.62963935  1
  Ba  Ba24  1  -0.00451842  0.82333732  0.37236933  1
  Ba  Ba25  1  0.33575452  0.17476392  0.12530051  1
  Ba  Ba26  1  0.83467534  0.34465513  0.62639017  1
  Ba  Ba27  1  -0.00029982  0.49292103  0.88145732  1
  Ba  Ba28  1  0.16552460  0.00795159  0.12471448  1
  Ba  Ba29  1  0.66552790  0.51030820  0.12589677  1
  Ba  Ba30  1  0.50116030  0.32689787  0.87017078  1
  Ba  Ba31  1  0.50551127  0.65856931  0.37557249  1
  Ba  Ba32  1  0.83501096  0.65504275  0.37254915  1
  Ba  Ba33  1  0.16842461  0.32614349  0.87043846  1
  Ba  Ba34  1  0.33110729  0.49036804  0.87422872  1
  Ba  Ba35  1  0.99717370  0.84387019  0.12493189  1
  La  La36  1  -0.00590316  0.15608860  0.37510896  1
  La  La37  1  0.32553915  0.81396361  0.87643469  1
  La  La38  1  0.16850039  0.65463585  0.87411868  1
  La  La39  1  0.99997399  0.84418123  0.62524885  1
  La  La40  1  0.49670625  0.68469824  0.11982893  1
  La  La41  1  0.49611243  0.67990507  0.62547881  1
  La  La42  1  0.15881888  0.01463633  0.62836968  1
  La  La43  1  0.16459279  0.34758015  0.12644600  1
  La  La44  1  0.32843005  0.81611670  0.37824634  1
  La  La45  1  0.34055395  0.51481984  0.12231178  1
  La  La46  1  0.49798994  0.34797312  0.62102445  1
  La  La47  1  0.49531432  0.34680677  0.12805243  1
  La  La48  1  0.32611673  0.15249294  0.87221591  1
  La  La49  1  0.82861831  0.34470319  0.12634146  1
  La  La50  1  0.50370496  0.98872366  0.87881686  1
  La  La51  1  0.83556816  0.65183370  0.87648283  1
  La  La52  1  0.17634431  0.98421997  0.37312395  1
  La  La53  1  1.00260523  0.16972138  0.11935771  1
  La  La54  1  -0.00397376  0.48858517  0.37761007  1
  La  La55  1  0.33862772  0.85138555  0.12720031  1
  La  La56  1  0.50398486  0.65275178  0.87164601  1
  La  La57  1  0.84509169  0.32159430  0.87445832  1
  La  La58  1  0.83342545  0.32248205  0.37781290  1
  La  La59  1  0.66713405  0.84639128  0.62098082  1
  La  La60  1  0.49609049  0.01603930  0.62260672  1
  La  La61  1  0.33289005  0.15356570  0.37434155  1
  La  La62  1  0.49644378  0.01651287  0.13161855  1
  La  La63  1  0.66925997  0.84751711  0.12752685  1
  La  La64  1  0.16404223  0.67483005  0.62468826  1
  La  La65  1  0.66704672  0.15220976  0.87253738  1
  La  La66  1  1.00436650  0.51650492  0.12840212  1
  La  La67  1  0.17016932  0.32155127  0.37531082  1
  La  La68  1  0.66685124  0.17672877  0.12231813  1
  La  La69  1  0.66113532  0.48536652  0.38001490  1
  La  La70  1  1.00478701  0.18632759  0.62317721  1
  La  La71  1  0.67100972  0.18309705  0.61957982  1
  In  In72  1  0.16723674  0.83210611  0.75198965  1
  In  In73  1  0.66812417  0.33031243  -0.00223718  1
  In  In74  1  0.16634596  0.16625576  0.75073955  1
  In  In75  1  0.16609833  0.50225597  0.49711844  1
  In  In76  1  0.83328416  0.16628535  0.24856456  1
  In  In77  1  0.33522464  0.66693544  0.24881464  1
  In  In78  1  0.16800108  0.83487039  0.00264031  1
  In  In79  1  0.83409655  0.83153510  0.50080344  1
  In  In80  1  0.33654579  0.33129563  0.74834339  1
  In  In81  1  0.50126451  0.50204476  0.25208694  1
  In  In82  1  0.16799020  0.49866194  0.00334162  1
  In  In83  1  0.50019788  0.83485924  0.25114820  1
  In  In84  1  0.33344894  0.33170739  0.00065389  1
  In  In85  1  0.16947022  0.16743379  0.00257447  1
  In  In86  1  0.83265170  0.16475788  0.74521068  1
  In  In87  1  0.33596332  -0.00425915  0.74941713  1
  In  In88  1  0.49682955  0.83451008  0.75300646  1
  In  In89  1  -0.00178211  0.33182277  0.00596963  1
  In  In90  1  0.83212811  0.83187185  0.24798004  1
  In  In91  1  0.66976830  0.33335403  0.75146082  1
  In  In92  1  -0.00069959  0.66580067  0.50074891  1
  In  In93  1  0.16515666  0.16488293  0.49467004  1
  In  In94  1  0.66521642  0.66607379  0.50002234  1
  In  In95  1  0.83213526  0.49841062  0.00380113  1
  In  In96  1  0.66622055  0.00361878  0.50241416  1
  In  In97  1  0.50088498  0.49991177  -0.00199243  1
  In  In98  1  0.16737409  0.83586744  0.50247919  1
  In  In99  1  0.16605351  0.83214686  0.24883165  1
  In  In100  1  -0.00078218  0.33164123  0.25112581  1
  In  In101  1  0.66528550  0.33119260  0.24920444  1
  In  In102  1  0.00340234  0.00317612  0.49567962  1
  In  In103  1  0.83269846  0.83082603  0.74969028  1
  In  In104  1  0.66485183  0.66986932  0.74919158  1
  In  In105  1  -0.00097063  0.67033554  -0.00050139  1
  In  In106  1  0.50099839  0.16900358  -0.00368476  1
  In  In107  1  0.33302375  0.33126576  0.49739013  1
  Ir  Ir108  1  0.50125850  0.16699110  0.50384704  1
  Ir  Ir109  1  0.00084976  0.65948132  0.25052631  1
  Ir  Ir110  1  -0.00572757  0.00307095  0.00112433  1
  Ir  Ir111  1  0.66047878  0.00160115  0.75175809  1
  Ir  Ir112  1  0.00451062  0.00665598  0.24808959  1
  Ir  Ir113  1  0.83292705  0.16393817  0.00226914  1
  Ir  Ir114  1  0.50240606  0.49996661  0.50155909  1
  Ir  Ir115  1  0.16604433  0.16834651  0.25106245  1
  Ir  Ir116  1  0.33310370  0.66303725  0.74956457  1
  Ir  Ir117  1  0.83740225  0.50241384  0.74931031  1
  Ir  Ir118  1  0.33524041  -0.00026952  0.49653218  1
  Ir  Ir119  1  0.00062856  -0.00039794  0.74937904  1
  Ir  Ir120  1  0.50241887  0.16515973  0.74875682  1
  Ir  Ir121  1  -0.00014184  0.33648878  0.49766851  1
  Ir  Ir122  1  0.66650099  0.33278190  0.50062129  1
  Ir  Ir123  1  0.33542137  0.00377634  0.25268054  1
  Ir  Ir124  1  0.49668414  0.83252515  0.50310505  1
  Ir  Ir125  1  0.33756551  0.66553844  0.50376724  1
  Ir  Ir126  1  0.66214480  -0.00042421  -0.00270821  1
  Ir  Ir127  1  0.49834904  0.16553560  0.25102445  1
  Ir  Ir128  1  0.50146707  0.50223971  0.74587565  1
  Ir  Ir129  1  0.66621155  0.66463928  0.24653742  1
  Ir  Ir130  1  0.66376656  0.67121164  -0.00064696  1
  Ir  Ir131  1  0.66038555  0.00198246  0.24459586  1
  Ir  Ir132  1  0.83118639  0.49467768  0.49712702  1
  Ir  Ir133  1  0.00010517  0.66739354  0.75220776  1
  Ir  Ir134  1  0.16663501  0.50555577  0.75076232  1
  Ir  Ir135  1  -0.00022781  0.33782121  0.74998027  1
  Ir  Ir136  1  0.33743045  0.66812232  -0.00223132  1
  Ir  Ir137  1  0.83373195  0.49800255  0.25433358  1
  Ir  Ir138  1  0.34215576  -0.00241668  0.00379844  1
  Ir  Ir139  1  0.49785349  0.83490194  -0.00005283  1
  Ir  Ir140  1  0.16598902  0.49642957  0.24865813  1
  Ir  Ir141  1  0.82631459  0.83494096  -0.00061902  1
  Ir  Ir142  1  0.32881010  0.32998741  0.24922860  1
  Ir  Ir143  1  0.83484927  0.17163566  0.49900255  1
  O  O144  1  0.29912938  0.32523214  0.13258258  1
  O  O145  1  0.31496410  0.33280886  0.62309632  1
  O  O146  1  0.31624898  0.65947823  0.11716786  1
  O  O147  1  0.30196154  0.66172492  0.62818737  1
  O  O148  1  0.31416314  0.98842676  0.12745784  1
  O  O149  1  0.29925710  0.99739671  0.61469517  1
  O  O150  1  0.63063877  0.31496837  0.12439203  1
  O  O151  1  0.63581395  0.32651174  0.62178879  1
  O  O152  1  0.63318675  0.66453411  0.12162332  1
  O  O153  1  0.63032887  0.65922594  0.62493658  1
  O  O154  1  0.63114807  0.99175525  0.11945293  1
  O  O155  1  0.63066571  0.99034940  0.63274900  1
  O  O156  1  0.96129647  0.31076235  0.13057204  1
  O  O157  1  0.98089834  0.32483788  0.62139915  1
  O  O158  1  0.98136364  0.65458444  0.13106906  1
  O  O159  1  0.98189626  0.66480024  0.63385716  1
  O  O160  1  0.97770455  1.01464661  0.12472591  1
  O  O161  1  0.99065728  0.98896062  0.62922150  1
  O  O162  1  0.18806958  0.15989510  0.13337574  1
  O  O163  1  0.18079993  0.15326515  0.62197856  1
  O  O164  1  0.20238755  0.49029017  0.13245039  1
  O  O165  1  0.17984378  0.50624318  0.63005775  1
  O  O166  1  0.20221124  0.83626396  0.12585153  1
  O  O167  1  0.18571271  0.81604230  0.62760743  1
  O  O168  1  0.52889171  0.15541842  0.12918924  1
  O  O169  1  0.53546870  0.15573981  0.62701072  1
  O  O170  1  0.51682701  0.48618514  0.12592621  1
  O  O171  1  0.52390515  0.48818564  0.62271668  1
  O  O172  1  0.53174781  0.82428295  0.11730258  1
  O  O173  1  0.52759253  0.82251228  0.62386912  1
  O  O174  1  0.86630394  0.15885370  0.12118047  1
  O  O175  1  0.86871393  0.16552929  0.61710603  1
  O  O176  1  0.86754854  0.48887864  0.13562664  1
  O  O177  1  0.85559968  0.50006625  0.62206926  1
  O  O178  1  0.84417312  0.83594512  0.11978132  1
  O  O179  1  0.86783243  0.83003127  0.62780541  1
  O  O180  1  0.13247153  0.18056709  0.36798350  1
  O  O181  1  0.14961481  0.16363812  0.87712921  1
  O  O182  1  0.13364962  0.50120746  0.36686161  1
  O  O183  1  0.15190257  0.51248098  0.87189380  1
  O  O184  1  0.14991456  0.84518070  0.37522531  1
  O  O185  1  0.15404671  0.83161197  0.87710215  1
  O  O186  1  0.46881751  0.16929479  0.37861191  1
  O  O187  1  0.46518424  0.16933962  0.86729312  1
  O  O188  1  0.48053635  0.50340635  0.38200464  1
  O  O189  1  0.47914604  0.51267395  0.86698097  1
  O  O190  1  0.46607608  0.83454830  0.38108329  1
  O  O191  1  0.46058026  0.84791278  0.88182696  1
  O  O192  1  0.80850190  0.17965510  0.38006183  1
  O  O193  1  0.80397610  0.17529219  0.87946566  1
  O  O194  1  0.79981734  0.49440472  0.37566522  1
  O  O195  1  0.82062938  0.50853622  0.87023408  1
  O  O196  1  0.81761074  0.83755803  0.37178242  1
  O  O197  1  0.81444592  0.83616197  0.87866348  1
  O  O198  1  0.03720613  0.01441829  0.36649804  1
  O  O199  1  0.01670205  -0.00015345  0.87622599  1
  O  O200  1  0.03122606  0.34666120  0.37782176  1
  O  O201  1  0.01501813  0.33394761  0.87137519  1
  O  O202  1  0.01797454  0.65480722  0.36908455  1
  O  O203  1  0.03027919  0.66860202  0.86970285  1
  O  O204  1  0.35845603  0.01652519  0.37420902  1
  O  O205  1  0.36807389  0.01121440  0.88281747  1
  O  O206  1  0.35182291  0.33305879  0.36739019  1
  O  O207  1  0.35320744  0.33794115  0.87333118  1
  O  O208  1  0.35778326  0.67499051  0.38170069  1
  O  O209  1  0.36692570  0.67342854  0.87367719  1
  O  O210  1  0.67870867  0.00217318  0.36770195  1
  O  O211  1  0.68846873  0.01402850  0.87454784  1
  O  O212  1  0.69553142  0.33730852  0.37858627  1
  O  O213  1  0.70834577  0.33150971  0.87423063  1
  O  O214  1  0.68397167  0.67255586  0.36706043  1
  O  O215  1  0.69708136  0.67263621  0.87981783  1
  O  O216  1  0.06495199  0.09457909  0.01680327  1
  O  O217  1  0.06011155  0.10771764  0.51786802  1
  O  O218  1  0.06780213  0.42804202  0.03594933  1
  O  O219  1  0.06312662  0.43069609  0.51127507  1
  O  O220  1  0.07511442  0.75991803  0.02007302  1
  O  O221  1  0.06812542  0.76774386  0.52281824  1
  O  O222  1  0.41429191  0.08472366  0.02582379  1
  O  O223  1  0.40800631  0.09304249  0.52083059  1
  O  O224  1  0.39906375  0.43351056  0.02638334  1
  O  O225  1  0.41536201  0.42518143  0.51714668  1
  O  O226  1  0.40405360  0.76635042  0.02678773  1
  O  O227  1  0.41015846  0.75511169  0.52579371  1
  O  O228  1  0.73111997  0.09598919  0.02276876  1
  O  O229  1  0.74193323  0.10268485  0.52471721  1
  O  O230  1  0.74627630  0.41843359  0.03251702  1
  O  O231  1  0.73347246  0.42826261  0.51136979  1
  O  O232  1  0.73048529  0.76692653  0.02407821  1
  O  O233  1  0.73148395  0.76375297  0.52595129  1
  O  O234  1  0.09355229  0.25974070  0.03392244  1
  O  O235  1  0.09030107  0.26744133  0.51338213  1
  O  O236  1  0.08939098  0.58777539  0.01606478  1
  O  O237  1  0.10193694  0.60329403  0.51943051  1
  O  O238  1  0.08413547  0.93148516  0.01552482  1
  O  O239  1  0.11292971  0.94597909  0.51572861  1
  O  O240  1  0.43929685  0.26914846  0.02758074  1
  O  O241  1  0.43594395  0.26078743  0.52215376  1
  O  O242  1  0.43036334  0.60204691  0.02158860  1
  O  O243  1  0.43545298  0.59521394  0.52822493  1
  O  O244  1  0.43469557  0.92895712  0.03263317  1
  O  O245  1  0.42995324  0.93173566  0.52625546  1
  O  O246  1  0.76634453  0.25228763  0.03386422  1
  O  O247  1  0.75876168  0.26088864  0.52363651  1
  O  O248  1  0.75205840  0.59681667  0.01219104  1
  O  O249  1  0.76207473  0.58530537  0.51162387  1
  O  O250  1  0.74693047  0.92241247  0.02250942  1
  O  O251  1  0.75100211  0.92294869  0.52282872  1
  O  O252  1  0.23717381  0.07433785  0.27998095  1
  O  O253  1  0.24628829  0.07198609  0.76774401  1
  O  O254  1  0.22910869  0.39481929  0.27096497  1
  O  O255  1  0.23836981  0.41595643  0.76183219  1
  O  O256  1  0.25102901  0.74846746  0.27390486  1
  O  O257  1  0.23960151  0.72791962  0.77567154  1
  O  O258  1  0.56317748  0.06793909  0.26166839  1
  O  O259  1  0.56686374  0.07027429  0.77920563  1
  O  O260  1  0.57828212  0.41042220  0.27182960  1
  O  O261  1  0.57506890  0.41231808  0.76112804  1
  O  O262  1  0.57278014  0.73175492  0.25468866  1
  O  O263  1  0.56370158  0.73708277  0.77757072  1
  O  O264  1  0.91697531  0.07909338  0.27357534  1
  O  O265  1  0.90889849  0.07115576  0.76143545  1
  O  O266  1  0.90131289  0.40706511  0.28209539  1
  O  O267  1  0.90578410  0.40800296  0.77336502  1
  O  O268  1  0.91344643  0.73482293  0.26014324  1
  O  O269  1  0.90336795  0.72825603  0.77689010  1
  O  O270  1  0.26105992  0.23399008  0.27961123  1
  O  O271  1  0.26612426  0.23417193  0.77059067  1
  O  O272  1  0.25647899  0.56916735  0.26404154  1
  O  O273  1  0.25682279  0.57717851  0.77303076  1
  O  O274  1  0.26956345  0.91143474  0.27643334  1
  O  O275  1  0.27244558  0.89509939  0.77542046  1
  O  O276  1  0.58830782  0.23343920  0.26545040  1
  O  O277  1  0.59634813  0.22860283  0.77271149  1
  O  O278  1  0.60496198  0.57027806  0.27234423  1
  O  O279  1  0.58577679  0.57601747  0.76983377  1
  O  O280  1  0.59457746  0.90785063  0.25781297  1
  O  O281  1  0.59039636  0.91466248  0.77630314  1
  O  O282  1  0.92430364  0.24278737  0.28832956  1
  O  O283  1  0.92180347  0.25214944  0.76402387  1
  O  O284  1  0.93294010  0.56165271  0.27100252  1
  O  O285  1  0.92904616  0.57557688  0.77393894  1
  O  O286  1  0.93051381  0.91856055  0.26126108  1
  O  O287  1  0.93256188  0.90775946  0.76036631  1
  O  O288  1  0.26101927  0.23462428  0.46903735  1
  O  O289  1  0.27302198  0.22709390  0.97794250  1
  O  O290  1  0.26688559  0.57763233  0.48471650  1
  O  O291  1  0.26650337  0.57737851  0.98530568  1
  O  O292  1  0.27195382  0.90663753  0.46952815  1
  O  O293  1  0.27824019  0.90211865  0.98341795  1
  O  O294  1  0.59858912  0.23517201  0.49007670  1
  O  O295  1  0.60747460  0.22463726  0.97697799  1
  O  O296  1  0.59573180  0.56546098  0.47766138  1
  O  O297  1  0.59108490  0.58525390  0.97607259  1
  O  O298  1  0.58540361  0.90341733  0.49094305  1
  O  O299  1  0.58616091  0.91015888  0.97162964  1
  O  O300  1  0.93081723  0.24098450  0.47395518  1
  O  O301  1  0.92006965  0.23447117  0.97864606  1
  O  O302  1  0.92712118  0.55798305  0.47875170  1
  O  O303  1  0.91846902  0.58022949  0.98717445  1
  O  O304  1  0.93329996  0.90845933  0.49160660  1
  O  O305  1  0.92094584  0.90660327  0.98646540  1
  O  O306  1  0.24158982  0.06754250  0.46835874  1
  O  O307  1  0.25323118  0.06787120  0.98496612  1
  O  O308  1  0.23304484  0.40289204  0.47498721  1
  O  O309  1  0.22881356  0.39643008  0.99460800  1
  O  O310  1  0.25035277  0.74072757  0.48367460  1
  O  O311  1  0.24556409  0.73408775  0.97121021  1
  O  O312  1  0.56923254  0.07497437  0.49173578  1
  O  O313  1  0.57298324  0.06870561  0.97206367  1
  O  O314  1  0.57571137  0.40766109  0.47699258  1
  O  O315  1  0.57445747  0.40604827  0.98163958  1
  O  O316  1  0.56513388  0.74322943  0.48666667  1
  O  O317  1  0.56211377  0.73732146  0.97615559  1
  O  O318  1  0.90564416  0.08396042  0.47297982  1
  O  O319  1  0.90206114  0.07455063  0.98014939  1
  O  O320  1  0.90168302  0.40015118  0.47208268  1
  O  O321  1  0.89849578  0.39682747  0.98208913  1
  O  O322  1  0.90459218  0.73420402  0.48382739  1
  O  O323  1  0.89585349  0.74271358  0.97872830  1
  O  O324  1  0.10268226  0.26312102  0.22777772  1
  O  O325  1  0.08351989  0.25879899  0.72912323  1
  O  O326  1  0.09246565  0.58433409  0.22223388  1
  O  O327  1  0.10269197  0.60712497  0.73466607  1
  O  O328  1  0.09220622  0.93260701  0.23543893  1
  O  O329  1  0.09657349  0.93320880  0.72939368  1
  O  O330  1  0.42929664  0.26616054  0.22735855  1
  O  O331  1  0.44319054  0.25964611  0.71946675  1
  O  O332  1  0.42994886  0.59616361  0.22066702  1
  O  O333  1  0.43212347  0.59850654  0.72553108  1
  O  O334  1  0.42643798  0.93368882  0.22434756  1
  O  O335  1  0.43619269  0.93474175  0.72355935  1
  O  O336  1  0.76169478  0.26101133  0.22139390  1
  O  O337  1  0.75271535  0.25049405  0.71796291  1
  O  O338  1  0.76292654  0.59182995  0.23086719  1
  O  O339  1  0.76524285  0.59290138  0.74314987  1
  O  O340  1  0.74747617  0.92760507  0.22892673  1
  O  O341  1  0.74830820  0.92962260  0.72913947  1
  O  O342  1  0.06763870  0.10661783  0.22837504  1
  O  O343  1  0.06775604  0.09144335  0.72314394  1
  O  O344  1  0.07296442  0.42815593  0.22129225  1
  O  O345  1  0.07515767  0.42940008  0.73792050  1
  O  O346  1  0.07343680  0.74907608  0.23530898  1
  O  O347  1  0.06417706  0.76123521  0.72845372  1
  O  O348  1  0.40529008  0.09650328  0.23471561  1
  O  O349  1  0.41469884  0.09503534  0.72650731  1
  O  O350  1  0.39614630  0.42333586  0.22356241  1
  O  O351  1  0.41988511  0.42458095  0.72863355  1
  O  O352  1  0.40783728  0.76477684  0.21824920  1
  O  O353  1  0.40201433  0.75311697  0.73245464  1
  O  O354  1  0.72985472  0.09517851  0.22533814  1
  O  O355  1  0.72673534  0.09369401  0.72811897  1
  O  O356  1  0.74791788  0.42532370  0.23115634  1
  O  O357  1  0.75032321  0.42883507  0.73582823  1
  O  O358  1  0.72952437  0.75985603  0.22374337  1
  O  O359  1  0.73091025  0.76800325  0.72207395  1
