# generated using pymatgen
data_BaLaInIrO6
_symmetry_space_group_name_H-M   'P 1'
_cell_length_a   17.54338516
_cell_length_b   17.59395905
_cell_length_c   16.52332662
_cell_angle_alpha   90.03779010
_cell_angle_beta   89.98581262
_cell_angle_gamma   89.98100323
_symmetry_Int_Tables_number   1
_chemical_formula_structural   BaLaInIrO6
_chemical_formula_sum   'Ba36 La36 In36 Ir36 O216'
_cell_volume   5100.04879358
_cell_formula_units_Z   36
loop_
 _symmetry_equiv_pos_site_id
 _symmetry_equiv_pos_as_xyz
  1  'x, y, z'
loop_
 _atom_site_type_symbol
 _atom_site_label
 _atom_site_symmetry_multiplicity
 _atom_site_fract_x
 _atom_site_fract_y
 _atom_site_fract_z
 _atom_site_occupancy
  Ba  Ba0  1  0.83430454  0.66414244  0.87880154  1
  Ba  Ba1  1  0.66724524  0.16055398  0.37196276  1
  Ba  Ba2  1  0.50236600  0.67549172  0.13209545  1
  Ba  Ba3  1  0.16478556  0.67775013  0.62376888  1
  Ba  Ba4  1  0.66438918  0.17286927  0.62312551  1
  Ba  Ba5  1  -0.00117649  0.15112257  0.87394221  1
  Ba  Ba6  1  0.66756309  0.51279302  0.62787506  1
  Ba  Ba7  1  0.83500414  0.32670231  0.37036039  1
  Ba  Ba8  1  0.66722147  0.82498065  0.37644962  1
  Ba  Ba9  1  0.16760678  0.01046690  0.62669770  1
  Ba  Ba10  1  0.66517809  0.49773236  0.37605075  1
  Ba  Ba11  1  0.33250343  0.82738100  0.37948742  1
  Ba  Ba12  1  0.33552706  0.17657056  0.62576805  1
  Ba  Ba13  1  0.66710198  0.15832475  0.87577372  1
  Ba  Ba14  1  0.66319784  0.50933772  0.12689574  1
  Ba  Ba15  1  0.66142575  0.17093743  0.12518275  1
  Ba  Ba16  1  1.00134189  0.84371458  0.12441404  1
  Ba  Ba17  1  -0.00308055  0.49396865  0.37159547  1
  Ba  Ba18  1  0.49627514  0.33917818  0.62617678  1
  Ba  Ba19  1  0.67145160  0.83611016  0.12724964  1
  Ba  Ba20  1  0.33224976  0.82395909  0.87543116  1
  Ba  Ba21  1  0.16514758  0.34077106  0.62445833  1
  Ba  Ba22  1  0.32892302  0.49588290  0.37608242  1
  Ba  Ba23  1  0.49793996  0.98961407  0.87465599  1
  Ba  Ba24  1  0.33202048  0.16043247  0.37432313  1
  Ba  Ba25  1  0.50543770  0.99392294  0.37853564  1
  Ba  Ba26  1  0.49731563  0.32132001  0.87376311  1
  Ba  Ba27  1  0.49866497  0.65908170  0.38029112  1
  Ba  Ba28  1  0.83339945  0.65599806  0.37947852  1
  Ba  Ba29  1  1.00665385  0.17692624  0.62307128  1
  Ba  Ba30  1  0.49889420  0.67031014  0.62421184  1
  Ba  Ba31  1  0.83398702  0.34259643  0.11982158  1
  Ba  Ba32  1  0.16892081  0.32306796  0.37129875  1
  Ba  Ba33  1  0.49860808  0.00976092  0.62542498  1
  Ba  Ba34  1  0.16986244  0.65849957  0.37513139  1
  Ba  Ba35  1  0.83506626  0.99299640  0.37508556  1
  La  La36  1  0.17290745  0.98036111  0.87543081  1
  La  La37  1  0.50281974  0.00779194  0.12966127  1
  La  La38  1  0.49510584  0.34907145  0.12241697  1
  La  La39  1  1.00663167  0.18192730  0.12434555  1
  La  La40  1  0.32984735  0.48402258  0.87176172  1
  La  La41  1  0.82819357  0.68411638  0.62365164  1
  La  La42  1  0.33810235  0.84869581  0.62490524  1
  La  La43  1  0.66024756  0.48486870  0.88166198  1
  La  La44  1  0.15988596  0.01597539  0.12185138  1
  La  La45  1  0.50848767  0.32197459  0.37626237  1
  La  La46  1  0.33881746  0.18222224  0.11956130  1
  La  La47  1  1.00637402  0.84840123  0.62978862  1
  La  La48  1  0.66742823  0.84461065  0.62236794  1
  La  La49  1  0.17152618  0.65105206  0.87315587  1
  La  La50  1  0.83081922  0.01620826  0.62724608  1
  La  La51  1  -0.00403809  0.15159553  0.37695878  1
  La  La52  1  0.66615426  0.82053976  0.87350014  1
  La  La53  1  0.17120785  0.99054853  0.37588032  1
  La  La54  1  1.00177130  0.51318632  0.62084251  1
  La  La55  1  0.33603004  0.51189112  0.62435303  1
  La  La56  1  0.82891238  0.67176436  0.14313911  1
  La  La57  1  -0.00435103  0.48573893  0.87293032  1
  La  La58  1  0.16443690  0.68391616  0.12750709  1
  La  La59  1  0.82735322  0.34985953  0.62194221  1
  La  La60  1  0.32784852  0.14577119  0.87055532  1
  La  La61  1  0.15937352  0.34931235  0.12405834  1
  La  La62  1  1.00178524  0.52154949  0.12234816  1
  La  La63  1  0.33440849  0.51642921  0.12443221  1
  La  La64  1  0.33893419  0.84583307  0.13081111  1
  La  La65  1  0.17263228  0.31002621  0.87489433  1
  La  La66  1  0.84005935  0.98441935  0.87722075  1
  La  La67  1  0.83386665  0.01393872  0.12484388  1
  La  La68  1  0.50715029  0.65764964  0.87694534  1
  La  La69  1  0.83294662  0.31852012  0.87148936  1
  La  La70  1  0.00076904  0.82178328  0.87412248  1
  La  La71  1  -0.00437347  0.81462154  0.38042007  1
  In  In72  1  0.66832686  -0.00279777  0.24750779  1
  In  In73  1  0.49876211  0.49868231  0.50265743  1
  In  In74  1  0.33107838  0.66885473  0.24956793  1
  In  In75  1  0.66949172  -0.00153048  0.75250317  1
  In  In76  1  0.33277020  0.00027708  0.49736546  1
  In  In77  1  0.83753699  0.16774026  0.24694807  1
  In  In78  1  0.00172264  0.33425663  0.74862433  1
  In  In79  1  0.66716345  0.33307511  0.74773283  1
  In  In80  1  0.00072952  -0.00257842  0.50027091  1
  In  In81  1  0.66877078  0.66699375  0.00273586  1
  In  In82  1  0.00128844  0.66627989  0.75116649  1
  In  In83  1  0.16669015  0.49945673  -0.00303944  1
  In  In84  1  0.00286140  0.33544483  -0.00365013  1
  In  In85  1  0.49486177  0.49965221  0.25099535  1
  In  In86  1  0.33179029  0.33607330  0.49791460  1
  In  In87  1  0.16487961  0.49918857  0.24865802  1
  In  In88  1  0.67055845  -0.00405013  -0.00050051  1
  In  In89  1  0.83189963  0.50372066  -0.00226141  1
  In  In90  1  0.33084966  0.66980192  0.50390196  1
  In  In91  1  0.33204673  0.66873618  0.75262928  1
  In  In92  1  0.66527040  0.33183749  -0.00014635  1
  In  In93  1  0.83471117  0.49779519  0.24950512  1
  In  In94  1  0.83585762  0.17047361  0.50074073  1
  In  In95  1  0.66483957  0.33359386  0.24603332  1
  In  In96  1  0.49470348  0.16719776  0.24717349  1
  In  In97  1  0.49885031  0.16901040  0.50048307  1
  In  In98  1  0.16485947  0.16792101  0.49620741  1
  In  In99  1  0.49992471  0.50044024  0.75341991  1
  In  In100  1  0.66981303  0.00014686  0.50087383  1
  In  In101  1  0.16425087  0.83681973  0.25124026  1
  In  In102  1  0.49921928  0.83137819  0.00140233  1
  In  In103  1  0.83849263  0.83200676  0.00376977  1
  In  In104  1  0.83810466  0.16458688  -0.00001741  1
  In  In105  1  0.83267003  0.50371301  0.75312843  1
  In  In106  1  0.33003559  -0.00068745  0.00471894  1
  In  In107  1  0.49956478  0.83058151  0.74912586  1
  Ir  Ir108  1  0.00847299  0.67007660  0.00004336  1
  Ir  Ir109  1  0.16552604  0.16235197  0.75532098  1
  Ir  Ir110  1  0.66960467  0.33720384  0.49967463  1
  Ir  Ir111  1  0.32927869  -0.00097214  0.75178381  1
  Ir  Ir112  1  -0.00226326  0.33700689  0.49722937  1
  Ir  Ir113  1  0.84081653  0.83089503  0.50245280  1
  Ir  Ir114  1  -0.00100162  0.66960501  0.24734112  1
  Ir  Ir115  1  0.32733533  -0.00034697  0.24748687  1
  Ir  Ir116  1  0.49927798  0.83513022  0.25245418  1
  Ir  Ir117  1  0.67053783  0.67154809  0.74821662  1
  Ir  Ir118  1  0.16774452  0.83034139  -0.00211343  1
  Ir  Ir119  1  0.33041733  0.66623213  -0.00210576  1
  Ir  Ir120  1  0.66618346  0.67138581  0.25692147  1
  Ir  Ir121  1  0.32789150  0.33027894  -0.00198517  1
  Ir  Ir122  1  0.16384619  0.83480509  0.75082248  1
  Ir  Ir123  1  0.49228738  0.16647382  -0.00282194  1
  Ir  Ir124  1  0.32684316  0.33235627  0.75666401  1
  Ir  Ir125  1  0.00105913  -0.00288843  0.75525993  1
  Ir  Ir126  1  0.49007040  0.50177947  -0.00192287  1
  Ir  Ir127  1  0.00608712  -0.00278235  -0.00127019  1
  Ir  Ir128  1  0.83801321  0.83562574  0.74668281  1
  Ir  Ir129  1  0.83823322  0.16530325  0.74968329  1
  Ir  Ir130  1  0.84243641  0.83183652  0.25463041  1
  Ir  Ir131  1  0.16995006  0.16376232  0.00090422  1
  Ir  Ir132  1  0.16434803  0.49892002  0.74984838  1
  Ir  Ir133  1  0.83721845  0.50059724  0.50326272  1
  Ir  Ir134  1  0.32797585  0.32988804  0.23802655  1
  Ir  Ir135  1  0.16187910  0.83421517  0.50603098  1
  Ir  Ir136  1  0.67030071  0.67063773  0.50460886  1
  Ir  Ir137  1  -0.00283867  0.66576742  0.50235558  1
  Ir  Ir138  1  0.16713055  0.16432022  0.24255267  1
  Ir  Ir139  1  0.00518874  -0.00045428  0.24558132  1
  Ir  Ir140  1  0.00553611  0.33114363  0.24953967  1
  Ir  Ir141  1  0.50302318  0.83155095  0.50178384  1
  Ir  Ir142  1  0.16130454  0.49953403  0.50394441  1
  Ir  Ir143  1  0.49395194  0.16699149  0.75573664  1
  O  O144  1  0.29345999  0.31686373  0.11645242  1
  O  O145  1  0.31339164  0.32994004  0.63809110  1
  O  O146  1  0.29674819  0.65675339  0.11388422  1
  O  O147  1  0.30932654  0.64929495  0.62889221  1
  O  O148  1  0.29546525  0.98597516  0.12955494  1
  O  O149  1  0.31596019  0.98991488  0.63016171  1
  O  O150  1  0.62833624  0.33176233  0.11996603  1
  O  O151  1  0.65002484  0.33403683  0.61806540  1
  O  O152  1  0.65519767  0.67581372  0.13612810  1
  O  O153  1  0.65116163  0.67852958  0.62654278  1
  O  O154  1  0.63506564  0.98825410  0.12223312  1
  O  O155  1  0.65282852  0.98252173  0.62778992  1
  O  O156  1  0.98828016  0.31966908  0.12998763  1
  O  O157  1  0.97003871  0.33408075  0.61806110  1
  O  O158  1  0.97032193  0.66186235  0.12315075  1
  O  O159  1  0.96784059  0.65704335  0.62283956  1
  O  O160  1  0.97304592  0.99580260  0.12197093  1
  O  O161  1  0.96928615  0.98750783  0.63436809  1
  O  O162  1  0.20197219  0.15227412  0.12102284  1
  O  O163  1  0.18217781  0.16421037  0.63463048  1
  O  O164  1  0.19894087  0.48671957  0.11956394  1
  O  O165  1  0.19579095  0.49545055  0.62944832  1
  O  O166  1  0.19842482  0.82334164  0.11706502  1
  O  O167  1  0.19707245  0.83152018  0.62850186  1
  O  O168  1  0.50604806  0.15454628  0.11569813  1
  O  O169  1  0.50793308  0.17019063  0.63644319  1
  O  O170  1  0.51074297  0.48983244  0.11685389  1
  O  O171  1  0.51756299  0.49494634  0.62888980  1
  O  O172  1  0.51726473  0.83624031  0.13302185  1
  O  O173  1  0.53035954  0.83071329  0.62090902  1
  O  O174  1  0.87563518  0.15178349  0.12443374  1
  O  O175  1  0.86024724  0.15718487  0.63191545  1
  O  O176  1  0.86739814  0.50256075  0.12288057  1
  O  O177  1  0.86517060  0.49350223  0.62322799  1
  O  O178  1  0.85636768  0.80983917  0.13373386  1
  O  O179  1  0.87218986  0.82075596  0.62413407  1
  O  O180  1  0.13335397  0.16714486  0.36049980  1
  O  O181  1  0.14540404  0.17276609  0.87985934  1
  O  O182  1  0.14498362  0.50273351  0.38168478  1
  O  O183  1  0.13227640  0.51051218  0.87034559  1
  O  O184  1  0.13264354  0.84547385  0.38375457  1
  O  O185  1  0.13473627  0.84276422  0.87429129  1
  O  O186  1  0.48001760  0.18053507  0.37172027  1
  O  O187  1  0.46458716  0.16646097  0.87689338  1
  O  O188  1  0.48085048  0.49744821  0.37647844  1
  O  O189  1  0.46397846  0.51567618  0.88099634  1
  O  O190  1  0.47951434  0.83420981  0.37783161  1
  O  O191  1  0.48124158  0.82394397  0.87524429  1
  O  O192  1  0.82236009  0.16711236  0.37325695  1
  O  O193  1  0.81895309  0.17356404  0.86812017  1
  O  O194  1  0.82010942  0.50059387  0.38206275  1
  O  O195  1  0.79293613  0.51591501  0.87429605  1
  O  O196  1  0.81842079  0.83800029  0.37966186  1
  O  O197  1  0.80689562  0.84621427  0.86552419  1
  O  O198  1  0.03569709  0.00716213  0.36523773  1
  O  O199  1  0.03759460  -0.00239802  0.87746363  1
  O  O200  1  0.02264376  0.34236627  0.37334027  1
  O  O201  1  0.04191317  0.35028566  0.87354147  1
  O  O202  1  0.02341109  0.67649067  0.37424748  1
  O  O203  1  0.03894216  0.68120843  0.87970503  1
  O  O204  1  0.35230471  0.00143980  0.36483807  1
  O  O205  1  0.34399879  0.00352451  0.87369034  1
  O  O206  1  0.36085167  0.33757529  0.35521105  1
  O  O207  1  0.34901832  0.34457064  0.87761232  1
  O  O208  1  0.34346721  0.66980966  0.37704733  1
  O  O209  1  0.36631780  0.67222921  0.88202928  1
  O  O210  1  0.68398278  -0.00239894  0.37396943  1
  O  O211  1  0.70343627  0.00198647  0.87410656  1
  O  O212  1  0.68461493  0.33820552  0.38161068  1
  O  O213  1  0.69680132  0.34169027  0.87297564  1
  O  O214  1  0.68558234  0.66590716  0.38131461  1
  O  O215  1  0.68621291  0.68082507  0.86722081  1
  O  O216  1  0.07305332  0.09579932  0.02808320  1
  O  O217  1  0.07243338  0.09409030  0.50643110  1
  O  O218  1  0.06613923  0.43523725  0.02839571  1
  O  O219  1  0.06328781  0.43307174  0.52349740  1
  O  O220  1  0.08052363  0.75872937  0.02610485  1
  O  O221  1  0.06254093  0.76512055  0.52510104  1
  O  O222  1  0.39269648  0.10455743  0.01063973  1
  O  O223  1  0.40727763  0.09036881  0.51434456  1
  O  O224  1  0.39017599  0.43299638  0.01772493  1
  O  O225  1  0.39429942  0.43288605  0.52662028  1
  O  O226  1  0.39098220  0.76142928  0.02932675  1
  O  O227  1  0.40827739  0.76699651  0.52575832  1
  O  O228  1  0.74647873  0.08932570  0.02404183  1
  O  O229  1  0.75297641  0.08538963  0.52705506  1
  O  O230  1  0.73049102  0.43588632  0.01029595  1
  O  O231  1  0.74551029  0.42886806  0.52533170  1
  O  O232  1  0.73714965  0.76812607  -0.00155056  1
  O  O233  1  0.74533251  0.76391869  0.52854264  1
  O  O234  1  0.10938533  0.26204522  0.02055612  1
  O  O235  1  0.08703748  0.26829949  0.51056626  1
  O  O236  1  0.09917788  0.60178651  0.02701549  1
  O  O237  1  0.08398047  0.58908166  0.52833415  1
  O  O238  1  0.10454774  0.93117160  0.02049823  1
  O  O239  1  0.08959301  0.91927674  0.53065667  1
  O  O240  1  0.42545207  0.26534087  0.02333559  1
  O  O241  1  0.43219262  0.26979386  0.50279945  1
  O  O242  1  0.41974677  0.59485305  0.02591826  1
  O  O243  1  0.41826749  0.58875190  0.52064203  1
  O  O244  1  0.42574774  0.92911964  0.02835982  1
  O  O245  1  0.42534571  0.91614049  0.51911596  1
  O  O246  1  0.76507468  0.26159388  0.00466007  1
  O  O247  1  0.76478338  0.27025977  0.52324792  1
  O  O248  1  0.77008260  0.60723166  0.03133853  1
  O  O249  1  0.76978704  0.60049930  0.52619591  1
  O  O250  1  0.78062425  0.93494086  0.02209888  1
  O  O251  1  0.77306638  0.91941393  0.53002840  1
  O  O252  1  0.22867875  0.06379980  0.26817711  1
  O  O253  1  0.23380653  0.06857545  0.77977504  1
  O  O254  1  0.23604047  0.39475279  0.25327743  1
  O  O255  1  0.23048307  0.40130768  0.77980860  1
  O  O256  1  0.23426371  0.74135104  0.25380028  1
  O  O257  1  0.22661016  0.73791316  0.77662995  1
  O  O258  1  0.56615851  0.06922789  0.24979075  1
  O  O259  1  0.56709181  0.07761579  0.76748260  1
  O  O260  1  0.55822777  0.39927432  0.26020913  1
  O  O261  1  0.58131273  0.41597259  0.78049902  1
  O  O262  1  0.56914899  0.74356557  0.27343581  1
  O  O263  1  0.57372048  0.73121393  0.77162216  1
  O  O264  1  0.92089904  0.06929804  0.26897641  1
  O  O265  1  0.90216097  0.06240901  0.77305693  1
  O  O266  1  0.91592014  0.40128475  0.26036410  1
  O  O267  1  0.90781263  0.40588560  0.78363892  1
  O  O268  1  0.91297516  0.74308058  0.27924852  1
  O  O269  1  0.90758955  0.74634138  0.76946296  1
  O  O270  1  0.26333847  0.23076758  0.25747456  1
  O  O271  1  0.26009688  0.23292112  0.78110000  1
  O  O272  1  0.25673871  0.57166201  0.25552623  1
  O  O273  1  0.25623996  0.56552378  0.77942186  1
  O  O274  1  0.25850112  0.91129662  0.27307983  1
  O  O275  1  0.25679946  0.90580804  0.76972534  1
  O  O276  1  0.58551179  0.24444057  0.26829932  1
  O  O277  1  0.58601208  0.23744258  0.76581556  1
  O  O278  1  0.59043124  0.58512530  0.26266392  1
  O  O279  1  0.60403862  0.57932220  0.77808230  1
  O  O280  1  0.58760833  0.90287132  0.26665233  1
  O  O281  1  0.60422966  0.89501625  0.76684140  1
  O  O282  1  0.94824734  0.23252506  0.26709248  1
  O  O283  1  0.92450325  0.24012531  0.77111551  1
  O  O284  1  0.92553821  0.58286711  0.25769534  1
  O  O285  1  0.93624543  0.56775081  0.77538045  1
  O  O286  1  0.94097885  0.90184227  0.27529879  1
  O  O287  1  0.93383962  0.90203730  0.77898695  1
  O  O288  1  0.25631754  0.24364142  0.48513851  1
  O  O289  1  0.26842577  0.22860840  0.97487173  1
  O  O290  1  0.24729612  0.57069664  0.49243321  1
  O  O291  1  0.26484457  0.57208615  0.96693022  1
  O  O292  1  0.24930682  0.90750611  0.48564221  1
  O  O293  1  0.25337613  0.90383306  0.97909373  1
  O  O294  1  0.59864189  0.24979741  0.48154253  1
  O  O295  1  0.58319551  0.23443554  0.98217401  1
  O  O296  1  0.59829545  0.58189540  0.49305352  1
  O  O297  1  0.58634261  0.56826197  0.97461961  1
  O  O298  1  0.59322013  0.90034599  0.49021108  1
  O  O299  1  0.60220293  0.89663085  0.97265693  1
  O  O300  1  0.93678306  0.24207385  0.47444165  1
  O  O301  1  0.93572736  0.23777051  0.98737412  1
  O  O302  1  0.93111763  0.56916640  0.48597282  1
  O  O303  1  0.94539753  0.57430404  0.97671499  1
  O  O304  1  0.93494928  0.89507782  0.48052594  1
  O  O305  1  0.94028067  0.90520453  0.97120152  1
  O  O306  1  0.23376491  0.06813073  0.47356517  1
  O  O307  1  0.22778497  0.06572483  0.97909493  1
  O  O308  1  0.23124257  0.41244828  0.48585225  1
  O  O309  1  0.23253145  0.39466642  0.97385254  1
  O  O310  1  0.23340971  0.74863202  0.48714782  1
  O  O311  1  0.23099604  0.73020262  0.97396685  1
  O  O312  1  0.58071055  0.08158658  0.49270543  1
  O  O313  1  0.55944070  0.07309553  0.98757279  1
  O  O314  1  0.57510349  0.40208792  0.47799043  1
  O  O315  1  0.56130084  0.41421473  0.97802188  1
  O  O316  1  0.57636797  0.74010023  0.48428366  1
  O  O317  1  0.56578333  0.72866448  0.98410830  1
  O  O318  1  0.91451883  0.07639348  0.48272076  1
  O  O319  1  0.91006450  0.05837170  0.97578206  1
  O  O320  1  0.90070296  0.40269294  0.48787465  1
  O  O321  1  0.90379827  0.40564928  0.96549935  1
  O  O322  1  0.90982566  0.73913236  0.47958524  1
  O  O323  1  0.92378738  0.74627910  0.97413594  1
  O  O324  1  0.10265081  0.26107151  0.21860995  1
  O  O325  1  0.09914113  0.25655767  0.74275572  1
  O  O326  1  0.08688973  0.59680416  0.21646286  1
  O  O327  1  0.09894955  0.59160059  0.73168930  1
  O  O328  1  0.09890903  0.93579232  0.22283244  1
  O  O329  1  0.09349075  0.92728869  0.73058662  1
  O  O330  1  0.41891004  0.26355787  0.21066312  1
  O  O331  1  0.42055998  0.26278076  0.73953153  1
  O  O332  1  0.41606137  0.58628366  0.22396719  1
  O  O333  1  0.42471375  0.59249920  0.73971807  1
  O  O334  1  0.42341503  0.93014191  0.22207461  1
  O  O335  1  0.41905402  0.92766122  0.73282105  1
  O  O336  1  0.75973830  0.25787575  0.22703402  1
  O  O337  1  0.77311800  0.25960460  0.73103648  1
  O  O338  1  0.75674640  0.59941303  0.23863540  1
  O  O339  1  0.76735017  0.60960113  0.72426698  1
  O  O340  1  0.77564235  0.92135566  0.22604129  1
  O  O341  1  0.77645379  0.92784178  0.72333823  1
  O  O342  1  0.07204016  0.09496764  0.21566917  1
  O  O343  1  0.07141382  0.09083142  0.73354125  1
  O  O344  1  0.06888572  0.42751841  0.22036559  1
  O  O345  1  0.06936542  0.43782092  0.72379830  1
  O  O346  1  0.07201729  0.75678016  0.23252755  1
  O  O347  1  0.06837019  0.77005676  0.73115925  1
  O  O348  1  0.39344072  0.08996615  0.21800764  1
  O  O349  1  0.39416731  0.09787363  0.74500823  1
  O  O350  1  0.39246443  0.42061961  0.20942900  1
  O  O351  1  0.38855768  0.43065189  0.74239012  1
  O  O352  1  0.40406311  0.76953820  0.22948401  1
  O  O353  1  0.39690566  0.76815781  0.72120048  1
  O  O354  1  0.75261965  0.08181917  0.22149658  1
  O  O355  1  0.74981969  0.09289004  0.72882534  1
  O  O356  1  0.73999707  0.42810843  0.23374783  1
  O  O357  1  0.75060365  0.42018074  0.72292673  1
  O  O358  1  0.75123867  0.75769871  0.23691734  1
  O  O359  1  0.74062192  0.77030509  0.72225193  1
