# generated using pymatgen
data_BaLaInIrO6
_symmetry_space_group_name_H-M   'P 1'
_cell_length_a   17.50549794
_cell_length_b   17.53093120
_cell_length_c   16.48444077
_cell_angle_alpha   89.97967864
_cell_angle_beta   89.97460648
_cell_angle_gamma   89.97610039
_symmetry_Int_Tables_number   1
_chemical_formula_structural   BaLaInIrO6
_chemical_formula_sum   'Ba36 La36 In36 Ir36 O216'
_cell_volume   5058.87052849
_cell_formula_units_Z   36
loop_
 _symmetry_equiv_pos_site_id
 _symmetry_equiv_pos_as_xyz
  1  'x, y, z'
loop_
 _atom_site_type_symbol
 _atom_site_label
 _atom_site_symmetry_multiplicity
 _atom_site_fract_x
 _atom_site_fract_y
 _atom_site_fract_z
 _atom_site_occupancy
  Ba  Ba0  1  -0.00324352  0.82550749  0.87572421  1
  Ba  Ba1  1  0.33146002  0.82572992  0.87235210  1
  Ba  Ba2  1  0.83172712  0.67941812  0.12733947  1
  Ba  Ba3  1  1.00006728  0.84382980  0.12533434  1
  Ba  Ba4  1  0.34076743  0.49327404  0.87749016  1
  Ba  Ba5  1  0.82944901  0.67554135  0.62705766  1
  Ba  Ba6  1  0.66397204  0.49514711  0.87660509  1
  Ba  Ba7  1  0.33519207  0.84282599  0.12769202  1
  Ba  Ba8  1  0.49337213  0.00394913  0.62585887  1
  Ba  Ba9  1  0.83135701  0.00952716  0.12141404  1
  Ba  Ba10  1  0.66379206  0.82255765  0.88024349  1
  Ba  Ba11  1  0.33745835  0.17326467  0.62197680  1
  Ba  Ba12  1  0.83341039  0.32434786  0.37870791  1
  Ba  Ba13  1  0.99985148  0.17662084  0.12072714  1
  Ba  Ba14  1  0.67072566  0.17643943  0.12346840  1
  Ba  Ba15  1  0.83165164  0.34235066  0.12171937  1
  Ba  Ba16  1  0.50016473  0.34278401  0.12689101  1
  Ba  Ba17  1  0.16895408  0.00416764  0.62396701  1
  Ba  Ba18  1  0.16520332  0.32371617  0.87591146  1
  Ba  Ba19  1  0.33453389  0.50903969  0.12417241  1
  Ba  Ba20  1  0.99841364  0.83225562  0.62607181  1
  Ba  Ba21  1  0.66611906  0.84139980  0.12316446  1
  Ba  Ba22  1  0.17015512  0.65896236  0.37846758  1
  Ba  Ba23  1  0.50084208  0.65419415  0.37301709  1
  Ba  Ba24  1  0.33166078  0.82033642  0.37684726  1
  Ba  Ba25  1  0.33499871  0.83990140  0.62238925  1
  Ba  Ba26  1  0.83480731  0.65823501  0.88021381  1
  Ba  Ba27  1  1.00509589  0.17322580  0.62236511  1
  Ba  Ba28  1  0.83596150  0.65859839  0.37280744  1
  Ba  Ba29  1  0.99927294  0.50395775  0.62653017  1
  Ba  Ba30  1  0.83462859  0.32669979  0.87220857  1
  Ba  Ba31  1  0.50208709  0.67565795  0.62209058  1
  Ba  Ba32  1  0.17022823  0.33863844  0.62732105  1
  Ba  Ba33  1  0.66521182  0.18115996  0.62408314  1
  Ba  Ba34  1  0.16090864  0.99344276  0.87294987  1
  Ba  Ba35  1  0.50031481  0.67579910  0.12482106  1
  La  La36  1  0.66019289  0.81703374  0.36956715  1
  La  La37  1  0.32938888  0.14636563  0.37298372  1
  La  La38  1  0.66381453  0.15460620  0.87817102  1
  La  La39  1  -0.00432709  0.48009555  0.37514764  1
  La  La40  1  0.49443629  0.35051671  0.62618922  1
  La  La41  1  0.82269049  0.01570912  0.62831315  1
  La  La42  1  0.50731366  0.31859332  0.87293681  1
  La  La43  1  0.49678807  0.00756747  0.12422178  1
  La  La44  1  0.17269221  0.31564324  0.37868960  1
  La  La45  1  0.50546262  0.32336505  0.37784070  1
  La  La46  1  0.67424737  0.51442431  0.62696521  1
  La  La47  1  0.16350826  0.67821544  0.62543762  1
  La  La48  1  0.82995606  0.34961727  0.62807254  1
  La  La49  1  0.33323171  0.48828646  0.37609721  1
  La  La50  1  0.32733337  0.15289800  0.87261250  1
  La  La51  1  0.67447812  0.51841440  0.12637314  1
  La  La52  1  0.16490080  0.98499587  0.37563679  1
  La  La53  1  0.33669697  0.51344392  0.62614832  1
  La  La54  1  -0.00515597  0.15294430  0.87019478  1
  La  La55  1  0.16363890  0.68328044  0.12468040  1
  La  La56  1  0.67477614  0.84934612  0.62523279  1
  La  La57  1  0.33467568  0.17798684  0.12604161  1
  La  La58  1  -0.00215621  0.15150734  0.37544054  1
  La  La59  1  0.50322453  0.66148605  0.88446084  1
  La  La60  1  -0.00098598  0.48770802  0.87730698  1
  La  La61  1  1.00633547  0.51171489  0.12461968  1
  La  La62  1  0.83696367  0.98739108  0.36932594  1
  La  La63  1  0.16938189  0.66489345  0.87171795  1
  La  La64  1  0.66916509  0.15498583  0.37125489  1
  La  La65  1  -0.00400084  0.81878838  0.37530525  1
  La  La66  1  0.83887922  0.98727120  0.88154605  1
  La  La67  1  0.15929809  0.34767447  0.11916060  1
  La  La68  1  0.50024178  0.98107216  0.87443862  1
  La  La69  1  0.50047781  0.98239532  0.37418779  1
  La  La70  1  0.66333166  0.48990930  0.37385597  1
  La  La71  1  0.15865434  0.01468687  0.12321853  1
  In  In72  1  0.83165226  0.83588942  0.49791419  1
  In  In73  1  0.66564976  0.00163702  0.49684648  1
  In  In74  1  0.66739778  0.33476288  0.24988577  1
  In  In75  1  0.66449508  0.00061171  -0.00085328  1
  In  In76  1  0.66405685  0.00145461  0.75233378  1
  In  In77  1  0.33182865  0.33143290  0.25155094  1
  In  In78  1  -0.00159681  0.66122966  0.75282647  1
  In  In79  1  0.33769357  0.33468889  0.75226841  1
  In  In80  1  0.16602168  0.16659229  0.74956222  1
  In  In81  1  0.83075527  0.83210501  0.75272277  1
  In  In82  1  0.50012996  0.16682907  0.75018492  1
  In  In83  1  0.16656236  0.83755713  0.00044335  1
  In  In84  1  0.66490991  0.00063749  0.25016487  1
  In  In85  1  0.33365499  0.66456657  0.24915123  1
  In  In86  1  0.66476665  0.66830888  0.50022097  1
  In  In87  1  0.83460759  0.49820930  0.24991148  1
  In  In88  1  0.00107731  0.66162516  0.50006688  1
  In  In89  1  -0.00674753  -0.00016983  0.74581189  1
  In  In90  1  -0.00078926  0.33250278  0.74731870  1
  In  In91  1  0.33297824  0.33157736  0.00025994  1
  In  In92  1  0.33356670  -0.00031035  0.75094684  1
  In  In93  1  0.16543603  0.83299773  0.75006087  1
  In  In94  1  0.50039853  0.16719819  0.49551651  1
  In  In95  1  0.49677319  0.16511195  0.25093680  1
  In  In96  1  -0.00352141  -0.00096960  0.49874402  1
  In  In97  1  0.16750438  0.49700825  0.50174556  1
  In  In98  1  0.83549208  0.16796993  0.24941644  1
  In  In99  1  0.16709499  0.49918383  0.25288613  1
  In  In100  1  0.00359681  0.66526952  0.24961213  1
  In  In101  1  0.00366732  0.32878415  0.25021931  1
  In  In102  1  0.16738059  0.83272982  0.49932720  1
  In  In103  1  0.50136966  0.49895954  0.00293666  1
  In  In104  1  0.50177364  0.82688888  0.74786760  1
  In  In105  1  0.16885921  0.50298606  -0.00287635  1
  In  In106  1  0.83268909  0.49962012  0.49881651  1
  In  In107  1  0.66666091  0.33562430  -0.00263019  1
  Ir  Ir108  1  0.00188578  0.66491691  0.00329951  1
  Ir  Ir109  1  0.83342009  0.16987470  -0.00685516  1
  Ir  Ir110  1  0.16809197  0.16646707  0.49192768  1
  Ir  Ir111  1  0.83148445  0.83665395  0.25002327  1
  Ir  Ir112  1  0.66516037  0.33495577  0.74786743  1
  Ir  Ir113  1  0.50410153  0.50201968  0.74436487  1
  Ir  Ir114  1  0.66738200  0.66939985  0.24830339  1
  Ir  Ir115  1  0.16862179  0.16309836  0.25041252  1
  Ir  Ir116  1  0.50018286  0.49552153  0.49981281  1
  Ir  Ir117  1  0.83404578  0.83334922  0.00460400  1
  Ir  Ir118  1  0.16666007  0.83762316  0.24786061  1
  Ir  Ir119  1  -0.00218920  0.00477128  0.00531533  1
  Ir  Ir120  1  0.32754593  -0.00134825  0.24726968  1
  Ir  Ir121  1  0.83298382  0.17051388  0.50241807  1
  Ir  Ir122  1  0.83043059  0.49810119  0.75461550  1
  Ir  Ir123  1  0.33265819  0.00360415  0.00603849  1
  Ir  Ir124  1  0.17118833  0.50193391  0.75150425  1
  Ir  Ir125  1  0.33864815  0.66056177  0.50263098  1
  Ir  Ir126  1  0.66898342  0.66726106  0.00097566  1
  Ir  Ir127  1  0.49409899  0.16236266  0.00011366  1
  Ir  Ir128  1  0.49912337  0.83532414  0.24942190  1
  Ir  Ir129  1  0.33622788  0.65981028  0.75013277  1
  Ir  Ir130  1  0.66400602  0.66202587  0.75347359  1
  Ir  Ir131  1  0.33891490  0.33490944  0.49810885  1
  Ir  Ir132  1  0.33334839  0.66851195  -0.00424612  1
  Ir  Ir133  1  0.50072340  0.83247013  0.49357380  1
  Ir  Ir134  1  0.49572136  0.83332756  0.00387648  1
  Ir  Ir135  1  0.00262279  0.32839648  0.49927731  1
  Ir  Ir136  1  0.83786792  0.50148754  -0.00066085  1
  Ir  Ir137  1  0.50252769  0.50010835  0.25411386  1
  Ir  Ir138  1  -0.00109531  0.33426124  -0.00106163  1
  Ir  Ir139  1  0.00366121  0.00056035  0.24889176  1
  Ir  Ir140  1  0.82925328  0.17022593  0.74967930  1
  Ir  Ir141  1  0.16719976  0.16467136  0.00294297  1
  Ir  Ir142  1  0.33401947  -0.00012271  0.49098247  1
  Ir  Ir143  1  0.66594232  0.33494173  0.50416436  1
  O  O144  1  0.29390733  0.31831713  0.12699987  1
  O  O145  1  0.32046825  0.33138212  0.61814537  1
  O  O146  1  0.30313597  0.66451658  0.11725856  1
  O  O147  1  0.30581624  0.65208825  0.62797095  1
  O  O148  1  0.29584735  0.99833808  0.12671311  1
  O  O149  1  0.32158141  1.00067126  0.61306126  1
  O  O150  1  0.64811098  0.32949928  0.12250083  1
  O  O151  1  0.63318398  0.33209207  0.62659662  1
  O  O152  1  0.64862554  0.66002549  0.12399649  1
  O  O153  1  0.65175875  0.65615030  0.63229545  1
  O  O154  1  0.63558010  1.00170124  0.12354154  1
  O  O155  1  0.64262602  0.99116182  0.62273759  1
  O  O156  1  0.98331812  0.32986454  0.11797499  1
  O  O157  1  0.96891701  0.32627930  0.61849233  1
  O  O158  1  0.97835246  0.65617653  0.12130021  1
  O  O159  1  0.97676168  0.65749393  0.62651362  1
  O  O160  1  0.97938698  1.00005187  0.12810343  1
  O  O161  1  0.95781146  1.00031680  0.62034497  1
  O  O162  1  0.19897672  0.15314925  0.12791081  1
  O  O163  1  0.18666236  0.16179781  0.61295949  1
  O  O164  1  0.18680599  0.48422729  0.12424274  1
  O  O165  1  0.20103980  0.49212293  0.63152914  1
  O  O166  1  0.18579935  0.82852521  0.12732472  1
  O  O167  1  0.18816646  0.81997160  0.62417743  1
  O  O168  1  0.52123439  0.14723219  0.11956415  1
  O  O169  1  0.51540769  0.15695994  0.62126669  1
  O  O170  1  0.53553433  0.49958101  0.13443130  1
  O  O171  1  0.53439973  0.48750799  0.62112034  1
  O  O172  1  0.51686919  0.84295235  0.12805162  1
  O  O173  1  0.53284152  0.83432963  0.61455389  1
  O  O174  1  0.85030061  0.16743601  0.11427357  1
  O  O175  1  0.85647176  0.15825657  0.62746236  1
  O  O176  1  0.86716328  0.50114784  0.11799694  1
  O  O177  1  0.84469350  0.49597057  0.63225375  1
  O  O178  1  0.85338147  0.83560966  0.12644882  1
  O  O179  1  0.84566207  0.83021594  0.62511750  1
  O  O180  1  0.13616945  0.17488172  0.36980079  1
  O  O181  1  0.13273420  0.16721676  0.88663099  1
  O  O182  1  0.12913639  0.50471579  0.37755759  1
  O  O183  1  0.13734660  0.51710450  0.87096318  1
  O  O184  1  0.13880805  0.84357265  0.36758618  1
  O  O185  1  0.14927642  0.81996927  0.87762317  1
  O  O186  1  0.46039371  0.18777670  0.37438529  1
  O  O187  1  0.46338784  0.18021445  0.88355283  1
  O  O188  1  0.46918433  0.49823719  0.37770306  1
  O  O189  1  0.49033360  0.52131623  0.86519941  1
  O  O190  1  0.47612950  0.84085266  0.37043880  1
  O  O191  1  0.48203370  0.82816148  0.88343559  1
  O  O192  1  0.80324282  0.17360759  0.38503643  1
  O  O193  1  0.79989547  0.17359632  0.87037156  1
  O  O194  1  0.79799642  0.49680983  0.37564082  1
  O  O195  1  0.81312571  0.49629766  0.87748798  1
  O  O196  1  0.79889664  0.84370930  0.36729406  1
  O  O197  1  0.81418218  0.83851397  0.88592855  1
  O  O198  1  0.03062769  0.01181478  0.36666486  1
  O  O199  1  0.01005020  0.01328595  0.88534052  1
  O  O200  1  0.03450375  0.33828632  0.38001889  1
  O  O201  1  0.01389572  0.34622639  0.87811525  1
  O  O202  1  0.02160680  0.68231449  0.37253077  1
  O  O203  1  0.03122965  0.66298311  0.88443474  1
  O  O204  1  0.36213521  0.00518425  0.36701115  1
  O  O205  1  0.36592639  0.01275695  0.88931532  1
  O  O206  1  0.36843069  0.34536083  0.38046350  1
  O  O207  1  0.37211237  0.33569518  0.87682705  1
  O  O208  1  0.35283990  0.66330533  0.38193536  1
  O  O209  1  0.36749148  0.66829452  0.87299061  1
  O  O210  1  0.70176373  0.01244989  0.37463885  1
  O  O211  1  0.70030370  0.01008607  0.87688472  1
  O  O212  1  0.68561628  0.35159813  0.38517228  1
  O  O213  1  0.68547941  0.33823042  0.86639138  1
  O  O214  1  0.68389541  0.67620115  0.36907592  1
  O  O215  1  0.68319840  0.66437073  0.87673841  1
  O  O216  1  0.07834650  0.08924863  0.02778947  1
  O  O217  1  0.07453300  0.09952046  0.50314806  1
  O  O218  1  0.06462276  0.42927916  0.01840220  1
  O  O219  1  0.07139445  0.41731253  0.51968593  1
  O  O220  1  0.07634575  0.75066096  0.02573622  1
  O  O221  1  0.07826303  0.75585033  0.51405095  1
  O  O222  1  0.40253855  0.09239595  0.03433702  1
  O  O223  1  0.40028926  0.09205629  0.49925545  1
  O  O224  1  0.40958264  0.42449656  0.02266213  1
  O  O225  1  0.40274210  0.43077681  0.52631162  1
  O  O226  1  0.40612443  0.75775798  0.01992403  1
  O  O227  1  0.40869941  0.75808767  0.51726789  1
  O  O228  1  0.74113821  0.10127700  0.00730357  1
  O  O229  1  0.74445312  0.10195546  0.52123943  1
  O  O230  1  0.74260740  0.43679654  0.02186853  1
  O  O231  1  0.73481603  0.42326405  0.53265668  1
  O  O232  1  0.74396570  0.75865956  0.01990907  1
  O  O233  1  0.72381737  0.77421645  0.51392465  1
  O  O234  1  0.09753059  0.26384184  0.02430056  1
  O  O235  1  0.10151891  0.26246965  0.51001785  1
  O  O236  1  0.09095395  0.59543849  0.02957627  1
  O  O237  1  0.10493769  0.59568498  0.52950560  1
  O  O238  1  0.08987154  0.93378877  0.02261770  1
  O  O239  1  0.09513875  0.93137461  0.50694597  1
  O  O240  1  0.42342664  0.24735694  0.03014361  1
  O  O241  1  0.43698858  0.27570661  0.51835477  1
  O  O242  1  0.42324901  0.59670440  0.01009009  1
  O  O243  1  0.42906468  0.58582459  0.52453823  1
  O  O244  1  0.42960738  0.93510297  0.02410707  1
  O  O245  1  0.43098278  0.93164271  0.50392472  1
  O  O246  1  0.76288959  0.25824203  0.00731849  1
  O  O247  1  0.76482106  0.26935201  0.52896322  1
  O  O248  1  0.76009204  0.59108703  0.02527518  1
  O  O249  1  0.75442670  0.59061222  0.51793557  1
  O  O250  1  0.76020881  0.92154727  0.01470239  1
  O  O251  1  0.76629593  0.93750549  0.52413183  1
  O  O252  1  0.23142599  0.06403167  0.27412804  1
  O  O253  1  0.24279306  0.07786843  0.77460788  1
  O  O254  1  0.23886876  0.40085329  0.28595910  1
  O  O255  1  0.24094480  0.41293702  0.77113349  1
  O  O256  1  0.23469195  0.74360875  0.25944919  1
  O  O257  1  0.24503031  0.72616123  0.77083830  1
  O  O258  1  0.56181970  0.06641576  0.27624376  1
  O  O259  1  0.57226930  0.07522658  0.78967932  1
  O  O260  1  0.56875384  0.41014615  0.28180439  1
  O  O261  1  0.56584951  0.40072127  0.76820659  1
  O  O262  1  0.57377557  0.74572060  0.27054041  1
  O  O263  1  0.56749110  0.72336360  0.77245948  1
  O  O264  1  0.90897349  0.06649690  0.27566013  1
  O  O265  1  0.89233868  0.07783786  0.77659397  1
  O  O266  1  0.91166274  0.40543788  0.27330591  1
  O  O267  1  0.90066421  0.40642118  0.75531212  1
  O  O268  1  0.90742087  0.75115559  0.26797330  1
  O  O269  1  0.90724716  0.74000942  0.77013542  1
  O  O270  1  0.26090378  0.22732815  0.28026371  1
  O  O271  1  0.26635785  0.23758734  0.77197621  1
  O  O272  1  0.26867045  0.56545241  0.27661284  1
  O  O273  1  0.26580380  0.56986236  0.77000610  1
  O  O274  1  0.25630510  0.90941471  0.27374319  1
  O  O275  1  0.25761216  0.90945945  0.76316823  1
  O  O276  1  0.59306046  0.23928586  0.28107823  1
  O  O277  1  0.60161515  0.24034919  0.77737247  1
  O  O278  1  0.60212326  0.56820549  0.27062845  1
  O  O279  1  0.60322901  0.56136014  0.75231633  1
  O  O280  1  0.59044684  0.90397277  0.27665353  1
  O  O281  1  0.58950726  0.90617529  0.77246885  1
  O  O282  1  0.93935280  0.22832648  0.27264969  1
  O  O283  1  0.92451576  0.23273629  0.77205558  1
  O  O284  1  0.93573801  0.56510934  0.27126047  1
  O  O285  1  0.92759707  0.56003879  0.77852768  1
  O  O286  1  0.93006511  0.90560652  0.27548781  1
  O  O287  1  0.91228225  0.91848879  0.78150850  1
  O  O288  1  0.26930366  0.23893108  0.46814202  1
  O  O289  1  0.26039483  0.22842303  0.97836640  1
  O  O290  1  0.27629593  0.56307817  0.48587514  1
  O  O291  1  0.25745706  0.58618211  0.97068446  1
  O  O292  1  0.25957798  0.91377272  0.47680384  1
  O  O293  1  0.26350710  0.91547572  0.98438847  1
  O  O294  1  0.60175426  0.24317958  0.47077860  1
  O  O295  1  0.58648645  0.23194946  0.97198375  1
  O  O296  1  0.59478218  0.56181123  0.47946731  1
  O  O297  1  0.59274928  0.58160388  0.98858733  1
  O  O298  1  0.59086149  0.90211676  0.46651890  1
  O  O299  1  0.57981252  0.90996274  0.98082365  1
  O  O300  1  0.93354171  0.23415867  0.47497936  1
  O  O301  1  0.93238914  0.23564925  0.97311920  1
  O  O302  1  0.93382530  0.56153956  0.47157684  1
  O  O303  1  0.93604632  0.56793052  0.97823732  1
  O  O304  1  0.92429921  0.90997963  0.45625706  1
  O  O305  1  0.92024967  0.91513928  0.98140305  1
  O  O306  1  0.23829766  0.07035543  0.46475473  1
  O  O307  1  0.24039248  0.07349966  0.97907213  1
  O  O308  1  0.24388178  0.39991006  0.47242693  1
  O  O309  1  0.23621336  0.40408256  0.98539148  1
  O  O310  1  0.24954710  0.73183096  0.49183757  1
  O  O311  1  0.24221939  0.73675561  0.98103785  1
  O  O312  1  0.57449727  0.07582788  0.45894326  1
  O  O313  1  0.56230161  0.07298297  0.97038910  1
  O  O314  1  0.56740847  0.40005795  0.47813132  1
  O  O315  1  0.56806016  0.40195729  0.97151980  1
  O  O316  1  0.56933670  0.74333687  0.47584561  1
  O  O317  1  0.56935938  0.73746582  0.98254406  1
  O  O318  1  0.90060981  0.07973173  0.46944360  1
  O  O319  1  0.90429328  0.07776750  0.97388903  1
  O  O320  1  0.91373067  0.40102327  0.48620813  1
  O  O321  1  0.91073799  0.41092892  0.97384614  1
  O  O322  1  0.91016270  0.74639813  0.47602505  1
  O  O323  1  0.91209290  0.74076714  0.98532043  1
  O  O324  1  0.11187563  0.26282111  0.22971130  1
  O  O325  1  0.09216408  0.26016617  0.73550078  1
  O  O326  1  0.10223434  0.59938252  0.21727991  1
  O  O327  1  0.10824551  0.59282568  0.72999519  1
  O  O328  1  0.10329095  0.93670456  0.22905343  1
  O  O329  1  0.08327958  0.92177538  0.73399975  1
  O  O330  1  0.41840034  0.25295979  0.22124304  1
  O  O331  1  0.44369053  0.27446959  0.73188536  1
  O  O332  1  0.43308223  0.58836592  0.23377127  1
  O  O333  1  0.42821139  0.58838645  0.72063485  1
  O  O334  1  0.43066849  0.93625165  0.23003861  1
  O  O335  1  0.42937359  0.92442848  0.74988438  1
  O  O336  1  0.76481475  0.26475680  0.24152605  1
  O  O337  1  0.76396229  0.27052239  0.72326911  1
  O  O338  1  0.75518622  0.59690907  0.23091839  1
  O  O339  1  0.75930609  0.59121377  0.73776983  1
  O  O340  1  0.76396076  0.92742178  0.23448754  1
  O  O341  1  0.75638310  0.92767230  0.72245845  1
  O  O342  1  0.07469630  0.09320581  0.22586101  1
  O  O343  1  0.06555235  0.09599766  0.74624170  1
  O  O344  1  0.07011444  0.42780830  0.22223191  1
  O  O345  1  0.07816813  0.43376547  0.74260091  1
  O  O346  1  0.07938849  0.76567713  0.23040846  1
  O  O347  1  0.08373681  0.74468977  0.73171340  1
  O  O348  1  0.39209437  0.09186285  0.22651328  1
  O  O349  1  0.40115325  0.09913202  0.74662987  1
  O  O350  1  0.41109053  0.43065759  0.23776569  1
  O  O351  1  0.41092886  0.43609432  0.72303710  1
  O  O352  1  0.41069879  0.76072558  0.23547235  1
  O  O353  1  0.40429092  0.75020759  0.73124346  1
  O  O354  1  0.73622298  0.09957369  0.24189122  1
  O  O355  1  0.73987486  0.10104844  0.73117796  1
  O  O356  1  0.72975243  0.43889440  0.22810699  1
  O  O357  1  0.73420076  0.42892998  0.72266574  1
  O  O358  1  0.73381657  0.76895620  0.23632007  1
  O  O359  1  0.72272323  0.76100077  0.73523772  1
