# generated using pymatgen
data_BaLaInIrO6
_symmetry_space_group_name_H-M   'P 1'
_cell_length_a   17.53012554
_cell_length_b   17.58404094
_cell_length_c   16.50756425
_cell_angle_alpha   90.01279364
_cell_angle_beta   90.03167786
_cell_angle_gamma   89.96445154
_symmetry_Int_Tables_number   1
_chemical_formula_structural   BaLaInIrO6
_chemical_formula_sum   'Ba36 La36 In36 Ir36 O216'
_cell_volume   5088.46214453
_cell_formula_units_Z   36
loop_
 _symmetry_equiv_pos_site_id
 _symmetry_equiv_pos_as_xyz
  1  'x, y, z'
loop_
 _atom_site_type_symbol
 _atom_site_label
 _atom_site_symmetry_multiplicity
 _atom_site_fract_x
 _atom_site_fract_y
 _atom_site_fract_z
 _atom_site_occupancy
  Ba  Ba0  1  0.66546765  0.51516970  0.12657388  1
  Ba  Ba1  1  0.83290460  0.99383929  0.37364984  1
  Ba  Ba2  1  0.33446414  0.14869101  0.37516600  1
  Ba  Ba3  1  0.49924277  0.00837449  0.12196941  1
  Ba  Ba4  1  0.66620148  0.82235490  0.37722757  1
  Ba  Ba5  1  0.49707836  0.67537975  0.12532145  1
  Ba  Ba6  1  0.83225830  0.00906916  0.62358021  1
  Ba  Ba7  1  0.82862268  0.66045380  0.37818875  1
  Ba  Ba8  1  0.50198074  0.32637168  0.87576840  1
  Ba  Ba9  1  0.16129340  0.34629582  0.62403960  1
  Ba  Ba10  1  0.16777541  0.98904889  0.37592000  1
  Ba  Ba11  1  1.00106474  0.84217864  0.12230792  1
  Ba  Ba12  1  0.16550277  0.67492704  0.12637835  1
  Ba  Ba13  1  0.33152852  0.49430327  0.37678062  1
  Ba  Ba14  1  0.83584241  0.34292244  0.62314161  1
  Ba  Ba15  1  0.66745135  0.82646815  0.87523122  1
  Ba  Ba16  1  0.66419543  0.15313872  0.37193375  1
  Ba  Ba17  1  0.32956661  0.82411364  0.87625589  1
  Ba  Ba18  1  -0.00132322  0.49268465  0.87864971  1
  Ba  Ba19  1  0.00406648  0.15989256  0.87424303  1
  Ba  Ba20  1  -0.00076180  0.82040643  0.87630116  1
  Ba  Ba21  1  0.66696633  0.17520726  0.12555722  1
  Ba  Ba22  1  0.67000275  0.49959349  0.87795294  1
  Ba  Ba23  1  0.83100510  0.00563279  0.12046893  1
  Ba  Ba24  1  0.50114834  0.98651957  0.87512101  1
  Ba  Ba25  1  0.66394430  0.83580158  0.62512287  1
  Ba  Ba26  1  0.66810230  0.17493289  0.62511004  1
  Ba  Ba27  1  0.83029804  0.67543758  0.12885083  1
  Ba  Ba28  1  0.33328793  0.82486373  0.37590054  1
  Ba  Ba29  1  0.83126879  0.66872941  0.62712446  1
  Ba  Ba30  1  0.50045801  0.66014105  0.87356400  1
  Ba  Ba31  1  0.16919655  0.34023325  0.12499046  1
  Ba  Ba32  1  0.16939690  0.65508704  0.87751801  1
  Ba  Ba33  1  0.16892413  0.00190723  0.12575935  1
  Ba  Ba34  1  0.49991276  0.67351049  0.61927943  1
  Ba  Ba35  1  0.66173899  0.49305672  0.37657606  1
  La  La36  1  0.83713265  0.98562271  0.86747962  1
  La  La37  1  0.34658509  0.18414306  0.12770103  1
  La  La38  1  0.51007113  0.65425779  0.37167164  1
  La  La39  1  0.17380666  0.31038664  0.37842356  1
  La  La40  1  0.16236075  0.02016504  0.62621633  1
  La  La41  1  0.33540221  0.84665705  0.12415126  1
  La  La42  1  1.00544879  0.85481905  0.62353108  1
  La  La43  1  0.33624181  0.51695220  0.12480248  1
  La  La44  1  1.00895957  0.17436365  0.12719420  1
  La  La45  1  0.33917716  0.84667848  0.62199833  1
  La  La46  1  0.83229571  0.31788733  0.37493497  1
  La  La47  1  0.50754627  0.97971974  0.37099333  1
  La  La48  1  1.00464375  0.51988279  0.62878163  1
  La  La49  1  0.67260297  0.84184674  0.12361168  1
  La  La50  1  0.50022138  0.34949222  0.62433263  1
  La  La51  1  0.49389020  0.35263368  0.12730238  1
  La  La52  1  0.99903238  0.18343158  0.62665491  1
  La  La53  1  0.83234084  0.35210028  0.12503348  1
  La  La54  1  0.66562292  0.51160173  0.62360921  1
  La  La55  1  0.82888563  0.32193068  0.87779990  1
  La  La56  1  -0.00907027  0.82213219  0.36789499  1
  La  La57  1  -0.00358124  0.15273195  0.37795616  1
  La  La58  1  0.16645122  0.65573672  0.37371423  1
  La  La59  1  0.83317016  0.65425239  0.87923136  1
  La  La60  1  1.00456087  0.51813442  0.12217500  1
  La  La61  1  0.17661277  0.31991465  0.87130437  1
  La  La62  1  0.50146825  0.00074689  0.61450935  1
  La  La63  1  0.34115610  0.18029189  0.62236315  1
  La  La64  1  0.50875727  0.31440570  0.37307725  1
  La  La65  1  0.32628617  0.15084706  0.87341096  1
  La  La66  1  0.33336633  0.51865963  0.62707805  1
  La  La67  1  0.66199351  0.15280119  0.87328015  1
  La  La68  1  0.32650417  0.48880145  0.87730541  1
  La  La69  1  0.17229748  0.98134378  0.87722553  1
  La  La70  1  0.16078453  0.68241522  0.62396555  1
  La  La71  1  -0.00815155  0.49060032  0.37276213  1
  In  In72  1  0.16448877  0.50108731  0.50043884  1
  In  In73  1  0.00005781  0.00013375  0.24724403  1
  In  In74  1  0.00238872  0.33799006  0.49737259  1
  In  In75  1  0.17345953  0.16235564  0.24770974  1
  In  In76  1  0.49909701  0.16657877  0.75130230  1
  In  In77  1  0.00181591  0.33411253  0.25096960  1
  In  In78  1  0.33469874  0.33575661  0.25720151  1
  In  In79  1  0.66683503  0.33607476  0.75043928  1
  In  In80  1  0.16681043  0.83251855  0.74713535  1
  In  In81  1  0.49527482  0.49647646  0.49726863  1
  In  In82  1  0.66659132  0.33579705  0.24803246  1
  In  In83  1  0.49903066  0.16242034  0.49870618  1
  In  In84  1  0.49716407  0.83080020  0.74944922  1
  In  In85  1  0.83391508  0.49711756  0.74919207  1
  In  In86  1  0.66729881  -0.00147801  0.74917103  1
  In  In87  1  0.00277804  0.33584716  0.75445100  1
  In  In88  1  0.16303437  0.49677526  0.25196535  1
  In  In89  1  0.83813116  0.82873087  0.74765343  1
  In  In90  1  0.33364262  0.33494257  0.74529600  1
  In  In91  1  0.33191336  0.66785316  -0.00171562  1
  In  In92  1  0.83733047  0.16814258  0.24716082  1
  In  In93  1  0.16601711  0.83191570  0.25328226  1
  In  In94  1  0.66654633  -0.00185111  0.49883931  1
  In  In95  1  0.00081207  0.66877476  0.49915233  1
  In  In96  1  0.00145143  0.33357382  0.00091303  1
  In  In97  1  0.33482475  0.00194969  0.00109781  1
  In  In98  1  0.49718108  0.50163230  0.75139066  1
  In  In99  1  0.33141134  0.00202648  0.74566410  1
  In  In100  1  0.33281282  0.66909735  0.25463930  1
  In  In101  1  0.83414953  0.16858923  0.75093366  1
  In  In102  1  0.83545253  0.16920801  0.00115633  1
  In  In103  1  0.66476597  0.33519487  0.00338014  1
  In  In104  1  0.66694719  0.00160001  0.00072232  1
  In  In105  1  0.17066148  0.16423867  0.00245228  1
  In  In106  1  0.83689959  0.83261107  0.50156815  1
  In  In107  1  0.83464239  0.83060708  0.00047916  1
  Ir  Ir108  1  0.66815180  0.66518852  0.75152474  1
  Ir  Ir109  1  0.49646424  0.50124540  0.24901358  1
  Ir  Ir110  1  0.66470627  0.66343359  0.49983533  1
  Ir  Ir111  1  0.33339833  0.33081307  0.50087314  1
  Ir  Ir112  1  0.00123667  0.00006237  -0.00611206  1
  Ir  Ir113  1  0.49967587  0.16542221  0.24672585  1
  Ir  Ir114  1  0.83095382  0.83152635  0.25073638  1
  Ir  Ir115  1  0.16928576  0.16629867  0.74892675  1
  Ir  Ir116  1  0.00094587  0.66446356  0.75162208  1
  Ir  Ir117  1  0.66321435  0.66761865  0.24997167  1
  Ir  Ir118  1  -0.00176975  0.66746146  0.24849152  1
  Ir  Ir119  1  0.50082813  0.83000692  0.00414362  1
  Ir  Ir120  1  0.16808132  0.50280599  0.75113670  1
  Ir  Ir121  1  0.33558089  0.33584486  -0.00071072  1
  Ir  Ir122  1  0.49513555  0.50089321  0.00238868  1
  Ir  Ir123  1  0.83454671  0.50552832  0.00623092  1
  Ir  Ir124  1  0.66695524  0.33210529  0.49711687  1
  Ir  Ir125  1  0.00583023  0.00318965  0.74936998  1
  Ir  Ir126  1  0.16967780  0.16549797  0.50358714  1
  Ir  Ir127  1  0.32738443  0.66467580  0.74533163  1
  Ir  Ir128  1  0.66415650  0.66755488  0.00242146  1
  Ir  Ir129  1  0.00612062  0.00455079  0.50479506  1
  Ir  Ir130  1  0.16704148  0.83486464  0.50299169  1
  Ir  Ir131  1  0.32753373  -0.00360237  0.49981840  1
  Ir  Ir132  1  0.00141296  0.66381728  -0.00057188  1
  Ir  Ir133  1  0.16479565  0.83232166  0.00023037  1
  Ir  Ir134  1  0.66379456  -0.00483675  0.24911182  1
  Ir  Ir135  1  0.49387610  0.82958688  0.49550464  1
  Ir  Ir136  1  0.16864724  0.49652238  -0.00078750  1
  Ir  Ir137  1  0.34028898  -0.00379546  0.25217692  1
  Ir  Ir138  1  0.32918505  0.66877058  0.50021548  1
  Ir  Ir139  1  0.49575264  0.17141571  0.00047104  1
  Ir  Ir140  1  0.83643684  0.16877015  0.49722906  1
  Ir  Ir141  1  0.83137713  0.49709098  0.49533693  1
  Ir  Ir142  1  0.83295947  0.50307832  0.25415506  1
  Ir  Ir143  1  0.50080777  0.83318078  0.24741911  1
  O  O144  1  0.32058390  0.32526987  0.12076140  1
  O  O145  1  0.30569509  0.31633617  0.61746834  1
  O  O146  1  0.31585344  0.65513821  0.12590464  1
  O  O147  1  0.29621118  0.65790956  0.62201082  1
  O  O148  1  0.32267700  0.98694988  0.12979773  1
  O  O149  1  0.29723598  0.98709087  0.61809424  1
  O  O150  1  0.62879888  0.33562962  0.12640715  1
  O  O151  1  0.63659924  0.33093558  0.61484665  1
  O  O152  1  0.64319081  0.67165512  0.12754311  1
  O  O153  1  0.64885788  0.65083443  0.62582202  1
  O  O154  1  0.64688622  0.98943700  0.13042875  1
  O  O155  1  0.63450357  0.99740323  0.62205033  1
  O  O156  1  0.96469513  0.31584423  0.12659109  1
  O  O157  1  0.98939590  0.32147140  0.62388328  1
  O  O158  1  0.97740057  0.65689806  0.12418877  1
  O  O159  1  0.98222950  0.65886050  0.63151480  1
  O  O160  1  0.98064017  0.99926287  0.11389930  1
  O  O161  1  0.98211577  0.99562776  0.62710860  1
  O  O162  1  0.21313999  0.16022376  0.12364763  1
  O  O163  1  0.20277536  0.15766165  0.62710846  1
  O  O164  1  0.19957455  0.49672381  0.11831609  1
  O  O165  1  0.19728652  0.50217367  0.63133365  1
  O  O166  1  0.19390735  0.83117932  0.12139623  1
  O  O167  1  0.20206852  0.82379421  0.61946165  1
  O  O168  1  0.51778905  0.16437561  0.12395289  1
  O  O169  1  0.51491579  0.14021912  0.62372951  1
  O  O170  1  0.51736961  0.49058968  0.12627024  1
  O  O171  1  0.52670953  0.49134454  0.62084261  1
  O  O172  1  0.53202738  0.83225984  0.12715526  1
  O  O173  1  0.51016965  0.83116544  0.61451470  1
  O  O174  1  0.87565169  0.16125664  0.12435252  1
  O  O175  1  0.86447755  0.16616132  0.61584948  1
  O  O176  1  0.86462507  0.49542749  0.13152150  1
  O  O177  1  0.86447568  0.49776813  0.61471884  1
  O  O178  1  0.85033993  0.83083369  0.13083428  1
  O  O179  1  0.87309872  0.82428755  0.62506342  1
  O  O180  1  0.14048780  0.16828398  0.38247082  1
  O  O181  1  0.15460510  0.18006166  0.86979381  1
  O  O182  1  0.12844460  0.51945250  0.37693158  1
  O  O183  1  0.14752634  0.49942832  0.87396658  1
  O  O184  1  0.13078149  0.83493531  0.38641889  1
  O  O185  1  0.14881888  0.83953442  0.87776378  1
  O  O186  1  0.48139778  0.17641558  0.36800385  1
  O  O187  1  0.46096863  0.17531971  0.88412225  1
  O  O188  1  0.48034679  0.51355397  0.37057717  1
  O  O189  1  0.46552731  0.50209710  0.88178958  1
  O  O190  1  0.47885234  0.83976273  0.37095233  1
  O  O191  1  0.47973413  0.82515789  0.88288543  1
  O  O192  1  0.81271890  0.17575032  0.37889776  1
  O  O193  1  0.79773688  0.18331238  0.87700680  1
  O  O194  1  0.80684464  0.50656656  0.37474012  1
  O  O195  1  0.82165663  0.51664077  0.88413153  1
  O  O196  1  0.81803962  0.83350425  0.36963947  1
  O  O197  1  0.82358638  0.84394139  0.87414685  1
  O  O198  1  0.02282538  0.01414005  0.38512331  1
  O  O199  1  0.03738218  0.00245619  0.87027233  1
  O  O200  1  0.04183616  0.35536136  0.37612061  1
  O  O201  1  0.04392647  0.33996567  0.87652174  1
  O  O202  1  0.02915029  0.67540559  0.36824234  1
  O  O203  1  0.02266125  0.66179043  0.87502593  1
  O  O204  1  0.36679155  -0.00316187  0.37681487  1
  O  O205  1  0.35215137  0.00991139  0.87413585  1
  O  O206  1  0.37262431  0.33909395  0.38431902  1
  O  O207  1  0.35035570  0.34937599  0.87779292  1
  O  O208  1  0.36903596  0.67102268  0.38289858  1
  O  O209  1  0.34771004  0.66625499  0.86700063  1
  O  O210  1  0.67831038  -0.00635681  0.36847178  1
  O  O211  1  0.70069841  0.00889194  0.87688512  1
  O  O212  1  0.69354303  0.33532695  0.37706472  1
  O  O213  1  0.69443466  0.34776721  0.88016066  1
  O  O214  1  0.67912084  0.66554052  0.37423706  1
  O  O215  1  0.69496997  0.66974814  0.87728178  1
  O  O216  1  0.06888410  0.09032585  0.01953265  1
  O  O217  1  0.07370881  0.10061768  0.53201884  1
  O  O218  1  0.07370323  0.43338956  0.02697870  1
  O  O219  1  0.06225825  0.44131176  0.52682078  1
  O  O220  1  0.07281958  0.75723036  0.01585072  1
  O  O221  1  0.07716168  0.76879475  0.53295555  1
  O  O222  1  0.39815117  0.10842216  0.02103423  1
  O  O223  1  0.39468031  0.08745771  0.52533065  1
  O  O224  1  0.40025899  0.43276209  0.02743879  1
  O  O225  1  0.39862034  0.42261907  0.53245388  1
  O  O226  1  0.40658524  0.76399246  0.02440546  1
  O  O227  1  0.39634285  0.76134877  0.52432206  1
  O  O228  1  0.73984264  0.09630043  0.01877375  1
  O  O229  1  0.74647338  0.09681036  0.51154027  1
  O  O230  1  0.74770619  0.43594500  0.02495886  1
  O  O231  1  0.73342511  0.42929602  0.52082037  1
  O  O232  1  0.73260075  0.75748805  0.02081637  1
  O  O233  1  0.74273009  0.74708991  0.51374744  1
  O  O234  1  0.08846867  0.24932873  0.02790942  1
  O  O235  1  0.10074230  0.25629573  0.51269060  1
  O  O236  1  0.09467794  0.58785532  0.02292158  1
  O  O237  1  0.09661621  0.60236172  0.52766622  1
  O  O238  1  0.09688651  0.92908238  0.00960284  1
  O  O239  1  0.10004446  0.93163819  0.53401022  1
  O  O240  1  0.43151460  0.26886562  0.02777640  1
  O  O241  1  0.42741055  0.26251138  0.52494256  1
  O  O242  1  0.42221671  0.58582967  0.02032809  1
  O  O243  1  0.41065300  0.58869985  0.52313630  1
  O  O244  1  0.42404250  0.91560788  0.01939194  1
  O  O245  1  0.42307358  0.92679339  0.52106219  1
  O  O246  1  0.76611523  0.27250465  0.03338559  1
  O  O247  1  0.76778595  0.26622353  0.51006973  1
  O  O248  1  0.76252483  0.60167663  0.01309623  1
  O  O249  1  0.75173907  0.58375498  0.52554944  1
  O  O250  1  0.75064907  0.91521114  0.02043582  1
  O  O251  1  0.75762970  0.92068906  0.51442395  1
  O  O252  1  0.24969903  0.06304608  0.26785943  1
  O  O253  1  0.22467898  0.06829655  0.76932868  1
  O  O254  1  0.23175629  0.39922250  0.28020351  1
  O  O255  1  0.23209555  0.40648379  0.77275842  1
  O  O256  1  0.23261345  0.73568996  0.27896823  1
  O  O257  1  0.23341589  0.72822141  0.75639872  1
  O  O258  1  0.56709800  0.06502459  0.27086927  1
  O  O259  1  0.57643924  0.07777532  0.78140555  1
  O  O260  1  0.56006947  0.40462961  0.27075778  1
  O  O261  1  0.56217159  0.40004179  0.75326689  1
  O  O262  1  0.56445905  0.73515799  0.26935721  1
  O  O263  1  0.57623625  0.73426895  0.75550091  1
  O  O264  1  0.91537010  0.07997817  0.27638829  1
  O  O265  1  0.91026935  0.06420065  0.77449524  1
  O  O266  1  0.89913822  0.41134561  0.27804031  1
  O  O267  1  0.89920213  0.39866502  0.77970895  1
  O  O268  1  0.90868770  0.74308386  0.27386842  1
  O  O269  1  0.90576573  0.72554379  0.77683741  1
  O  O270  1  0.26234211  0.24122968  0.27467098  1
  O  O271  1  0.26513301  0.23219241  0.77077919  1
  O  O272  1  0.25251390  0.57699488  0.27094064  1
  O  O273  1  0.26898359  0.56248642  0.76866491  1
  O  O274  1  0.27208935  0.90311409  0.25733483  1
  O  O275  1  0.25764159  0.90793807  0.76764674  1
  O  O276  1  0.58798787  0.23905474  0.26843968  1
  O  O277  1  0.59973097  0.23482239  0.77530661  1
  O  O278  1  0.58803372  0.57689166  0.27187640  1
  O  O279  1  0.59677155  0.57528416  0.76182722  1
  O  O280  1  0.59250023  0.90208022  0.26857920  1
  O  O281  1  0.58975760  0.90414920  0.76365253  1
  O  O282  1  0.92895208  0.24426218  0.29217567  1
  O  O283  1  0.93838172  0.23155726  0.75464260  1
  O  O284  1  0.93062133  0.57036025  0.27203974  1
  O  O285  1  0.93430190  0.57034254  0.75913313  1
  O  O286  1  0.92372131  0.90120254  0.27038887  1
  O  O287  1  0.94114248  0.91001245  0.76212223  1
  O  O288  1  0.26256963  0.23746452  0.47595845  1
  O  O289  1  0.27030036  0.24294282  0.97285951  1
  O  O290  1  0.25612817  0.58307205  0.47695631  1
  O  O291  1  0.26446305  0.56138859  0.98009536  1
  O  O292  1  0.25926857  0.90256661  0.48107161  1
  O  O293  1  0.25247907  0.90630709  0.98652414  1
  O  O294  1  0.59415884  0.24318288  0.47841780  1
  O  O295  1  0.59197919  0.23312668  0.97610309  1
  O  O296  1  0.58543841  0.58039874  0.48529245  1
  O  O297  1  0.58709770  0.57286018  0.98331608  1
  O  O298  1  0.58012972  0.90357577  0.48063159  1
  O  O299  1  0.58655607  0.90352960  0.98887575  1
  O  O300  1  0.93004854  0.23793504  0.47627957  1
  O  O301  1  0.91920937  0.25193852  0.96274010  1
  O  O302  1  0.92750824  0.56538296  0.47706344  1
  O  O303  1  0.92996677  0.57296612  0.98895389  1
  O  O304  1  0.94374901  0.90823358  0.48376986  1
  O  O305  1  0.92861954  0.91336665  0.97806865  1
  O  O306  1  0.23301093  0.06663249  0.49006064  1
  O  O307  1  0.23661814  0.06905763  0.96776288  1
  O  O308  1  0.23768264  0.39757311  0.47494087  1
  O  O309  1  0.23781319  0.40249821  0.97289478  1
  O  O310  1  0.22971614  0.73737308  0.47638792  1
  O  O311  1  0.23626676  0.74444377  0.98645308  1
  O  O312  1  0.56220839  0.06175409  0.47511247  1
  O  O313  1  0.56652355  0.08166678  0.97958179  1
  O  O314  1  0.56818530  0.39486335  0.47698083  1
  O  O315  1  0.56454540  0.41230324  0.98964796  1
  O  O316  1  0.56574350  0.73508523  0.47383155  1
  O  O317  1  0.57185527  0.73700717  0.98578351  1
  O  O318  1  0.91357587  0.07990944  0.47609353  1
  O  O319  1  0.90963427  0.06523266  0.96866948  1
  O  O320  1  0.89924624  0.40674910  0.46588630  1
  O  O321  1  0.89835261  0.41150406  0.98872258  1
  O  O322  1  0.91922846  0.74888072  0.47088922  1
  O  O323  1  0.90623951  0.73017628  0.97984955  1
  O  O324  1  0.09326170  0.25518432  0.23169393  1
  O  O325  1  0.10600174  0.25910977  0.73531393  1
  O  O326  1  0.08349864  0.59531513  0.22881975  1
  O  O327  1  0.10066117  0.59925691  0.72431775  1
  O  O328  1  0.09014830  0.92193281  0.23887414  1
  O  O329  1  0.09787473  0.93544518  0.72393944  1
  O  O330  1  0.43433744  0.26148265  0.22777110  1
  O  O331  1  0.43245917  0.26725428  0.71704695  1
  O  O332  1  0.42547286  0.58946763  0.23371009  1
  O  O333  1  0.41805662  0.59667163  0.72623751  1
  O  O334  1  0.43594431  0.92959011  0.23593942  1
  O  O335  1  0.42597854  0.92979002  0.71673051  1
  O  O336  1  0.76874524  0.26870159  0.22988968  1
  O  O337  1  0.76886066  0.27214949  0.73985772  1
  O  O338  1  0.75897542  0.59676607  0.23566283  1
  O  O339  1  0.76128190  0.59777492  0.74759824  1
  O  O340  1  0.75350305  0.91876554  0.22406110  1
  O  O341  1  0.76703442  0.92582248  0.73858903  1
  O  O342  1  0.07422538  0.09568529  0.22672371  1
  O  O343  1  0.07221505  0.10145611  0.72131413  1
  O  O344  1  0.06157123  0.43673229  0.22176554  1
  O  O345  1  0.07077319  0.44208678  0.72675002  1
  O  O346  1  0.06549757  0.75772716  0.23488165  1
  O  O347  1  0.06665028  0.76116949  0.72475109  1
  O  O348  1  0.40355386  0.09765723  0.22831246  1
  O  O349  1  0.38757655  0.10913742  0.73602863  1
  O  O350  1  0.40352625  0.43343470  0.22386319  1
  O  O351  1  0.39547981  0.43622697  0.72297291  1
  O  O352  1  0.40423538  0.77142775  0.22442082  1
  O  O353  1  0.39118592  0.76179068  0.72543460  1
  O  O354  1  0.73744692  0.08408905  0.23639398  1
  O  O355  1  0.74260938  0.09453408  0.73194114  1
  O  O356  1  0.74539173  0.43186966  0.23038500  1
  O  O357  1  0.73072653  0.44016683  0.72226429  1
  O  O358  1  0.73280350  0.76361905  0.22840062  1
  O  O359  1  0.73847794  0.75302501  0.73554766  1
