# generated using pymatgen
data_BaLaInIrO6
_symmetry_space_group_name_H-M   'P 1'
_cell_length_a   17.51843355
_cell_length_b   17.54997605
_cell_length_c   16.48029546
_cell_angle_alpha   89.99014171
_cell_angle_beta   90.01155871
_cell_angle_gamma   90.05427023
_symmetry_Int_Tables_number   1
_chemical_formula_structural   BaLaInIrO6
_chemical_formula_sum   'Ba36 La36 In36 Ir36 O216'
_cell_volume   5066.83289697
_cell_formula_units_Z   36
loop_
 _symmetry_equiv_pos_site_id
 _symmetry_equiv_pos_as_xyz
  1  'x, y, z'
loop_
 _atom_site_type_symbol
 _atom_site_label
 _atom_site_symmetry_multiplicity
 _atom_site_fract_x
 _atom_site_fract_y
 _atom_site_fract_z
 _atom_site_occupancy
  Ba  Ba0  1  0.66506461  0.17189810  0.12852798  1
  Ba  Ba1  1  0.49696108  0.32176243  0.87182780  1
  Ba  Ba2  1  0.66438583  0.50375854  0.62703441  1
  Ba  Ba3  1  0.82722207  0.99780974  0.87600900  1
  Ba  Ba4  1  0.49901001  0.65786885  0.37686768  1
  Ba  Ba5  1  0.16182840  0.00830967  0.62519152  1
  Ba  Ba6  1  1.00890402  0.51307745  0.62488788  1
  Ba  Ba7  1  0.16967540  0.32538436  0.87167514  1
  Ba  Ba8  1  0.67012542  0.49438366  0.37453917  1
  Ba  Ba9  1  1.00545084  0.51864961  0.12491518  1
  Ba  Ba10  1  0.50457348  0.99097178  0.37952100  1
  Ba  Ba11  1  0.16461900  0.34528399  0.62001243  1
  Ba  Ba12  1  0.32857105  0.15219985  0.37716389  1
  Ba  Ba13  1  0.83569309  0.65840590  0.87702722  1
  Ba  Ba14  1  0.49708674  0.67479847  0.62614436  1
  Ba  Ba15  1  -0.00258588  0.48712570  0.87607236  1
  Ba  Ba16  1  0.33324156  0.50949927  0.62643582  1
  Ba  Ba17  1  0.83761119  0.01095164  0.62365829  1
  Ba  Ba18  1  0.83093899  0.34026784  0.12386134  1
  Ba  Ba19  1  1.00184046  0.17525250  0.62028790  1
  Ba  Ba20  1  0.66495921  0.83861498  0.12882413  1
  Ba  Ba21  1  0.66855337  0.50693928  0.12418827  1
  Ba  Ba22  1  0.00279993  0.82694850  0.37977135  1
  Ba  Ba23  1  1.00192581  0.84349489  0.62868179  1
  Ba  Ba24  1  0.49907113  0.67150801  0.12379538  1
  Ba  Ba25  1  0.32779434  0.15813941  0.87356542  1
  Ba  Ba26  1  0.16441508  0.67753972  0.12355895  1
  Ba  Ba27  1  0.66904380  0.49173320  0.87730072  1
  Ba  Ba28  1  0.33383824  0.50954393  0.11960918  1
  Ba  Ba29  1  0.66459886  0.17472751  0.62281284  1
  Ba  Ba30  1  0.49691179  0.34293719  0.62199835  1
  Ba  Ba31  1  0.66348430  0.16048506  0.37619970  1
  Ba  Ba32  1  0.32816703  0.48910587  0.86939183  1
  Ba  Ba33  1  0.00036834  0.48897248  0.37308074  1
  Ba  Ba34  1  0.83388574  0.67065296  0.12522054  1
  Ba  Ba35  1  0.16654608  0.00341245  0.12508086  1
  La  La36  1  -0.00269698  0.81914859  0.87441310  1
  La  La37  1  0.49108984  0.01659732  0.12600194  1
  La  La38  1  0.34262006  0.84637167  0.12704872  1
  La  La39  1  0.16802084  0.98018456  0.87307675  1
  La  La40  1  0.50746287  0.99171531  0.87465092  1
  La  La41  1  0.66473558  0.81425286  0.87320658  1
  La  La42  1  0.33747006  0.18620444  0.62741718  1
  La  La43  1  0.32882654  0.81780531  0.87551430  1
  La  La44  1  0.50469786  0.64675058  0.87598344  1
  La  La45  1  0.83281098  0.32959762  0.86961263  1
  La  La46  1  0.17515488  0.97497752  0.37764526  1
  La  La47  1  0.82981640  0.34615839  0.62389186  1
  La  La48  1  0.67012385  0.85027037  0.62398104  1
  La  La49  1  0.83303889  0.99020081  0.37761369  1
  La  La50  1  0.16396916  0.68121023  0.62714500  1
  La  La51  1  0.83110055  0.68179372  0.62495750  1
  La  La52  1  0.83668847  0.31816470  0.37440354  1
  La  La53  1  0.84124126  0.65291685  0.37394741  1
  La  La54  1  0.49422457  0.01608938  0.62485484  1
  La  La55  1  -0.00255761  0.15635853  0.87403619  1
  La  La56  1  0.67485174  0.16555974  0.87811295  1
  La  La57  1  0.83542820  0.01029302  0.13538121  1
  La  La58  1  0.32732433  0.48677627  0.37544495  1
  La  La59  1  1.00363126  0.18295440  0.12403422  1
  La  La60  1  0.66306988  0.81956335  0.37760033  1
  La  La61  1  0.00320925  0.15321861  0.37536136  1
  La  La62  1  0.33638412  0.18561582  0.12478591  1
  La  La63  1  1.00253611  0.83400431  0.11850240  1
  La  La64  1  0.33729942  0.84652368  0.62068790  1
  La  La65  1  0.50298790  0.32499261  0.37543546  1
  La  La66  1  0.17030203  0.32025283  0.37517374  1
  La  La67  1  0.15931438  0.35028791  0.11943047  1
  La  La68  1  0.16859981  0.64731121  0.87221734  1
  La  La69  1  0.49733361  0.34793629  0.12282365  1
  La  La70  1  0.17303989  0.65001332  0.37807749  1
  La  La71  1  0.33224584  0.81541970  0.37687145  1
  In  In72  1  0.33265423  0.00052723  0.74923973  1
  In  In73  1  0.16752205  0.16278286  0.24778864  1
  In  In74  1  0.66491654  0.66739740  0.74669864  1
  In  In75  1  0.49832067  0.83442454  -0.00309247  1
  In  In76  1  0.66437747  -0.00127099  0.25172152  1
  In  In77  1  0.83362011  0.83862839  0.00191713  1
  In  In78  1  0.83628042  0.49577117  0.25040540  1
  In  In79  1  0.33384706  0.00033356  -0.00335121  1
  In  In80  1  0.00033694  -0.00151977  0.00100526  1
  In  In81  1  0.49985903  0.83434052  0.25326956  1
  In  In82  1  0.66642779  0.33509538  0.49823408  1
  In  In83  1  0.50005510  0.50036785  0.25196052  1
  In  In84  1  0.33198546  0.66618439  0.24713792  1
  In  In85  1  0.16611395  0.49898880  0.25073735  1
  In  In86  1  0.00318356  -0.00169294  0.25127633  1
  In  In87  1  0.83723205  0.50159158  0.74715019  1
  In  In88  1  0.66438343  -0.00095050  0.00329045  1
  In  In89  1  0.66434719  0.33032117  0.00155412  1
  In  In90  1  0.33189517  0.66879199  0.74803201  1
  In  In91  1  0.16762160  0.16181327  0.00034735  1
  In  In92  1  0.16884921  0.16510374  0.50033663  1
  In  In93  1  0.66614839  0.66777111  0.00180078  1
  In  In94  1  0.83282529  0.83322944  0.49951189  1
  In  In95  1  0.33137612  0.33294360  -0.00141380  1
  In  In96  1  0.49571150  0.16729243  0.49936573  1
  In  In97  1  0.49729769  0.83612148  0.74900832  1
  In  In98  1  0.49432039  0.16795141  0.25017967  1
  In  In99  1  0.83503627  0.16641462  0.00341355  1
  In  In100  1  0.83527872  0.49790732  0.00131430  1
  In  In101  1  0.83256464  0.84029603  0.75156565  1
  In  In102  1  0.83859832  0.50144218  0.50158452  1
  In  In103  1  0.83646151  0.83402202  0.25267434  1
  In  In104  1  0.00402298  -0.00051493  0.49876982  1
  In  In105  1  0.66653488  0.66601110  0.50178885  1
  In  In106  1  0.00211989  0.32851830  0.74627432  1
  In  In107  1  0.66458347  0.33065416  0.74883841  1
  Ir  Ir108  1  0.33239788  -0.00639083  0.49870112  1
  Ir  Ir109  1  0.00681113  0.66926587  -0.00249488  1
  Ir  Ir110  1  0.17193937  0.82706413  0.50115560  1
  Ir  Ir111  1  0.66717137  0.00150211  0.50372786  1
  Ir  Ir112  1  0.50046478  0.83615123  0.50134967  1
  Ir  Ir113  1  0.66236725  0.00598693  0.74847680  1
  Ir  Ir114  1  0.66586234  0.33089282  0.25203061  1
  Ir  Ir115  1  0.16657922  0.16493807  0.74938744  1
  Ir  Ir116  1  0.83590216  0.16602026  0.74644961  1
  Ir  Ir117  1  0.00617315  0.00339534  0.75420887  1
  Ir  Ir118  1  0.16521765  0.50125452  -0.00341486  1
  Ir  Ir119  1  0.49595710  0.49766020  -0.00291767  1
  Ir  Ir120  1  0.00469850  0.66981834  0.74880191  1
  Ir  Ir121  1  0.00313720  0.32898477  0.24952724  1
  Ir  Ir122  1  0.83638624  0.16733028  0.25623786  1
  Ir  Ir123  1  0.33206034  0.33714557  0.49629589  1
  Ir  Ir124  1  0.49109717  0.50031185  0.49941435  1
  Ir  Ir125  1  0.49566229  0.49764455  0.75024100  1
  Ir  Ir126  1  0.33078042  -0.00441253  0.25316166  1
  Ir  Ir127  1  0.00013798  0.33121481  0.49215669  1
  Ir  Ir128  1  0.16668220  0.50132394  0.74646536  1
  Ir  Ir129  1  0.00576842  0.67285063  0.25460057  1
  Ir  Ir130  1  0.49576923  0.16325236  0.75225455  1
  Ir  Ir131  1  0.33032337  0.66826907  -0.00435499  1
  Ir  Ir132  1  0.49551220  0.16421308  -0.00107489  1
  Ir  Ir133  1  0.33119484  0.66679510  0.50068474  1
  Ir  Ir134  1  0.17075895  0.83000785  0.25031753  1
  Ir  Ir135  1  0.67006145  0.66724051  0.25394037  1
  Ir  Ir136  1  0.33166231  0.33174158  0.74546223  1
  Ir  Ir137  1  0.16996573  0.82932801  -0.00139643  1
  Ir  Ir138  1  0.83494767  0.16737529  0.49764355  1
  Ir  Ir139  1  0.00575758  0.66876496  0.49991077  1
  Ir  Ir140  1  0.00367993  0.32936495  0.00136250  1
  Ir  Ir141  1  0.16579618  0.83129859  0.75505901  1
  Ir  Ir142  1  0.33184769  0.33403427  0.25182865  1
  Ir  Ir143  1  0.16680943  0.50126313  0.50037366  1
  O  O144  1  0.29933113  0.32846917  0.13275414  1
  O  O145  1  0.31130645  0.32416253  0.62026124  1
  O  O146  1  0.31277428  0.66533969  0.11582708  1
  O  O147  1  0.30140353  0.66742167  0.62010979  1
  O  O148  1  0.31250712  0.98385479  0.13311626  1
  O  O149  1  0.30756766  0.98414541  0.61795732  1
  O  O150  1  0.63272849  0.32857423  0.13156338  1
  O  O151  1  0.64747560  0.32863119  0.62408156  1
  O  O152  1  0.64940747  0.66776959  0.13382841  1
  O  O153  1  0.64167702  0.65925824  0.62398223  1
  O  O154  1  0.62611419  0.99527920  0.12648335  1
  O  O155  1  0.63355521  0.99260390  0.62590758  1
  O  O156  1  0.97945838  0.32277754  0.12624308  1
  O  O157  1  0.96969139  0.32942251  0.61215583  1
  O  O158  1  0.98475705  0.67898209  0.12832682  1
  O  O159  1  0.97196525  0.66960079  0.62384617  1
  O  O160  1  0.97068178  0.97567332  0.12767128  1
  O  O161  1  0.99010733  0.99877208  0.63250334  1
  O  O162  1  0.20560605  0.15622584  0.12770191  1
  O  O163  1  0.19920169  0.16094989  0.62830170  1
  O  O164  1  0.18143014  0.49481032  0.12006169  1
  O  O165  1  0.18496067  0.50255319  0.62245207  1
  O  O166  1  0.20398622  0.82844799  0.12535151  1
  O  O167  1  0.19995085  0.82015229  0.62738665  1
  O  O168  1  0.51335225  0.16090987  0.11920562  1
  O  O169  1  0.51144491  0.16307342  0.63053805  1
  O  O170  1  0.51450009  0.48801377  0.11967197  1
  O  O171  1  0.51452278  0.49873057  0.62603800  1
  O  O172  1  0.51097895  0.82678291  0.12579459  1
  O  O173  1  0.53264354  0.83248987  0.61972849  1
  O  O174  1  0.86643743  0.15406296  0.13620451  1
  O  O175  1  0.85629508  0.16085424  0.62167089  1
  O  O176  1  0.85800550  0.49846060  0.12768005  1
  O  O177  1  0.86358589  0.48126136  0.62343210  1
  O  O178  1  0.86898982  0.82568027  0.12770010  1
  O  O179  1  0.85388670  0.82410853  0.62714685  1
  O  O180  1  0.14135489  0.18137691  0.37210686  1
  O  O181  1  0.13649830  0.17158187  0.86968578  1
  O  O182  1  0.14877257  0.50817138  0.38134281  1
  O  O183  1  0.14525505  0.50907223  0.87024163  1
  O  O184  1  0.14949606  0.83755387  0.37513150  1
  O  O185  1  0.13469090  0.83935472  0.87688999  1
  O  O186  1  0.47395009  0.18251912  0.37442257  1
  O  O187  1  0.47587466  0.15580128  0.87512700  1
  O  O188  1  0.46389807  0.49979908  0.38025978  1
  O  O189  1  0.47448764  0.50658631  0.87358266  1
  O  O190  1  0.46682999  0.83660099  0.38315896  1
  O  O191  1  0.46031425  0.85621442  0.87311833  1
  O  O192  1  0.81007560  0.18136091  0.37724260  1
  O  O193  1  0.81353034  0.18047805  0.86625718  1
  O  O194  1  0.82427703  0.51391614  0.37473255  1
  O  O195  1  0.82528042  0.49298255  0.87392383  1
  O  O196  1  0.79718225  0.84661765  0.37697002  1
  O  O197  1  0.80093522  0.84090320  0.87390437  1
  O  O198  1  0.04182636  0.01277935  0.37371371  1
  O  O199  1  0.03488297  0.01612816  0.87314360  1
  O  O200  1  0.03463296  0.33067762  0.36978502  1
  O  O201  1  0.02049032  0.32287272  0.88186598  1
  O  O202  1  0.03826243  0.67132585  0.37742334  1
  O  O203  1  0.03555072  0.67801159  0.87273359  1
  O  O204  1  0.35474400  -0.00449868  0.37637349  1
  O  O205  1  0.36984608  0.00288805  0.87207075  1
  O  O206  1  0.36480727  0.34475911  0.37407425  1
  O  O207  1  0.34459608  0.33099038  0.86749092  1
  O  O208  1  0.34903086  0.67611674  0.38090470  1
  O  O209  1  0.36149721  0.67804837  0.87683826  1
  O  O210  1  0.69556721  0.00491995  0.38362030  1
  O  O211  1  0.67287199  0.02471743  0.86712989  1
  O  O212  1  0.69729467  0.33288580  0.37055067  1
  O  O213  1  0.69285960  0.32110765  0.87273512  1
  O  O214  1  0.69851755  0.67331658  0.37524059  1
  O  O215  1  0.68313769  0.67300263  0.87222618  1
  O  O216  1  0.06584015  0.10009727  0.02826259  1
  O  O217  1  0.07145070  0.09760576  0.50988392  1
  O  O218  1  0.07363351  0.42497935  0.02126907  1
  O  O219  1  0.06943667  0.42712242  0.51339062  1
  O  O220  1  0.07280703  0.76629642  0.01707538  1
  O  O221  1  0.08048140  0.75621850  0.52752795  1
  O  O222  1  0.39825240  0.10366870  0.02750099  1
  O  O223  1  0.39901195  0.08809991  0.52573397  1
  O  O224  1  0.40952336  0.42362469  0.01626228  1
  O  O225  1  0.39660509  0.43170211  0.51131379  1
  O  O226  1  0.38803081  0.76701552  0.01377071  1
  O  O227  1  0.39890228  0.76800509  0.52181580  1
  O  O228  1  0.73105094  0.10009246  0.00284761  1
  O  O229  1  0.74020310  0.09595864  0.51976132  1
  O  O230  1  0.73890811  0.42274969  0.01419476  1
  O  O231  1  0.74449615  0.42485025  0.51637036  1
  O  O232  1  0.73424925  0.76904828  0.00755774  1
  O  O233  1  0.73502232  0.76617555  0.52981970  1
  O  O234  1  0.09713410  0.26496026  0.02903610  1
  O  O235  1  0.09155634  0.26564206  0.50851834  1
  O  O236  1  0.10090399  0.59920999  0.00520305  1
  O  O237  1  0.10561215  0.60371300  0.52042442  1
  O  O238  1  0.10098184  0.92035843  0.01466448  1
  O  O239  1  0.10200003  0.91818556  0.51042025  1
  O  O240  1  0.43324945  0.26169931  0.02418193  1
  O  O241  1  0.41474363  0.26011554  0.51768145  1
  O  O242  1  0.42616790  0.59820290  0.00816336  1
  O  O243  1  0.42231183  0.59600473  0.51923983  1
  O  O244  1  0.42973341  0.93339482  0.02996309  1
  O  O245  1  0.42944671  0.92840414  0.52804945  1
  O  O246  1  0.76212117  0.25835495  0.01267274  1
  O  O247  1  0.77289403  0.26335162  0.51675877  1
  O  O248  1  0.75746458  0.59094592  0.01228902  1
  O  O249  1  0.77585884  0.60675683  0.51681801  1
  O  O250  1  0.77178939  0.94207566  0.03243693  1
  O  O251  1  0.75235466  0.93024522  0.52351566  1
  O  O252  1  0.23408934  0.05704593  0.27720972  1
  O  O253  1  0.22948402  0.06874249  0.77344089  1
  O  O254  1  0.24154311  0.40333953  0.28003097  1
  O  O255  1  0.23786047  0.40599921  0.76064616  1
  O  O256  1  0.23173165  0.73572129  0.27607899  1
  O  O257  1  0.23105188  0.73881057  0.77838412  1
  O  O258  1  0.57081400  0.07635111  0.26395998  1
  O  O259  1  0.55596529  0.06276648  0.75861645  1
  O  O260  1  0.57171127  0.39986070  0.27270585  1
  O  O261  1  0.56783107  0.41014003  0.76522480  1
  O  O262  1  0.58233529  0.73959130  0.27362403  1
  O  O263  1  0.56333798  0.73973495  0.78045666  1
  O  O264  1  0.90277407  0.07748552  0.28350042  1
  O  O265  1  0.91244794  0.07378963  0.77377365  1
  O  O266  1  0.90867500  0.39296672  0.27425207  1
  O  O267  1  0.90394626  0.39282501  0.76688304  1
  O  O268  1  0.91249836  0.73723775  0.28037457  1
  O  O269  1  0.91685900  0.74327250  0.76923578  1
  O  O270  1  0.26147277  0.24681949  0.27351823  1
  O  O271  1  0.26452174  0.23213936  0.75552519  1
  O  O272  1  0.26103331  0.57028584  0.27665048  1
  O  O273  1  0.25204813  0.57735556  0.76591434  1
  O  O274  1  0.26845786  0.89515584  0.27581665  1
  O  O275  1  0.25807300  0.89996444  0.77943534  1
  O  O276  1  0.58883691  0.24918988  0.27025132  1
  O  O277  1  0.59165829  0.22631538  0.77434017  1
  O  O278  1  0.59712627  0.57762058  0.26711308  1
  O  O279  1  0.58198309  0.57098341  0.77032420  1
  O  O280  1  0.59895884  0.89918883  0.28303652  1
  O  O281  1  0.59961408  0.91100536  0.77218398  1
  O  O282  1  0.93470825  0.23483435  0.27699037  1
  O  O283  1  0.93006325  0.22824295  0.77084193  1
  O  O284  1  0.93218128  0.58529208  0.27023420  1
  O  O285  1  0.93756059  0.58076870  0.76513867  1
  O  O286  1  0.91968459  0.91800177  0.28674310  1
  O  O287  1  0.93866868  0.91056715  0.77600719  1
  O  O288  1  0.25874329  0.24902685  0.47895014  1
  O  O289  1  0.26426431  0.23486034  0.99365004  1
  O  O290  1  0.26333417  0.57034712  0.47308926  1
  O  O291  1  0.25738199  0.57565972  0.97330466  1
  O  O292  1  0.26752794  0.89507345  0.47583512  1
  O  O293  1  0.26359205  0.89463398  0.97545709  1
  O  O294  1  0.58280900  0.24970676  0.47798181  1
  O  O295  1  0.59111935  0.22649658  0.97773099  1
  O  O296  1  0.58293151  0.56863746  0.48385649  1
  O  O297  1  0.58172736  0.57195087  0.98243570  1
  O  O298  1  0.60077537  0.90353227  0.48088113  1
  O  O299  1  0.59897811  0.90282826  0.96308638  1
  O  O300  1  0.93168620  0.23563103  0.46685699  1
  O  O301  1  0.94246373  0.23229142  0.98777889  1
  O  O302  1  0.93760587  0.58091539  0.47982223  1
  O  O303  1  0.93637373  0.57943708  0.98680117  1
  O  O304  1  0.91869353  0.91731217  0.48032665  1
  O  O305  1  0.93880702  0.89750109  0.97234458  1
  O  O306  1  0.23759759  0.05943027  0.47571701  1
  O  O307  1  0.23072479  0.05911408  0.97159102  1
  O  O308  1  0.23692788  0.40765506  0.46913924  1
  O  O309  1  0.23273144  0.40842892  0.99170605  1
  O  O310  1  0.23718172  0.73295329  0.47704718  1
  O  O311  1  0.23575803  0.73349256  0.96848391  1
  O  O312  1  0.57546489  0.07192066  0.49338972  1
  O  O313  1  0.55238043  0.06491617  0.98766082  1
  O  O314  1  0.55976365  0.40940741  0.47497077  1
  O  O315  1  0.56322673  0.40452612  0.98762862  1
  O  O316  1  0.57365481  0.75076013  0.47516441  1
  O  O317  1  0.56400900  0.73519720  0.97178476  1
  O  O318  1  0.90368560  0.07735454  0.47008069  1
  O  O319  1  0.90776573  0.07445970  0.98220643  1
  O  O320  1  0.90667797  0.39403631  0.47167267  1
  O  O321  1  0.90878440  0.39111474  0.97821502  1
  O  O322  1  0.90901213  0.73268680  0.47760955  1
  O  O323  1  0.91985750  0.74133635  0.97984631  1
  O  O324  1  0.09633471  0.26572454  0.22190047  1
  O  O325  1  0.09909719  0.25542467  0.72816127  1
  O  O326  1  0.09545848  0.60113707  0.24207993  1
  O  O327  1  0.10315602  0.60242723  0.73006299  1
  O  O328  1  0.10206012  0.92014726  0.23723233  1
  O  O329  1  0.10029261  0.93061800  0.74226082  1
  O  O330  1  0.42192930  0.26552533  0.21975394  1
  O  O331  1  0.42352618  0.25764487  0.72814211  1
  O  O332  1  0.42512187  0.59214796  0.23536780  1
  O  O333  1  0.42544399  0.58942169  0.74075796  1
  O  O334  1  0.42770886  0.93626764  0.23031478  1
  O  O335  1  0.42823478  0.93159849  0.71284202  1
  O  O336  1  0.76133676  0.25943112  0.23458604  1
  O  O337  1  0.77497865  0.26026751  0.72713812  1
  O  O338  1  0.75836780  0.59608678  0.24362194  1
  O  O339  1  0.77080914  0.60310367  0.72352229  1
  O  O340  1  0.76551278  0.93431444  0.22605461  1
  O  O341  1  0.75251875  0.93868639  0.72948199  1
  O  O342  1  0.06161961  0.10301968  0.22583140  1
  O  O343  1  0.07194731  0.09992702  0.73488588  1
  O  O344  1  0.07445422  0.41925259  0.22845505  1
  O  O345  1  0.07815574  0.42732840  0.73690174  1
  O  O346  1  0.07138539  0.76890060  0.22828312  1
  O  O347  1  0.07756033  0.75880332  0.72836829  1
  O  O348  1  0.39215431  0.09327339  0.22622347  1
  O  O349  1  0.40115777  0.09984203  0.72122953  1
  O  O350  1  0.40404220  0.41970639  0.23091346  1
  O  O351  1  0.40317670  0.42384903  0.73166974  1
  O  O352  1  0.39331947  0.77163907  0.24009837  1
  O  O353  1  0.39188235  0.77221138  0.72770962  1
  O  O354  1  0.75048174  0.09361088  0.23355326  1
  O  O355  1  0.73390847  0.10252225  0.73787929  1
  O  O356  1  0.73712847  0.41823944  0.23597731  1
  O  O357  1  0.74523368  0.42019251  0.73257345  1
  O  O358  1  0.73983040  0.75641564  0.24107167  1
  O  O359  1  0.72938590  0.77317248  0.72943503  1
