# generated using pymatgen
data_BaLaInIrO6
_symmetry_space_group_name_H-M   'P 1'
_cell_length_a   17.50888595
_cell_length_b   17.54070224
_cell_length_c   16.48572288
_cell_angle_alpha   89.98023393
_cell_angle_beta   89.99752666
_cell_angle_gamma   89.97387682
_symmetry_Int_Tables_number   1
_chemical_formula_structural   BaLaInIrO6
_chemical_formula_sum   'Ba36 La36 In36 Ir36 O216'
_cell_volume   5063.06396390
_cell_formula_units_Z   36
loop_
 _symmetry_equiv_pos_site_id
 _symmetry_equiv_pos_as_xyz
  1  'x, y, z'
loop_
 _atom_site_type_symbol
 _atom_site_label
 _atom_site_symmetry_multiplicity
 _atom_site_fract_x
 _atom_site_fract_y
 _atom_site_fract_z
 _atom_site_occupancy
  Ba  Ba0  1  0.33900501  0.17486541  0.62541579  1
  Ba  Ba1  1  -0.00076770  0.49346975  0.37570817  1
  Ba  Ba2  1  0.33323754  0.82629212  0.87502005  1
  Ba  Ba3  1  0.66455868  0.15563756  0.36874143  1
  Ba  Ba4  1  0.33307255  0.84450114  0.12292981  1
  Ba  Ba5  1  0.49894995  0.66176728  0.87597889  1
  Ba  Ba6  1  0.66687568  0.15330077  0.87647354  1
  Ba  Ba7  1  0.16197671  0.99220725  0.37399572  1
  Ba  Ba8  1  0.66863485  0.82722685  0.37570664  1
  Ba  Ba9  1  -0.00553080  0.16117119  0.37054291  1
  Ba  Ba10  1  0.00390175  0.49016577  0.87440223  1
  Ba  Ba11  1  0.99907475  0.51042180  0.12405834  1
  Ba  Ba12  1  0.83449241  0.98858593  0.88036421  1
  Ba  Ba13  1  1.00350483  0.51334190  0.62768376  1
  Ba  Ba14  1  0.33178613  0.82228113  0.37392625  1
  Ba  Ba15  1  0.50558158  0.66093710  0.37355063  1
  Ba  Ba16  1  0.50406826  0.32095567  0.37422467  1
  Ba  Ba17  1  0.16568867  0.67675482  0.62660743  1
  Ba  Ba18  1  0.66744357  0.51027150  0.62858543  1
  Ba  Ba19  1  0.83197553  0.67692977  0.12376026  1
  Ba  Ba20  1  0.83884149  0.98590249  0.37047151  1
  Ba  Ba21  1  0.67090903  0.50759127  0.12202033  1
  Ba  Ba22  1  -0.00037006  0.15259830  0.87758454  1
  Ba  Ba23  1  0.66568143  0.84167418  0.13001120  1
  Ba  Ba24  1  0.50253568  0.99318693  0.87053269  1
  Ba  Ba25  1  0.17211727  0.66153340  0.87394442  1
  Ba  Ba26  1  0.83516915  0.33836652  0.12322971  1
  Ba  Ba27  1  0.83013292  0.65901232  0.37211329  1
  Ba  Ba28  1  0.16980093  0.32387481  0.87764919  1
  Ba  Ba29  1  0.50421853  0.00380458  0.62201548  1
  Ba  Ba30  1  0.50135282  0.32125644  0.87938200  1
  Ba  Ba31  1  0.66106463  0.49244165  0.37263916  1
  Ba  Ba32  1  0.99672898  0.17447428  0.12276819  1
  Ba  Ba33  1  0.16535027  0.34546464  0.62660270  1
  Ba  Ba34  1  0.50105644  0.67452349  0.62333309  1
  Ba  Ba35  1  0.99956822  0.84125222  0.62753564  1
  La  La36  1  0.17230048  0.31556494  0.37552318  1
  La  La37  1  0.33386290  0.17817904  0.12697657  1
  La  La38  1  0.33118168  0.15232485  0.37668179  1
  La  La39  1  0.16402750  0.66256743  0.37868087  1
  La  La40  1  0.33700105  0.84351161  0.62326398  1
  La  La41  1  0.66330528  0.48488232  0.87800408  1
  La  La42  1  0.17004891  0.98602576  0.87604092  1
  La  La43  1  0.83019796  0.67920478  0.62338906  1
  La  La44  1  0.82941649  0.34506091  0.62593030  1
  La  La45  1  0.67302378  0.17996000  0.11881120  1
  La  La46  1  0.49349197  0.35134430  0.62313243  1
  La  La47  1  0.32661870  0.48663673  0.37662257  1
  La  La48  1  0.32689720  0.14726171  0.87789347  1
  La  La49  1  0.66133339  0.82214699  0.87685662  1
  La  La50  1  0.66716992  0.17869976  0.62861798  1
  La  La51  1  0.49772079  0.35105086  0.12730356  1
  La  La52  1  -0.00857564  0.81686539  0.37545305  1
  La  La53  1  1.00463771  0.84844253  0.12280678  1
  La  La54  1  0.16163125  0.01663488  0.12610315  1
  La  La55  1  0.33864020  0.51552833  0.62751434  1
  La  La56  1  0.50457308  0.98428661  0.37259821  1
  La  La57  1  0.15716025  0.34746588  0.12433199  1
  La  La58  1  0.82451735  0.33588460  0.36060203  1
  La  La59  1  0.16362103  0.68608706  0.12198839  1
  La  La60  1  0.83990102  0.31377306  0.87591652  1
  La  La61  1  0.33903859  0.51924872  0.12253677  1
  La  La62  1  0.83190170  0.01256748  0.12353629  1
  La  La63  1  0.00054695  0.82212196  0.87533069  1
  La  La64  1  0.16272046  0.00962939  0.62488546  1
  La  La65  1  0.49836984  0.68524311  0.12756757  1
  La  La66  1  0.32410357  0.48841158  0.87100699  1
  La  La67  1  0.49657739  0.01751947  0.12621591  1
  La  La68  1  0.67262087  0.84162800  0.62498979  1
  La  La69  1  0.82729389  0.01437762  0.62342120  1
  La  La70  1  1.00339305  0.17910964  0.62286948  1
  La  La71  1  0.83809145  0.65580499  0.87410348  1
  In  In72  1  -0.00059922  0.33257120  0.75132341  1
  In  In73  1  0.16482576  0.50087584  0.49962353  1
  In  In74  1  0.82942574  0.16595211  0.25071904  1
  In  In75  1  0.83391095  0.50294896  0.24736791  1
  In  In76  1  0.33487733  0.67111545  0.74972630  1
  In  In77  1  -0.00186864  0.33189738  0.49801542  1
  In  In78  1  0.33254566  -0.00232553  0.74991501  1
  In  In79  1  0.66599779  -0.00262328  0.00098699  1
  In  In80  1  0.33608911  0.33091822  0.75163737  1
  In  In81  1  0.83389461  0.49733115  -0.00492212  1
  In  In82  1  0.66596058  0.66854371  0.24542898  1
  In  In83  1  0.83261182  0.16905624  0.50230030  1
  In  In84  1  0.50079563  0.16645328  0.74917637  1
  In  In85  1  0.33293263  0.33254352  0.00411664  1
  In  In86  1  0.66824069  0.66745896  0.50055091  1
  In  In87  1  0.83459456  0.83480739  0.75425190  1
  In  In88  1  0.17035369  0.50351379  0.00262172  1
  In  In89  1  0.33371628  -0.00113632  0.49845133  1
  In  In90  1  0.16569666  0.83460593  0.25218281  1
  In  In91  1  0.49821691  0.83803713  -0.00175246  1
  In  In92  1  0.83253179  0.49820300  0.50031226  1
  In  In93  1  0.33182658  0.33382737  0.24933062  1
  In  In94  1  0.83296061  0.49940368  0.75126570  1
  In  In95  1  0.00286648  0.33385012  0.25105531  1
  In  In96  1  -0.00350309  -0.00021349  0.50164474  1
  In  In97  1  0.49705706  0.50147715  0.49521867  1
  In  In98  1  0.66409862  0.33076279  0.75229721  1
  In  In99  1  0.33360774  0.33239821  0.49988043  1
  In  In100  1  0.00088541  0.66942080  -0.00059005  1
  In  In101  1  0.16473255  0.83481133  0.50120728  1
  In  In102  1  0.33443756  -0.00002275  0.24937478  1
  In  In103  1  0.66247627  0.33100502  0.50296500  1
  In  In104  1  0.49955535  0.50503193  -0.00180027  1
  In  In105  1  0.16872256  0.50393614  0.24944015  1
  In  In106  1  0.16651498  0.16433814  0.75149808  1
  In  In107  1  0.66714282  0.00132267  0.49719336  1
  Ir  Ir108  1  0.16863910  0.16193457  0.00392042  1
  Ir  Ir109  1  0.50461060  0.83304602  0.74502142  1
  Ir  Ir110  1  0.00229416  -0.00260845  -0.00033168  1
  Ir  Ir111  1  0.00009698  -0.00045049  0.24421547  1
  Ir  Ir112  1  0.00247047  0.67404212  0.24734100  1
  Ir  Ir113  1  0.50115806  0.16423603  0.49598921  1
  Ir  Ir114  1  0.66209584  -0.00125549  0.24647924  1
  Ir  Ir115  1  -0.00060531  -0.00208783  0.75221446  1
  Ir  Ir116  1  0.49813015  0.16628966  0.00741940  1
  Ir  Ir117  1  0.33023007  0.00361386  0.00401179  1
  Ir  Ir118  1  0.83671699  0.15972049  0.75162675  1
  Ir  Ir119  1  0.83684854  0.83157697  0.49953805  1
  Ir  Ir120  1  0.33315943  0.66924097  0.00469951  1
  Ir  Ir121  1  0.50020063  0.16691983  0.24604737  1
  Ir  Ir122  1  0.16479558  0.83590971  0.75169531  1
  Ir  Ir123  1  0.00156380  0.66923049  0.75157327  1
  Ir  Ir124  1  0.66893671  0.67067670  -0.00526479  1
  Ir  Ir125  1  0.83294124  0.16393146  -0.00114017  1
  Ir  Ir126  1  0.16786651  0.16388160  0.49817378  1
  Ir  Ir127  1  0.49556059  0.50209231  0.24397892  1
  Ir  Ir128  1  -0.00180730  0.66972086  0.50159586  1
  Ir  Ir129  1  0.67027037  -0.00387176  0.74724505  1
  Ir  Ir130  1  0.00203361  0.32859117  -0.00105215  1
  Ir  Ir131  1  0.66575150  0.32954953  -0.00057775  1
  Ir  Ir132  1  0.49951424  0.83278413  0.50170011  1
  Ir  Ir133  1  0.16938696  0.50375125  0.75064338  1
  Ir  Ir134  1  0.33379153  0.66633289  0.49574500  1
  Ir  Ir135  1  0.65848380  0.33060659  0.24448896  1
  Ir  Ir136  1  0.49942133  0.50418464  0.75447491  1
  Ir  Ir137  1  0.66861259  0.67193813  0.75280935  1
  Ir  Ir138  1  0.49860793  0.83538922  0.25013734  1
  Ir  Ir139  1  0.33545430  0.66423952  0.25087493  1
  Ir  Ir140  1  0.16689692  0.83811367  0.00035686  1
  Ir  Ir141  1  0.16956306  0.16458067  0.25160288  1
  Ir  Ir142  1  0.83392618  0.83371240  0.00092230  1
  Ir  Ir143  1  0.84018497  0.83655489  0.24620981  1
  O  O144  1  0.29335338  0.31432342  0.12772109  1
  O  O145  1  0.31435891  0.32977445  0.62578472  1
  O  O146  1  0.30216634  0.66019633  0.12874491  1
  O  O147  1  0.31545422  0.65932971  0.61736763  1
  O  O148  1  0.30151491  1.00630524  0.12237153  1
  O  O149  1  0.30224357  0.98941175  0.62492553  1
  O  O150  1  0.63133119  0.32225038  0.12148373  1
  O  O151  1  0.62557326  0.31750064  0.62966290  1
  O  O152  1  0.63638500  0.66669586  0.11440748  1
  O  O153  1  0.65112610  0.67478114  0.63410632  1
  O  O154  1  0.63098192  0.99607959  0.12846604  1
  O  O155  1  0.65414360  0.98237138  0.62725584  1
  O  O156  1  0.98774994  0.33162612  0.11755914  1
  O  O157  1  0.96731084  0.32412823  0.62771916  1
  O  O158  1  0.98238169  0.67666002  0.12791559  1
  O  O159  1  0.96850936  0.66852636  0.62450734  1
  O  O160  1  0.97038123  0.98771328  0.12102440  1
  O  O161  1  0.96474919  0.99334339  0.63529776  1
  O  O162  1  0.19910181  0.15304389  0.12823184  1
  O  O163  1  0.19056897  0.14863258  0.61858986  1
  O  O164  1  0.20372776  0.48891505  0.12688564  1
  O  O165  1  0.19750429  0.50491249  0.62933095  1
  O  O166  1  0.18298698  0.82531689  0.12147226  1
  O  O167  1  0.19587761  0.83408584  0.63200960  1
  O  O168  1  0.53448363  0.15492405  0.12769743  1
  O  O169  1  0.53007807  0.15575051  0.61520289  1
  O  O170  1  0.52195783  0.49718567  0.12568650  1
  O  O171  1  0.51747531  0.49566309  0.63516779  1
  O  O172  1  0.51322142  0.82671026  0.12841132  1
  O  O173  1  0.53387405  0.83137033  0.62292913  1
  O  O174  1  0.84522961  0.15762770  0.11983290  1
  O  O175  1  0.86604424  0.14936991  0.63570804  1
  O  O176  1  0.84878566  0.49549316  0.12008555  1
  O  O177  1  0.85721823  0.48350662  0.62729849  1
  O  O178  1  0.86946293  0.83430910  0.12334605  1
  O  O179  1  0.85058697  0.82177165  0.62195782  1
  O  O180  1  0.14190547  0.17537780  0.37368188  1
  O  O181  1  0.14807129  0.16398681  0.88509020  1
  O  O182  1  0.14911542  0.52861960  0.37284871  1
  O  O183  1  0.15510664  0.50634682  0.87135752  1
  O  O184  1  0.13032921  0.82978104  0.37475452  1
  O  O185  1  0.13595207  0.84653261  0.87637878  1
  O  O186  1  0.46758953  0.16945759  0.37013327  1
  O  O187  1  0.46489258  0.16813611  0.88847549  1
  O  O188  1  0.46486961  0.50197699  0.36379029  1
  O  O189  1  0.46421311  0.50563744  0.87341375  1
  O  O190  1  0.47752370  0.84611937  0.37737545  1
  O  O191  1  0.48378708  0.83516027  0.86620882  1
  O  O192  1  0.81325780  0.18980704  0.37583326  1
  O  O193  1  0.81357158  0.17266855  0.87524383  1
  O  O194  1  0.81134842  0.49909256  0.37364767  1
  O  O195  1  0.79738228  0.51658424  0.87322463  1
  O  O196  1  0.81858610  0.83372610  0.37373148  1
  O  O197  1  0.80022069  0.83546369  0.88214314  1
  O  O198  1  0.01353311  0.00460326  0.36596953  1
  O  O199  1  0.03368552  -0.00139609  0.87629991  1
  O  O200  1  0.03833199  0.32969869  0.37436888  1
  O  O201  1  0.02011596  0.32365641  0.88090203  1
  O  O202  1  0.02820684  0.67879152  0.37434346  1
  O  O203  1  0.02319124  0.68204414  0.87089972  1
  O  O204  1  0.36759998  0.01276881  0.37321354  1
  O  O205  1  0.35102181  0.00577052  0.88355447  1
  O  O206  1  0.35871191  0.34510910  0.37384199  1
  O  O207  1  0.35443897  0.35041482  0.87756103  1
  O  O208  1  0.35824518  0.66773441  0.37286827  1
  O  O209  1  0.34830882  0.67120967  0.88248155  1
  O  O210  1  0.68641999  -0.00137781  0.36643142  1
  O  O211  1  0.68404622  -0.00235023  0.86875696  1
  O  O212  1  0.68515882  0.33086493  0.36730090  1
  O  O213  1  0.69766903  0.33566701  0.88035739  1
  O  O214  1  0.67810282  0.67134458  0.37277197  1
  O  O215  1  0.70050337  0.68255389  0.87318889  1
  O  O216  1  0.07563946  0.08836477  0.02685263  1
  O  O217  1  0.07476797  0.09592580  0.52474407  1
  O  O218  1  0.07611464  0.41730730  0.01634407  1
  O  O219  1  0.07094937  0.42788509  0.51848229  1
  O  O220  1  0.07057540  0.77337774  0.01673462  1
  O  O221  1  0.06631141  0.76037393  0.51423876  1
  O  O222  1  0.39993301  0.09924810  0.03132099  1
  O  O223  1  0.40858190  0.09900220  0.51085223  1
  O  O224  1  0.40901945  0.42728008  0.03355595  1
  O  O225  1  0.39889079  0.43553912  0.52642592  1
  O  O226  1  0.40654309  0.75769508  0.01889529  1
  O  O227  1  0.40075610  0.76410664  0.52265190  1
  O  O228  1  0.74192424  0.09147103  0.02350858  1
  O  O229  1  0.73440740  0.09577888  0.53047948  1
  O  O230  1  0.73454663  0.42086097  0.00809584  1
  O  O231  1  0.73955083  0.42033018  0.52495849  1
  O  O232  1  0.73660122  0.76753727  0.01734669  1
  O  O233  1  0.74271463  0.76657321  0.52387571  1
  O  O234  1  0.10153323  0.25977672  0.02631455  1
  O  O235  1  0.10095353  0.25202448  0.52058954  1
  O  O236  1  0.10097821  0.60176260  0.02425167  1
  O  O237  1  0.09203145  0.60443341  0.51146782  1
  O  O238  1  0.10045106  0.93469286  0.02332483  1
  O  O239  1  0.09594343  0.93454718  0.52772923  1
  O  O240  1  0.43244005  0.25869940  0.03497263  1
  O  O241  1  0.43845862  0.26046162  0.52195662  1
  O  O242  1  0.42769160  0.60391885  0.02955652  1
  O  O243  1  0.42074325  0.59688955  0.51599855  1
  O  O244  1  0.42732126  0.93964964  0.02491978  1
  O  O245  1  0.42397089  0.91665308  0.52233654  1
  O  O246  1  0.75637073  0.25328335  0.02066800  1
  O  O247  1  0.75698886  0.25755907  0.54265713  1
  O  O248  1  0.75751192  0.60273187  0.00731385  1
  O  O249  1  0.76794650  0.60130968  0.52780867  1
  O  O250  1  0.76911719  0.92711122  0.02801109  1
  O  O251  1  0.76789720  0.92334084  0.52040997  1
  O  O252  1  0.24077133  0.07770797  0.27243272  1
  O  O253  1  0.23313019  0.06585807  0.77661887  1
  O  O254  1  0.23663929  0.40371082  0.28248874  1
  O  O255  1  0.24248232  0.41692481  0.76897951  1
  O  O256  1  0.23588150  0.72617534  0.26803893  1
  O  O257  1  0.23841841  0.74785550  0.76568517  1
  O  O258  1  0.56240166  0.06457679  0.26853935  1
  O  O259  1  0.58025362  0.06645973  0.75856661  1
  O  O260  1  0.56175951  0.40305450  0.25665647  1
  O  O261  1  0.57380229  0.41861364  0.77904487  1
  O  O262  1  0.56749162  0.74363962  0.25476650  1
  O  O263  1  0.57865453  0.74418889  0.77479407  1
  O  O264  1  0.90573559  0.06683872  0.25254029  1
  O  O265  1  0.90446819  0.06411606  0.77181894  1
  O  O266  1  0.90574127  0.40686318  0.26939064  1
  O  O267  1  0.90118070  0.39918042  0.78149444  1
  O  O268  1  0.91220569  0.74613413  0.27429682  1
  O  O269  1  0.90754907  0.73692751  0.77230356  1
  O  O270  1  0.26295981  0.23013592  0.27830837  1
  O  O271  1  0.26796449  0.23006427  0.77766392  1
  O  O272  1  0.27972378  0.56552755  0.26604929  1
  O  O273  1  0.26487270  0.57086258  0.76623252  1
  O  O274  1  0.25851933  0.90800558  0.26544115  1
  O  O275  1  0.25148112  0.90602777  0.77230830  1
  O  O276  1  0.59122510  0.23514580  0.25934868  1
  O  O277  1  0.59907856  0.23144412  0.76950162  1
  O  O278  1  0.58391872  0.57127331  0.26109688  1
  O  O279  1  0.60048267  0.57388587  0.77804698  1
  O  O280  1  0.58830396  0.90845426  0.27434202  1
  O  O281  1  0.60539397  0.89738611  0.76566827  1
  O  O282  1  0.91759308  0.24753726  0.25953197  1
  O  O283  1  0.92139561  0.23228446  0.77047173  1
  O  O284  1  0.93482757  0.58384558  0.26247750  1
  O  O285  1  0.92790881  0.58229743  0.77276051  1
  O  O286  1  0.93931014  0.90051963  0.26392906  1
  O  O287  1  0.93582033  0.90325152  0.77970828  1
  O  O288  1  0.26069309  0.23269854  0.47115139  1
  O  O289  1  0.26745772  0.22284822  0.98469732  1
  O  O290  1  0.26932009  0.57252896  0.47751732  1
  O  O291  1  0.27603466  0.57043723  0.98650926  1
  O  O292  1  0.25989338  0.90495954  0.48160271  1
  O  O293  1  0.25871006  0.91120880  0.97839358  1
  O  O294  1  0.59458460  0.22621885  0.48380453  1
  O  O295  1  0.59565928  0.23146513  0.98957197  1
  O  O296  1  0.59017636  0.57575860  0.49039650  1
  O  O297  1  0.60321841  0.57500689  0.97088649  1
  O  O298  1  0.58685877  0.90795176  0.48487726  1
  O  O299  1  0.59863051  0.90110704  0.97758508  1
  O  O300  1  0.93956833  0.22414524  0.50057924  1
  O  O301  1  0.92158412  0.24092074  0.97711071  1
  O  O302  1  0.93137124  0.57951906  0.48617388  1
  O  O303  1  0.92283192  0.58034681  0.97464289  1
  O  O304  1  0.93205494  0.89415792  0.47732611  1
  O  O305  1  0.93614263  0.89785983  0.97963865  1
  O  O306  1  0.24011636  0.07830715  0.47490739  1
  O  O307  1  0.23334986  0.06654333  0.97740858  1
  O  O308  1  0.23575540  0.40461873  0.46928642  1
  O  O309  1  0.24308501  0.40977898  0.98236399  1
  O  O310  1  0.23886722  0.73206416  0.47801989  1
  O  O311  1  0.23327788  0.73779666  0.99243505  1
  O  O312  1  0.56346348  0.06819773  0.47094605  1
  O  O313  1  0.56444987  0.07310908  0.99074679  1
  O  O314  1  0.56363970  0.40102538  0.49326861  1
  O  O315  1  0.57970208  0.40698666  0.98218262  1
  O  O316  1  0.57331921  0.74948212  0.48677540  1
  O  O317  1  0.57942496  0.74129371  0.98147049  1
  O  O318  1  0.89467313  0.06184012  0.49461031  1
  O  O319  1  0.90463010  0.06731180  0.99002403  1
  O  O320  1  0.89364757  0.39005618  0.47076852  1
  O  O321  1  0.90836554  0.39575832  0.97415995  1
  O  O322  1  0.90362800  0.73772703  0.48198939  1
  O  O323  1  0.90176416  0.74457004  0.97058154  1
  O  O324  1  0.10752663  0.25938285  0.22812503  1
  O  O325  1  0.08696773  0.25056074  0.72631345  1
  O  O326  1  0.09934863  0.61076843  0.22648212  1
  O  O327  1  0.09419018  0.59639036  0.73431294  1
  O  O328  1  0.09180112  0.93266986  0.21919692  1
  O  O329  1  0.09810131  0.93452226  0.73066330  1
  O  O330  1  0.43260569  0.25969938  0.21815043  1
  O  O331  1  0.44003937  0.26980657  0.72699646  1
  O  O332  1  0.43152388  0.59908827  0.21886167  1
  O  O333  1  0.42671970  0.59071987  0.73151918  1
  O  O334  1  0.43652556  0.93250782  0.23075493  1
  O  O335  1  0.42537313  0.91628213  0.72494073  1
  O  O336  1  0.74427156  0.25596998  0.22466459  1
  O  O337  1  0.76861853  0.25137229  0.72783156  1
  O  O338  1  0.75521855  0.59182908  0.22924416  1
  O  O339  1  0.76558904  0.60985348  0.73251240  1
  O  O340  1  0.76550034  0.93312595  0.22222365  1
  O  O341  1  0.76458782  0.93065039  0.72640764  1
  O  O342  1  0.07663601  0.09080005  0.22316405  1
  O  O343  1  0.06698718  0.08633497  0.72211800  1
  O  O344  1  0.07912380  0.42560705  0.22345969  1
  O  O345  1  0.08020699  0.43014906  0.73855441  1
  O  O346  1  0.06702571  0.76657207  0.22464546  1
  O  O347  1  0.07248488  0.76601692  0.73835957  1
  O  O348  1  0.40782408  0.10109812  0.22299443  1
  O  O349  1  0.40526691  0.09358835  0.74576466  1
  O  O350  1  0.40357044  0.43313430  0.21800056  1
  O  O351  1  0.40690146  0.43774286  0.72960243  1
  O  O352  1  0.40586593  0.75878138  0.22783115  1
  O  O353  1  0.40895161  0.76690098  0.72327133  1
  O  O354  1  0.73220400  0.08892359  0.21987306  1
  O  O355  1  0.73939167  0.09079510  0.72175101  1
  O  O356  1  0.73452484  0.41319855  0.23585833  1
  O  O357  1  0.74087887  0.41989519  0.73253638  1
  O  O358  1  0.74990429  0.76632182  0.23423208  1
  O  O359  1  0.73337209  0.76655766  0.73135212  1
