# generated using pymatgen
data_BaLaInIrO6
_symmetry_space_group_name_H-M   'P 1'
_cell_length_a   17.53125098
_cell_length_b   17.55053097
_cell_length_c   16.48733074
_cell_angle_alpha   89.98070312
_cell_angle_beta   89.98109339
_cell_angle_gamma   89.96855506
_symmetry_Int_Tables_number   1
_chemical_formula_structural   BaLaInIrO6
_chemical_formula_sum   'Ba36 La36 In36 Ir36 O216'
_cell_volume   5072.86615564
_cell_formula_units_Z   36
loop_
 _symmetry_equiv_pos_site_id
 _symmetry_equiv_pos_as_xyz
  1  'x, y, z'
loop_
 _atom_site_type_symbol
 _atom_site_label
 _atom_site_symmetry_multiplicity
 _atom_site_fract_x
 _atom_site_fract_y
 _atom_site_fract_z
 _atom_site_occupancy
  Ba  Ba0  1  0.50480978  0.65532938  0.37576958  1
  Ba  Ba1  1  0.83412883  0.98978397  0.87349642  1
  Ba  Ba2  1  0.33285052  0.16117101  0.37081739  1
  Ba  Ba3  1  0.66741670  0.50182973  0.62765045  1
  Ba  Ba4  1  0.66624412  0.84135515  0.13068860  1
  Ba  Ba5  1  0.50009554  0.34044120  0.12742167  1
  Ba  Ba6  1  0.16387469  0.67256664  0.12081642  1
  Ba  Ba7  1  0.50260414  0.99306509  0.37772320  1
  Ba  Ba8  1  0.83200063  0.65896469  0.37207882  1
  Ba  Ba9  1  1.00013013  0.83954016  0.12628901  1
  Ba  Ba10  1  0.49890657  0.00863914  0.12413205  1
  Ba  Ba11  1  0.50064268  0.34049851  0.62540720  1
  Ba  Ba12  1  0.17094412  0.67652295  0.62537338  1
  Ba  Ba13  1  0.83425550  0.32491726  0.37906016  1
  Ba  Ba14  1  0.83334174  0.32309460  0.87299067  1
  Ba  Ba15  1  0.49626213  0.67494753  0.12781237  1
  Ba  Ba16  1  0.33163544  0.17685673  0.62415613  1
  Ba  Ba17  1  0.16093440  0.00787386  0.12494809  1
  Ba  Ba18  1  0.16384005  0.00888935  0.62203016  1
  Ba  Ba19  1  0.83478919  0.98447685  0.37692756  1
  Ba  Ba20  1  0.16830563  0.99049826  0.87299384  1
  Ba  Ba21  1  0.16693536  0.32634321  0.37243230  1
  Ba  Ba22  1  0.00253271  0.49303563  0.88024780  1
  Ba  Ba23  1  1.00407703  0.17640691  0.62547194  1
  Ba  Ba24  1  0.83053680  0.00559529  0.12620406  1
  Ba  Ba25  1  0.66729484  0.82474626  0.37443539  1
  Ba  Ba26  1  0.83502522  0.66929122  0.62414583  1
  Ba  Ba27  1  0.83172362  0.00863025  0.62764351  1
  Ba  Ba28  1  0.83195074  0.67777511  0.12346280  1
  Ba  Ba29  1  0.83613272  0.33873369  0.62880559  1
  Ba  Ba30  1  0.33419362  0.50784597  0.12926545  1
  Ba  Ba31  1  0.00274495  0.82231169  0.37467800  1
  Ba  Ba32  1  0.49972313  0.01363503  0.62372607  1
  Ba  Ba33  1  0.50213914  0.32131987  0.87878188  1
  Ba  Ba34  1  -0.00074521  0.82909912  0.87253877  1
  Ba  Ba35  1  0.33031398  0.49081885  0.87954860  1
  La  La36  1  0.15990049  0.35404984  0.62286384  1
  La  La37  1  0.17025607  0.98478334  0.37378314  1
  La  La38  1  0.17078766  0.65485129  0.87154739  1
  La  La39  1  0.33124549  0.48448557  0.37396289  1
  La  La40  1  0.65857534  0.15409676  0.37463660  1
  La  La41  1  0.32616401  0.82110567  0.37181334  1
  La  La42  1  0.50334294  0.98753829  0.87352897  1
  La  La43  1  -0.00612777  0.14795593  0.37617182  1
  La  La44  1  0.99980916  0.50809928  0.62146631  1
  La  La45  1  0.66571414  0.82011228  0.87379283  1
  La  La46  1  0.66502956  0.49266021  0.37868967  1
  La  La47  1  0.66541495  0.17298267  0.11936490  1
  La  La48  1  0.50311581  0.32423344  0.37729421  1
  La  La49  1  0.99927874  0.18008287  0.12425842  1
  La  La50  1  0.34121275  0.85542191  0.62917229  1
  La  La51  1  0.16404698  0.34581548  0.12650235  1
  La  La52  1  0.67139326  0.18028116  0.62302119  1
  La  La53  1  0.82550604  0.34522878  0.12274244  1
  La  La54  1  0.49441717  0.68269606  0.62433224  1
  La  La55  1  0.83675422  0.65013051  0.87396345  1
  La  La56  1  0.33257327  0.15540393  0.87568411  1
  La  La57  1  0.17508664  0.32042774  0.87165281  1
  La  La58  1  -0.00496920  0.14966395  0.87300358  1
  La  La59  1  0.32722734  0.81908286  0.87520195  1
  La  La60  1  -0.00298775  0.49046402  0.37336809  1
  La  La61  1  0.34003934  0.85008810  0.12120151  1
  La  La62  1  0.66981144  0.84603894  0.62020010  1
  La  La63  1  0.66950111  0.51295529  0.12223931  1
  La  La64  1  1.00030440  0.84903292  0.62132429  1
  La  La65  1  0.34149106  0.51271379  0.62525888  1
  La  La66  1  0.33574507  0.18325461  0.12225615  1
  La  La67  1  0.50065685  0.64670706  0.87609522  1
  La  La68  1  1.00317716  0.51599060  0.12790569  1
  La  La69  1  0.17218899  0.65277724  0.37754245  1
  La  La70  1  0.66336992  0.14939908  0.87309818  1
  La  La71  1  0.66242292  0.48067393  0.87713826  1
  In  In72  1  0.49764597  0.83296941  0.49965406  1
  In  In73  1  0.16461214  0.16853429  0.00216066  1
  In  In74  1  0.49798879  0.17169748  0.50277357  1
  In  In75  1  0.33239047  0.00208600  0.49630958  1
  In  In76  1  0.66691244  0.00221256  0.24881280  1
  In  In77  1  -0.00031661  -0.00062586  0.74821615  1
  In  In78  1  0.33301831  0.33434366  0.74790459  1
  In  In79  1  -0.00157191  -0.00131707  0.00255029  1
  In  In80  1  0.66616257  0.66498409  0.75089926  1
  In  In81  1  0.49758751  0.16754274  0.24767149  1
  In  In82  1  0.16538119  0.49732245  -0.00041566  1
  In  In83  1  0.66950599  0.00110436  0.50134745  1
  In  In84  1  0.83555382  0.49679341  0.75210188  1
  In  In85  1  0.33292886  0.66829589  0.00355173  1
  In  In86  1  0.66742922  0.66464184  -0.00327933  1
  In  In87  1  0.83363469  0.16681807  -0.00200963  1
  In  In88  1  0.66653741  0.66360430  0.25084744  1
  In  In89  1  0.16734088  0.83024412  0.24535708  1
  In  In90  1  0.00092695  0.33250271  0.49729550  1
  In  In91  1  0.66900680  0.33445041  0.24995115  1
  In  In92  1  0.16954858  0.83149518  0.74688658  1
  In  In93  1  0.66461458  0.66396498  0.50435533  1
  In  In94  1  0.50077122  0.49850190  0.74956159  1
  In  In95  1  0.16575115  0.16949712  0.49634600  1
  In  In96  1  0.49678455  0.83379169  0.25168623  1
  In  In97  1  0.16376299  0.16678649  0.24868018  1
  In  In98  1  0.16724292  0.16901286  0.75051459  1
  In  In99  1  0.00357191  0.33427354  0.75521648  1
  In  In100  1  0.16572625  0.50023574  0.25325902  1
  In  In101  1  0.16871502  0.83016302  0.50038486  1
  In  In102  1  0.49953584  0.49634938  0.00395865  1
  In  In103  1  0.83403273  0.16912787  0.25029444  1
  In  In104  1  0.83152318  0.82814239  0.74889416  1
  In  In105  1  -0.00208923  0.67082015  -0.00252832  1
  In  In106  1  0.49847323  0.83187888  -0.00442512  1
  In  In107  1  0.83512716  0.49983175  0.49765554  1
  Ir  Ir108  1  0.33360600  0.66529906  0.25718721  1
  Ir  Ir109  1  0.66225106  -0.00117980  0.75276981  1
  Ir  Ir110  1  0.17110553  0.83346840  -0.00334698  1
  Ir  Ir111  1  -0.00172179  0.00040493  0.25114149  1
  Ir  Ir112  1  0.83274293  0.49468320  0.00297833  1
  Ir  Ir113  1  0.49844949  0.49604975  0.25578426  1
  Ir  Ir114  1  0.49651640  0.49677533  0.49822194  1
  Ir  Ir115  1  0.17086071  0.50664350  0.74617137  1
  Ir  Ir116  1  0.83528095  0.49711519  0.24432406  1
  Ir  Ir117  1  0.33040985  0.34063155  0.49750066  1
  Ir  Ir118  1  0.66740032  0.32768362  -0.00000868  1
  Ir  Ir119  1  0.50147212  0.16535750  0.75414324  1
  Ir  Ir120  1  0.17025832  0.50588138  0.50085377  1
  Ir  Ir121  1  0.66394697  0.00003808  -0.00595669  1
  Ir  Ir122  1  -0.00250030  0.00033725  0.49584259  1
  Ir  Ir123  1  0.66769037  0.33349732  0.50028093  1
  Ir  Ir124  1  0.83127895  0.16703858  0.50159206  1
  Ir  Ir125  1  0.82822750  0.16592102  0.74880263  1
  Ir  Ir126  1  0.66665794  0.32649974  0.75263773  1
  Ir  Ir127  1  0.00046583  0.66500130  0.25286661  1
  Ir  Ir128  1  0.49903305  0.16472534  -0.00366197  1
  Ir  Ir129  1  0.83931887  0.82888773  0.50055488  1
  Ir  Ir130  1  0.49771849  0.83395042  0.75442883  1
  Ir  Ir131  1  -0.00021747  0.33441777  0.00524271  1
  Ir  Ir132  1  0.33201527  0.32939357  0.00060594  1
  Ir  Ir133  1  0.32888247  0.00026030  0.24459216  1
  Ir  Ir134  1  -0.00379842  0.33537405  0.24444974  1
  Ir  Ir135  1  0.33498891  0.00304637  -0.00196455  1
  Ir  Ir136  1  0.33774468  0.66925911  0.74659056  1
  Ir  Ir137  1  0.33378079  0.33504761  0.24981028  1
  Ir  Ir138  1  0.83781885  0.83206375  0.25073570  1
  Ir  Ir139  1  0.82598033  0.83425448  -0.00007347  1
  Ir  Ir140  1  0.34079497  0.00152978  0.75552565  1
  Ir  Ir141  1  0.33523168  0.66371317  0.50007333  1
  Ir  Ir142  1  0.00400631  0.66541390  0.74913107  1
  Ir  Ir143  1  0.00536511  0.66600017  0.50107657  1
  O  O144  1  0.30134805  0.32433736  0.12556441  1
  O  O145  1  0.29894051  0.33702411  0.61746442  1
  O  O146  1  0.31387994  0.66049170  0.13685160  1
  O  O147  1  0.31640030  0.64734102  0.62261369  1
  O  O148  1  0.30690668  0.98743395  0.11925493  1
  O  O149  1  0.31443964  0.99443875  0.63545976  1
  O  O150  1  0.64827231  0.31388825  0.11975593  1
  O  O151  1  0.64630919  0.31646093  0.62745721  1
  O  O152  1  0.64826763  0.65154007  0.12369664  1
  O  O153  1  0.62868975  0.65628938  0.62927642  1
  O  O154  1  0.64872561  1.00155517  0.11376189  1
  O  O155  1  0.64681796  0.98622256  0.63255656  1
  O  O156  1  0.96163121  0.32090803  0.12464170  1
  O  O157  1  0.98820241  0.34037751  0.62586575  1
  O  O158  1  0.98101763  0.65618655  0.13034999  1
  O  O159  1  0.98355800  0.64647384  0.62450435  1
  O  O160  1  0.97956146  0.99573870  0.13184238  1
  O  O161  1  0.98213554  0.99218966  0.61634822  1
  O  O162  1  0.20018345  0.16642276  0.12577867  1
  O  O163  1  0.18236744  0.16151109  0.62373637  1
  O  O164  1  0.18444183  0.48878157  0.12762762  1
  O  O165  1  0.20333818  0.49851041  0.62319006  1
  O  O166  1  0.20079721  0.83004090  0.11800502  1
  O  O167  1  0.20631353  0.83287784  0.62324316  1
  O  O168  1  0.52889599  0.16647121  0.11615295  1
  O  O169  1  0.53155590  0.16985843  0.63414395  1
  O  O170  1  0.52869152  0.49821463  0.13449977  1
  O  O171  1  0.51607277  0.49725317  0.61809868  1
  O  O172  1  0.50977949  0.83367709  0.12180598  1
  O  O173  1  0.53126439  0.82252324  0.63738621  1
  O  O174  1  0.86558622  0.16507227  0.12381374  1
  O  O175  1  0.85554921  0.16932632  0.62550617  1
  O  O176  1  0.86912697  0.48646079  0.12353003  1
  O  O177  1  0.86513798  0.49557064  0.62498199  1
  O  O178  1  0.85302647  0.83474725  0.12655169  1
  O  O179  1  0.86574465  0.82583039  0.61901776  1
  O  O180  1  0.12943817  0.17514776  0.37062633  1
  O  O181  1  0.13215327  0.18498074  0.87869434  1
  O  O182  1  0.13580737  0.50891095  0.38037123  1
  O  O183  1  0.15234443  0.51155036  0.86759428  1
  O  O184  1  0.15426164  0.83895527  0.37290157  1
  O  O185  1  0.15202231  0.83426482  0.87659134  1
  O  O186  1  0.48122765  0.18729028  0.37450333  1
  O  O187  1  0.46913466  0.16402993  0.87541981  1
  O  O188  1  0.46736970  0.49398203  0.37750988  1
  O  O189  1  0.47909944  0.50310987  0.87586731  1
  O  O190  1  0.46009659  0.83639703  0.37606158  1
  O  O191  1  0.46198058  0.84869079  0.86993566  1
  O  O192  1  0.79964212  0.16817026  0.38249622  1
  O  O193  1  0.79947288  0.16733550  0.86842189  1
  O  O194  1  0.80414281  0.49941661  0.36418863  1
  O  O195  1  0.80057372  0.50469846  0.88442613  1
  O  O196  1  0.81801951  0.82605497  0.37664538  1
  O  O197  1  0.80153655  0.83400130  0.87951650  1
  O  O198  1  0.02856340  0.00884494  0.37268897  1
  O  O199  1  0.01646478  0.00574893  0.87601782  1
  O  O200  1  0.02064454  0.35068825  0.36358048  1
  O  O201  1  0.03876379  0.34058633  0.88779345  1
  O  O202  1  0.03464661  0.66870590  0.37805114  1
  O  O203  1  0.03225514  0.67299067  0.86900820  1
  O  O204  1  0.35317621  0.00344801  0.36225594  1
  O  O205  1  0.36905492  0.01538460  0.87786851  1
  O  O206  1  0.36468964  0.34598611  0.37294575  1
  O  O207  1  0.35133129  0.33620361  0.88102329  1
  O  O208  1  0.35826367  0.68122634  0.37917287  1
  O  O209  1  0.36593222  0.68079450  0.86641524  1
  O  O210  1  0.68931560  0.01845468  0.37605740  1
  O  O211  1  0.68556562  0.01153085  0.87343659  1
  O  O212  1  0.68520142  0.35126325  0.38021481  1
  O  O213  1  0.68602000  0.34186488  0.87650320  1
  O  O214  1  0.68049227  0.65531439  0.37665324  1
  O  O215  1  0.70453967  0.68280041  0.87516691  1
  O  O216  1  0.06653433  0.10133300  0.02464323  1
  O  O217  1  0.06105262  0.09364313  0.50561898  1
  O  O218  1  0.06461139  0.42457247  0.03482342  1
  O  O219  1  0.07858196  0.43887772  0.52476918  1
  O  O220  1  0.08056667  0.76258920  0.01400698  1
  O  O221  1  0.06755599  0.76210870  0.52727205  1
  O  O222  1  0.39805642  0.10218591  0.01979356  1
  O  O223  1  0.40631174  0.09529574  0.51327116  1
  O  O224  1  0.40318196  0.41806151  0.02152664  1
  O  O225  1  0.39394433  0.43887812  0.51619093  1
  O  O226  1  0.39190195  0.77268944  0.01343379  1
  O  O227  1  0.39804287  0.75569419  0.53336095  1
  O  O228  1  0.72654491  0.09930702  0.01261111  1
  O  O229  1  0.74045484  0.10059645  0.52831915  1
  O  O230  1  0.73701535  0.42283387  0.02861937  1
  O  O231  1  0.73987280  0.41996390  0.51687507  1
  O  O232  1  0.73496247  0.76790730  0.01541404  1
  O  O233  1  0.74265081  0.76492683  0.52306613  1
  O  O234  1  0.09187264  0.27020298  0.03461289  1
  O  O235  1  0.10236772  0.27261334  0.51987252  1
  O  O236  1  0.08027927  0.58369525  0.01583231  1
  O  O237  1  0.10198129  0.59996807  0.51606681  1
  O  O238  1  0.09883541  0.92114599  0.01323384  1
  O  O239  1  0.08808948  0.92935904  0.50935600  1
  O  O240  1  0.42448167  0.25505192  0.02381184  1
  O  O241  1  0.42356813  0.27434788  0.51188239  1
  O  O242  1  0.43094391  0.59770137  0.00644966  1
  O  O243  1  0.43111837  0.59429863  0.52526900  1
  O  O244  1  0.42470707  0.93490603  0.01085231  1
  O  O245  1  0.42008006  0.92089279  0.52857694  1
  O  O246  1  0.76067946  0.26160013  0.02371418  1
  O  O247  1  0.75802216  0.25852174  0.52541684  1
  O  O248  1  0.76063652  0.58000376  0.02359511  1
  O  O249  1  0.75824127  0.58839642  0.51617837  1
  O  O250  1  0.75737393  0.93026539  0.01558347  1
  O  O251  1  0.76553459  0.91695980  0.51969915  1
  O  O252  1  0.23354017  0.06373053  0.27087044  1
  O  O253  1  0.25425912  0.07626339  0.77732404  1
  O  O254  1  0.24767160  0.41078836  0.27012653  1
  O  O255  1  0.22893269  0.40717240  0.76513369  1
  O  O256  1  0.24072603  0.73156071  0.27897687  1
  O  O257  1  0.24333078  0.73477704  0.77541637  1
  O  O258  1  0.57429733  0.08020039  0.26978889  1
  O  O259  1  0.56910135  0.07103805  0.77890442  1
  O  O260  1  0.56611621  0.40450012  0.27641362  1
  O  O261  1  0.58109932  0.40307212  0.76771957  1
  O  O262  1  0.57391888  0.74003025  0.26345481  1
  O  O263  1  0.56178203  0.74153189  0.78361996  1
  O  O264  1  0.91046842  0.07278624  0.27362866  1
  O  O265  1  0.90197050  0.08076755  0.76588124  1
  O  O266  1  0.90458506  0.40675426  0.26600748  1
  O  O267  1  0.91309127  0.40866640  0.77500992  1
  O  O268  1  0.91143310  0.73738747  0.26435968  1
  O  O269  1  0.90490418  0.72654191  0.77268263  1
  O  O270  1  0.26005387  0.24819525  0.26320562  1
  O  O271  1  0.26424743  0.23970238  0.78104232  1
  O  O272  1  0.26308379  0.57450017  0.28428510  1
  O  O273  1  0.26695924  0.57630093  0.76895391  1
  O  O274  1  0.26392872  0.90610591  0.26904660  1
  O  O275  1  0.27549344  0.90573849  0.77241389  1
  O  O276  1  0.59795213  0.24056113  0.27166934  1
  O  O277  1  0.59794835  0.22978534  0.77563901  1
  O  O278  1  0.59525582  0.55604798  0.27222348  1
  O  O279  1  0.59524111  0.57039647  0.78661256  1
  O  O280  1  0.58846529  0.91254541  0.26750519  1
  O  O281  1  0.59168281  0.90322547  0.78281127  1
  O  O282  1  0.93913910  0.23782272  0.27161329  1
  O  O283  1  0.92563372  0.23171446  0.77279997  1
  O  O284  1  0.93310918  0.56343871  0.27013427  1
  O  O285  1  0.93547239  0.57664033  0.76987164  1
  O  O286  1  0.92992028  0.90560155  0.26851033  1
  O  O287  1  0.92271951  0.90484666  0.75545280  1
  O  O288  1  0.26547445  0.24880073  0.47845300  1
  O  O289  1  0.26409609  0.23936926  0.97487565  1
  O  O290  1  0.26665656  0.57139150  0.47027518  1
  O  O291  1  0.25071165  0.58250681  0.98152752  1
  O  O292  1  0.26215600  0.90508037  0.47193624  1
  O  O293  1  0.27085934  0.90204415  0.97662090  1
  O  O294  1  0.59827664  0.24515076  0.47634989  1
  O  O295  1  0.60109940  0.22896484  0.97549430  1
  O  O296  1  0.59187063  0.55664416  0.47832784  1
  O  O297  1  0.60129545  0.56344404  0.97647322  1
  O  O298  1  0.59638161  0.90475680  0.49234516  1
  O  O299  1  0.59625675  0.90712806  0.96686903  1
  O  O300  1  0.92684241  0.23253947  0.47603370  1
  O  O301  1  0.93913774  0.24039339  0.97656157  1
  O  O302  1  0.94233864  0.57118731  0.47866362  1
  O  O303  1  0.91437438  0.57466358  0.98004832  1
  O  O304  1  0.93362786  0.90001220  0.48792749  1
  O  O305  1  0.91739704  0.90237466  0.98740651  1
  O  O306  1  0.23101085  0.06798215  0.47237186  1
  O  O307  1  0.24739166  0.07515710  0.97696113  1
  O  O308  1  0.23975631  0.41454463  0.47487620  1
  O  O309  1  0.23331215  0.39368192  0.98383810  1
  O  O310  1  0.24183828  0.72977876  0.47329787  1
  O  O311  1  0.23656339  0.74182504  0.97067229  1
  O  O312  1  0.58150902  0.08507976  0.48398048  1
  O  O313  1  0.56776950  0.06937153  0.96898688  1
  O  O314  1  0.56756818  0.40193635  0.47524624  1
  O  O315  1  0.58120035  0.40252552  0.98490484  1
  O  O316  1  0.56568253  0.73448584  0.49516780  1
  O  O317  1  0.56764905  0.73450323  0.96655025  1
  O  O318  1  0.90497306  0.07569349  0.47697288  1
  O  O319  1  0.90979745  0.07938319  0.97397039  1
  O  O320  1  0.91817923  0.41635982  0.47254747  1
  O  O321  1  0.90422528  0.40223245  0.98482817  1
  O  O322  1  0.91125328  0.73274800  0.48354277  1
  O  O323  1  0.89425650  0.73922954  0.97731065  1
  O  O324  1  0.08815301  0.26888203  0.21699831  1
  O  O325  1  0.10940422  0.27989753  0.73492598  1
  O  O326  1  0.08748687  0.59290492  0.23621950  1
  O  O327  1  0.10595547  0.60494952  0.73983420  1
  O  O328  1  0.09089031  0.93067699  0.24145470  1
  O  O329  1  0.09041834  0.91922051  0.72655410  1
  O  O330  1  0.41705733  0.25836056  0.22683679  1
  O  O331  1  0.43140148  0.25540398  0.73606279  1
  O  O332  1  0.42637332  0.59133166  0.23821922  1
  O  O333  1  0.43368437  0.60444497  0.72904023  1
  O  O334  1  0.41392035  0.92789804  0.22395378  1
  O  O335  1  0.43086585  0.92744923  0.72907870  1
  O  O336  1  0.77203889  0.27202760  0.23024686  1
  O  O337  1  0.75365173  0.25169976  0.72766574  1
  O  O338  1  0.76249737  0.58177129  0.22362317  1
  O  O339  1  0.76602492  0.59407032  0.74418589  1
  O  O340  1  0.76412629  0.91976031  0.24097658  1
  O  O341  1  0.74931032  0.92604167  0.73380872  1
  O  O342  1  0.05996046  0.09743445  0.22876359  1
  O  O343  1  0.06929317  0.09837305  0.74616007  1
  O  O344  1  0.06379286  0.42817958  0.22326720  1
  O  O345  1  0.07860486  0.44347406  0.72088772  1
  O  O346  1  0.07359302  0.75206955  0.23237382  1
  O  O347  1  0.06461790  0.76003666  0.72361653  1
  O  O348  1  0.39360355  0.09545403  0.22036369  1
  O  O349  1  0.40772675  0.09770517  0.73544764  1
  O  O350  1  0.40446708  0.42849049  0.23744544  1
  O  O351  1  0.39988573  0.43259813  0.72725321  1
  O  O352  1  0.39078843  0.76278849  0.23323206  1
  O  O353  1  0.40312437  0.76710370  0.72240881  1
  O  O354  1  0.73320845  0.10456232  0.22359164  1
  O  O355  1  0.72735200  0.09797784  0.72862235  1
  O  O356  1  0.74054845  0.43179106  0.21650774  1
  O  O357  1  0.73785667  0.41660559  0.73993730  1
  O  O358  1  0.75100554  0.75777301  0.23899417  1
  O  O359  1  0.72721228  0.77011926  0.72614262  1
