# generated using pymatgen
data_BaLaInIrO6
_symmetry_space_group_name_H-M   'P 1'
_cell_length_a   17.54190914
_cell_length_b   17.58046648
_cell_length_c   16.50822938
_cell_angle_alpha   90.00058943
_cell_angle_beta   90.03243516
_cell_angle_gamma   89.97166527
_symmetry_Int_Tables_number   1
_chemical_formula_structural   BaLaInIrO6
_chemical_formula_sum   'Ba36 La36 In36 Ir36 O216'
_cell_volume   5091.05306443
_cell_formula_units_Z   36
loop_
 _symmetry_equiv_pos_site_id
 _symmetry_equiv_pos_as_xyz
  1  'x, y, z'
loop_
 _atom_site_type_symbol
 _atom_site_label
 _atom_site_symmetry_multiplicity
 _atom_site_fract_x
 _atom_site_fract_y
 _atom_site_fract_z
 _atom_site_occupancy
  Ba  Ba0  1  0.82970571  0.66269967  0.87486199  1
  Ba  Ba1  1  0.50080434  0.67516618  0.12678355  1
  Ba  Ba2  1  0.83203216  0.34079399  0.12538226  1
  Ba  Ba3  1  0.16719889  0.68135176  0.62028755  1
  Ba  Ba4  1  0.00059746  0.15685736  0.87905035  1
  Ba  Ba5  1  0.33165016  0.82705769  0.37102281  1
  Ba  Ba6  1  0.50004501  0.98881225  0.87648922  1
  Ba  Ba7  1  0.66577628  0.82973301  0.87848278  1
  Ba  Ba8  1  0.83626886  0.32587337  0.37590540  1
  Ba  Ba9  1  0.83080491  0.98941304  0.37255425  1
  Ba  Ba10  1  0.66743408  0.17134078  0.12523028  1
  Ba  Ba11  1  0.66607162  0.83886062  0.62557152  1
  Ba  Ba12  1  0.16581455  0.66182164  0.37298394  1
  Ba  Ba13  1  0.83370575  0.67379997  0.62508174  1
  Ba  Ba14  1  0.16716291  0.01028719  0.62337278  1
  Ba  Ba15  1  -0.00236855  0.82462573  0.37500256  1
  Ba  Ba16  1  0.33273882  0.82258372  0.87705791  1
  Ba  Ba17  1  0.33025882  0.15107361  0.37731853  1
  Ba  Ba18  1  -0.00233798  0.49128507  0.87560272  1
  Ba  Ba19  1  0.33973318  0.51359768  0.62198559  1
  Ba  Ba20  1  0.99700298  0.50796662  0.13063286  1
  Ba  Ba21  1  0.33438764  0.17550763  0.12621127  1
  Ba  Ba22  1  0.83504737  0.67511064  0.12491918  1
  Ba  Ba23  1  0.50178598  0.32456082  0.87473599  1
  Ba  Ba24  1  0.50265123  0.34797409  0.62133189  1
  Ba  Ba25  1  0.83358458  0.00602997  0.12711684  1
  Ba  Ba26  1  0.32830678  0.84444791  0.12677269  1
  Ba  Ba27  1  0.66824700  0.50859767  0.62542220  1
  Ba  Ba28  1  -0.00170493  0.49514522  0.37623531  1
  Ba  Ba29  1  0.16522263  0.32542521  0.37732056  1
  Ba  Ba30  1  0.83513731  0.99195617  0.87662544  1
  Ba  Ba31  1  1.00106289  0.83597850  0.12632469  1
  Ba  Ba32  1  0.83674059  0.65851617  0.37815412  1
  Ba  Ba33  1  0.16440427  0.34194636  0.12871071  1
  Ba  Ba34  1  0.66620243  0.17352932  0.62076973  1
  Ba  Ba35  1  0.50247669  0.98987085  0.37513938  1
  La  La36  1  0.67169474  0.84658031  0.12526665  1
  La  La37  1  0.17313043  0.31809009  0.87560275  1
  La  La38  1  0.32950736  0.49002340  0.37583086  1
  La  La39  1  1.00204396  0.51854499  0.62033264  1
  La  La40  1  0.33626250  0.84310846  0.61877666  1
  La  La41  1  0.82458173  0.34917440  0.62430465  1
  La  La42  1  0.50795462  0.32025927  0.37310777  1
  La  La43  1  0.83353330  0.01245736  0.62522764  1
  La  La44  1  0.50274247  0.65085552  0.37020941  1
  La  La45  1  -0.00605546  0.81963908  0.87561941  1
  La  La46  1  0.66677507  0.48362547  0.37553088  1
  La  La47  1  -0.00420925  0.15379157  0.37224980  1
  La  La48  1  1.00364446  0.18098652  0.12671799  1
  La  La49  1  0.50841673  0.66057952  0.87168644  1
  La  La50  1  1.00388891  0.85116284  0.62145317  1
  La  La51  1  0.66421203  0.15276598  0.37308627  1
  La  La52  1  0.49101521  0.01390980  0.12247318  1
  La  La53  1  0.16062571  0.67242826  0.13010014  1
  La  La54  1  0.34173646  0.18266552  0.62548867  1
  La  La55  1  0.16531908  0.34999556  0.62710369  1
  La  La56  1  0.17102379  0.65208841  0.87562543  1
  La  La57  1  0.66295940  0.81279378  0.37058114  1
  La  La58  1  0.49480914  0.35041239  0.12561393  1
  La  La59  1  0.83750769  0.31969427  0.87282358  1
  La  La60  1  0.67536924  0.51454899  0.12681301  1
  La  La61  1  0.17369424  0.98258088  0.87455839  1
  La  La62  1  0.17092174  0.98721143  0.37740739  1
  La  La63  1  0.32735640  0.14748539  0.87393515  1
  La  La64  1  0.66375271  0.48795799  0.87816710  1
  La  La65  1  0.49448648  0.68002751  0.62160980  1
  La  La66  1  0.66243849  0.14906024  0.87756773  1
  La  La67  1  0.48617360  0.01162282  0.62931841  1
  La  La68  1  0.33677742  0.51067845  0.12941219  1
  La  La69  1  0.15931855  0.01308661  0.13048504  1
  La  La70  1  0.33202940  0.49020759  0.87314823  1
  La  La71  1  1.00361043  0.17738957  0.62667997  1
  In  In72  1  0.16569804  0.83315095  0.25051933  1
  In  In73  1  0.66414272  -0.00081793  0.74455301  1
  In  In74  1  0.83457432  0.16662149  0.74846584  1
  In  In75  1  0.49713280  0.83088431  0.00428206  1
  In  In76  1  0.16649993  0.16566794  0.25551086  1
  In  In77  1  0.83699598  0.83513494  0.74741087  1
  In  In78  1  0.83450326  0.50125899  0.75127808  1
  In  In79  1  0.16761351  0.50225483  0.50000286  1
  In  In80  1  0.33415327  0.66940389  0.49372187  1
  In  In81  1  0.66650557  0.33127647  0.24577714  1
  In  In82  1  0.66943339  0.33181610  0.75145956  1
  In  In83  1  0.33619002  0.33252267  0.25164163  1
  In  In84  1  -0.00044227  0.33627520  0.25167043  1
  In  In85  1  0.00144491  0.66596402  -0.00183165  1
  In  In86  1  0.66436829  -0.00349274  0.50063016  1
  In  In87  1  0.49662666  0.83295314  0.75032736  1
  In  In88  1  0.16503743  0.83157577  -0.00206474  1
  In  In89  1  0.16642759  0.49825813  0.00183859  1
  In  In90  1  0.00060162  0.33402782  0.75062559  1
  In  In91  1  0.83287607  0.83488214  0.49943269  1
  In  In92  1  0.83273306  0.16556607  0.00317520  1
  In  In93  1  0.16699297  0.16340778  -0.00102059  1
  In  In94  1  0.50032710  0.50469629  0.75135735  1
  In  In95  1  0.83186219  0.49839822  -0.00069581  1
  In  In96  1  0.33308573  0.33568143  0.74956778  1
  In  In97  1  0.00428304  0.00097172  0.75434027  1
  In  In98  1  0.50052011  0.50434984  0.00398541  1
  In  In99  1  0.50018406  0.16793269  0.75459537  1
  In  In100  1  0.49957151  0.83226089  0.24848131  1
  In  In101  1  0.33437737  0.33264905  0.00107837  1
  In  In102  1  0.33226045  0.66990270  0.75035046  1
  In  In103  1  -0.00186392  0.33324679  0.50385454  1
  In  In104  1  0.66610100  0.66659400  0.74836957  1
  In  In105  1  0.33435129  0.33339120  0.49789581  1
  In  In106  1  0.49985732  0.16552042  0.49859354  1
  In  In107  1  0.66525221  -0.00229143  0.24979238  1
  Ir  Ir108  1  0.50315797  0.50366586  0.49344060  1
  Ir  Ir109  1  0.83234002  0.50216242  0.49908223  1
  Ir  Ir110  1  0.33460183  0.66317987  0.24583064  1
  Ir  Ir111  1  0.32617373  -0.00029925  0.74879419  1
  Ir  Ir112  1  0.16388298  0.50094504  0.75011521  1
  Ir  Ir113  1  0.17089514  0.16720890  0.74689413  1
  Ir  Ir114  1  -0.00157886  0.00068225  0.24799814  1
  Ir  Ir115  1  0.16388167  0.83437239  0.74782346  1
  Ir  Ir116  1  0.66582382  0.66698335  0.00415790  1
  Ir  Ir117  1  0.66442207  0.33278532  0.00103634  1
  Ir  Ir118  1  0.82900470  0.50397331  0.25201959  1
  Ir  Ir119  1  0.66310702  -0.00021335  0.00240623  1
  Ir  Ir120  1  0.33025497  -0.00337945  0.50114512  1
  Ir  Ir121  1  0.67113643  0.33384113  0.49542030  1
  Ir  Ir122  1  0.50077361  0.16712901  0.24773452  1
  Ir  Ir123  1  0.33163643  0.00134588  0.24980342  1
  Ir  Ir124  1  0.00072168  0.00436672  0.49639824  1
  Ir  Ir125  1  0.16597896  0.16370923  0.50671356  1
  Ir  Ir126  1  0.66207626  0.66350075  0.49349531  1
  Ir  Ir127  1  0.33072010  0.00152380  0.00018003  1
  Ir  Ir128  1  -0.00056468  0.66916991  0.50154927  1
  Ir  Ir129  1  0.83525472  0.16483535  0.25333464  1
  Ir  Ir130  1  0.83137031  0.83109331  0.24654686  1
  Ir  Ir131  1  0.00114073  0.33234908  -0.00155982  1
  Ir  Ir132  1  0.83885979  0.16534760  0.49605149  1
  Ir  Ir133  1  0.33225964  0.66234552  0.00212522  1
  Ir  Ir134  1  0.50184818  0.50086491  0.25179892  1
  Ir  Ir135  1  0.50092572  0.16724780  0.00234498  1
  Ir  Ir136  1  0.83150003  0.83451913  0.00266769  1
  Ir  Ir137  1  0.66679639  0.66267682  0.25192842  1
  Ir  Ir138  1  0.17094384  0.50331484  0.25170015  1
  Ir  Ir139  1  0.50060763  0.83032542  0.49601217  1
  Ir  Ir140  1  -0.00195576  0.66563589  0.25297058  1
  Ir  Ir141  1  0.00825922  0.66842520  0.74548751  1
  Ir  Ir142  1  0.00327845  -0.00118259  0.00547956  1
  Ir  Ir143  1  0.16470708  0.83770185  0.50205133  1
  O  O144  1  0.31448677  0.33419531  0.12672036  1
  O  O145  1  0.30067356  0.32428443  0.62505099  1
  O  O146  1  0.29656189  0.65242392  0.12396900  1
  O  O147  1  0.31913280  0.66838604  0.62121529  1
  O  O148  1  0.29919991  1.00238305  0.12449884  1
  O  O149  1  0.31170675  0.97999686  0.62419981  1
  O  O150  1  0.62987415  0.32686684  0.12068908  1
  O  O151  1  0.65211753  0.33012196  0.61430438  1
  O  O152  1  0.64646867  0.64999436  0.12883793  1
  O  O153  1  0.63043526  0.66211243  0.61166540  1
  O  O154  1  0.63327312  0.99457147  0.12351118  1
  O  O155  1  0.62082610  0.99838501  0.61966142  1
  O  O156  1  0.97996383  0.32370408  0.12041570  1
  O  O157  1  0.96295863  0.31533642  0.62534647  1
  O  O158  1  0.99138872  0.66846724  0.13187098  1
  O  O159  1  0.98294268  0.65833202  0.62337792  1
  O  O160  1  0.97786883  0.99063532  0.12607506  1
  O  O161  1  0.97314893  0.99533972  0.61671496  1
  O  O162  1  0.18530836  0.15001170  0.12607727  1
  O  O163  1  0.20517238  0.16130643  0.62715828  1
  O  O164  1  0.19786573  0.50319848  0.13141974  1
  O  O165  1  0.19019605  0.49276163  0.63215526  1
  O  O166  1  0.17770207  0.81278826  0.12449184  1
  O  O167  1  0.19721950  0.83337987  0.62578776  1
  O  O168  1  0.52184839  0.15055452  0.12488321  1
  O  O169  1  0.51311281  0.14928618  0.62603190  1
  O  O170  1  0.53765167  0.49191226  0.13299107  1
  O  O171  1  0.51933998  0.50460083  0.61424824  1
  O  O172  1  0.53391504  0.82951831  0.12577425  1
  O  O173  1  0.51574546  0.82114041  0.61562792  1
  O  O174  1  0.86531073  0.16541764  0.13194269  1
  O  O175  1  0.87039988  0.15323650  0.61412821  1
  O  O176  1  0.84360541  0.50082304  0.13072790  1
  O  O177  1  0.86385870  0.49303889  0.61896580  1
  O  O178  1  0.85214087  0.83278464  0.12452479  1
  O  O179  1  0.87075608  0.83074137  0.62220635  1
  O  O180  1  0.13374059  0.16518271  0.38709042  1
  O  O181  1  0.14763696  0.17632160  0.86699549  1
  O  O182  1  0.14855700  0.50426508  0.36954126  1
  O  O183  1  0.14526429  0.51335434  0.86896084  1
  O  O184  1  0.14681735  0.84734543  0.37943833  1
  O  O185  1  0.13401022  0.84528148  0.86732936  1
  O  O186  1  0.47798615  0.18061176  0.36720102  1
  O  O187  1  0.46406467  0.17057233  0.88494523  1
  O  O188  1  0.46827160  0.51058197  0.37153050  1
  O  O189  1  0.46581550  0.51921974  0.88110495  1
  O  O190  1  0.48017582  0.83191140  0.37757498  1
  O  O191  1  0.48306178  0.82178760  0.87918165  1
  O  O192  1  0.80217062  0.16903223  0.37534454  1
  O  O193  1  0.80116598  0.17628599  0.87821422  1
  O  O194  1  0.80156095  0.50361719  0.37558972  1
  O  O195  1  0.79826808  0.50320117  0.87708169  1
  O  O196  1  0.80284319  0.83142771  0.36745755  1
  O  O197  1  0.81826167  0.83653790  0.88298311  1
  O  O198  1  0.03293347  0.01275058  0.37156912  1
  O  O199  1  0.03593926  0.00289001  0.88590295  1
  O  O200  1  0.01616591  0.33516619  0.37830537  1
  O  O201  1  0.03656897  0.33537128  0.87920655  1
  O  O202  1  0.01611532  0.66368131  0.37905646  1
  O  O203  1  0.03559332  0.67491914  0.86415963  1
  O  O204  1  0.35494294  -0.00163651  0.37577762  1
  O  O205  1  0.35116367  0.01106236  0.87351894  1
  O  O206  1  0.37178562  0.34798148  0.37354190  1
  O  O207  1  0.35204699  0.35122697  0.87586226  1
  O  O208  1  0.36594328  0.66753182  0.36522415  1
  O  O209  1  0.36620740  0.66600097  0.88335291  1
  O  O210  1  0.68310093  0.01351090  0.37445850  1
  O  O211  1  0.68530223  0.00608773  0.88230344  1
  O  O212  1  0.68642659  0.34393326  0.37432697  1
  O  O213  1  0.70050027  0.34596736  0.88384192  1
  O  O214  1  0.68897869  0.67478002  0.37211352  1
  O  O215  1  0.68025786  0.67571581  0.88578011  1
  O  O216  1  0.06771905  0.09190223  0.03150963  1
  O  O217  1  0.06700722  0.10030175  0.52449351  1
  O  O218  1  0.06827341  0.42267157  0.01897742  1
  O  O219  1  0.07502009  0.42537481  0.53254704  1
  O  O220  1  0.06578052  0.76638996  -0.00051345  1
  O  O221  1  0.06719344  0.76710221  0.52373195  1
  O  O222  1  0.40870289  0.09202723  0.02322164  1
  O  O223  1  0.39971398  0.08653090  0.52673053  1
  O  O224  1  0.40964997  0.42852519  0.03267180  1
  O  O225  1  0.41335195  0.43513052  0.51079889  1
  O  O226  1  0.39708233  0.75362731  0.02424202  1
  O  O227  1  0.40598427  0.76709760  0.51857925  1
  O  O228  1  0.73689038  0.08694013  0.01546888  1
  O  O229  1  0.75274363  0.09411025  0.51778741  1
  O  O230  1  0.72796247  0.42679345  0.02717824  1
  O  O231  1  0.74223328  0.42875621  0.51650777  1
  O  O232  1  0.73262889  0.76456711  0.02765844  1
  O  O233  1  0.73057411  0.75561861  0.50808886  1
  O  O234  1  0.08881745  0.25812385  0.01793105  1
  O  O235  1  0.09969339  0.25545209  0.53699122  1
  O  O236  1  0.10720224  0.60324911  0.01485055  1
  O  O237  1  0.08646517  0.59360444  0.51782622  1
  O  O238  1  0.09993522  0.93798480  0.02436743  1
  O  O239  1  0.08864508  0.92810327  0.52123830  1
  O  O240  1  0.43997216  0.26224641  0.02684787  1
  O  O241  1  0.42373305  0.25603063  0.52067077  1
  O  O242  1  0.41567110  0.59085084  0.03449356  1
  O  O243  1  0.44243608  0.60186012  0.50840631  1
  O  O244  1  0.42256981  0.93305903  0.02520976  1
  O  O245  1  0.43081941  0.92648399  0.52528242  1
  O  O246  1  0.75286925  0.26341502  0.01809012  1
  O  O247  1  0.77011375  0.26245694  0.52198523  1
  O  O248  1  0.75240347  0.59434058  0.02017074  1
  O  O249  1  0.75559244  0.59402661  0.51651495  1
  O  O250  1  0.74918142  0.92233910  0.02789977  1
  O  O251  1  0.76509787  0.93187604  0.52690065  1
  O  O252  1  0.23349724  0.06328807  0.27401982  1
  O  O253  1  0.23234057  0.06950405  0.77672163  1
  O  O254  1  0.24673169  0.41908267  0.27512499  1
  O  O255  1  0.22318810  0.40175413  0.77097279  1
  O  O256  1  0.24553294  0.73491689  0.26092978  1
  O  O257  1  0.22706406  0.73886541  0.77541461  1
  O  O258  1  0.57037720  0.07836316  0.26469259  1
  O  O259  1  0.57507492  0.07757012  0.77830320  1
  O  O260  1  0.56640542  0.40669969  0.27674536  1
  O  O261  1  0.57982365  0.41301427  0.77101720  1
  O  O262  1  0.57460701  0.72991964  0.27558587  1
  O  O263  1  0.55995323  0.72723160  0.75561437  1
  O  O264  1  0.91063388  0.07628180  0.27580180  1
  O  O265  1  0.90802468  0.06968121  0.75995358  1
  O  O266  1  0.90203947  0.41516342  0.26285213  1
  O  O267  1  0.90293364  0.40202748  0.77851080  1
  O  O268  1  0.90663751  0.73918445  0.26782723  1
  O  O269  1  0.92074325  0.73715850  0.77081455  1
  O  O270  1  0.25849136  0.24157967  0.27156757  1
  O  O271  1  0.26458973  0.22994232  0.77389104  1
  O  O272  1  0.26946955  0.56869532  0.27065466  1
  O  O273  1  0.25998478  0.56835724  0.77676858  1
  O  O274  1  0.25722083  0.91481666  0.26656237  1
  O  O275  1  0.25402269  0.90735136  0.77443690  1
  O  O276  1  0.59322069  0.23493572  0.27520696  1
  O  O277  1  0.60201068  0.23506120  0.77783481  1
  O  O278  1  0.59898685  0.56708558  0.27955615  1
  O  O279  1  0.59648406  0.57241201  0.78817202  1
  O  O280  1  0.60100306  0.89577779  0.27207126  1
  O  O281  1  0.59061523  0.90473008  0.76366460  1
  O  O282  1  0.92592837  0.23230152  0.27056182  1
  O  O283  1  0.93005987  0.23888613  0.77405983  1
  O  O284  1  0.92320486  0.57423594  0.26690801  1
  O  O285  1  0.94110116  0.57478353  0.75570091  1
  O  O286  1  0.92370687  0.90418218  0.26711072  1
  O  O287  1  0.93966775  0.89896514  0.77047216  1
  O  O288  1  0.25624280  0.23031776  0.48724327  1
  O  O289  1  0.26410466  0.23403581  0.97208437  1
  O  O290  1  0.26591019  0.57188413  0.47403503  1
  O  O291  1  0.26922809  0.56945838  0.97578671  1
  O  O292  1  0.25564953  0.90875190  0.47806098  1
  O  O293  1  0.25739720  0.91267628  0.97895689  1
  O  O294  1  0.59896141  0.24566915  0.47017606  1
  O  O295  1  0.59789468  0.23335326  0.97464196  1
  O  O296  1  0.59591009  0.56985371  0.46365503  1
  O  O297  1  0.60056415  0.57241682  0.98138448  1
  O  O298  1  0.59713939  0.89121882  0.47275569  1
  O  O299  1  0.59202324  0.91282596  0.98940151  1
  O  O300  1  0.93133308  0.22938068  0.47530046  1
  O  O301  1  0.92654064  0.24607095  0.98114664  1
  O  O302  1  0.93018716  0.57185836  0.49074778  1
  O  O303  1  0.92495050  0.57579396  0.98645913  1
  O  O304  1  0.93135171  0.91508319  0.47938421  1
  O  O305  1  0.93417326  0.90343581  0.97832633  1
  O  O306  1  0.23255916  0.06510777  0.47756899  1
  O  O307  1  0.23859535  0.06733219  0.97086425  1
  O  O308  1  0.24439861  0.40979214  0.48068725  1
  O  O309  1  0.23409986  0.40369100  0.97224915  1
  O  O310  1  0.23755258  0.75033840  0.48183317  1
  O  O311  1  0.23809562  0.72897012  0.97567933  1
  O  O312  1  0.58198862  0.08467839  0.47116192  1
  O  O313  1  0.57415569  0.07612937  0.97907461  1
  O  O314  1  0.57305499  0.40584930  0.46884757  1
  O  O315  1  0.57806216  0.40587035  0.98047671  1
  O  O316  1  0.56554063  0.73183453  0.46885241  1
  O  O317  1  0.57126155  0.72958573  0.98579702  1
  O  O318  1  0.91244993  0.07759210  0.46670701  1
  O  O319  1  0.91304886  0.06894234  0.98804718  1
  O  O320  1  0.90206541  0.41325657  0.48599571  1
  O  O321  1  0.90531067  0.39814364  0.97633006  1
  O  O322  1  0.91158810  0.74066934  0.48507805  1
  O  O323  1  0.90581456  0.74859462  0.98208882  1
  O  O324  1  0.08370805  0.25071461  0.22959212  1
  O  O325  1  0.10782603  0.26395105  0.72418066  1
  O  O326  1  0.09707359  0.59546902  0.22840256  1
  O  O327  1  0.09991610  0.59608162  0.72657458  1
  O  O328  1  0.09348105  0.93440409  0.23063427  1
  O  O329  1  0.09666271  0.92480872  0.72644288  1
  O  O330  1  0.44254599  0.26533390  0.22839076  1
  O  O331  1  0.42359986  0.25716993  0.72466594  1
  O  O332  1  0.42581284  0.58871753  0.22618759  1
  O  O333  1  0.43798272  0.60954135  0.73074308  1
  O  O334  1  0.42687195  0.93465980  0.22583668  1
  O  O335  1  0.42115295  0.93446997  0.72766979  1
  O  O336  1  0.76288254  0.25373222  0.23515630  1
  O  O337  1  0.77240392  0.26809026  0.72670179  1
  O  O338  1  0.75735276  0.59258945  0.23030728  1
  O  O339  1  0.75946985  0.59320421  0.73231682  1
  O  O340  1  0.75759361  0.91629707  0.22666890  1
  O  O341  1  0.76822043  0.93380480  0.72386252  1
  O  O342  1  0.06456884  0.09141542  0.22515619  1
  O  O343  1  0.07520547  0.10397172  0.72513466  1
  O  O344  1  0.08252399  0.43026792  0.23538691  1
  O  O345  1  0.07058327  0.43434514  0.72030203  1
  O  O346  1  0.07577527  0.74930316  0.24346075  1
  O  O347  1  0.06917412  0.76945137  0.72258774  1
  O  O348  1  0.40996715  0.09084233  0.22684880  1
  O  O349  1  0.39176738  0.09345130  0.72855795  1
  O  O350  1  0.41148927  0.43352877  0.22301607  1
  O  O351  1  0.40036453  0.43642997  0.74067159  1
  O  O352  1  0.40405394  0.75407717  0.22888279  1
  O  O353  1  0.39192714  0.77454583  0.72630089  1
  O  O354  1  0.74614480  0.09409507  0.23835415  1
  O  O355  1  0.74332314  0.09078940  0.72445191  1
  O  O356  1  0.73254531  0.43718085  0.23576730  1
  O  O357  1  0.74674544  0.42159208  0.72418526  1
  O  O358  1  0.73091948  0.76230508  0.22733817  1
  O  O359  1  0.74300933  0.75947640  0.73746601  1
