# generated using pymatgen
data_BaLaInIrO6
_symmetry_space_group_name_H-M   'P 1'
_cell_length_a   17.53354861
_cell_length_b   17.56844196
_cell_length_c   16.50785846
_cell_angle_alpha   89.95393358
_cell_angle_beta   90.01993916
_cell_angle_gamma   90.05000657
_symmetry_Int_Tables_number   1
_chemical_formula_structural   BaLaInIrO6
_chemical_formula_sum   'Ba36 La36 In36 Ir36 O216'
_cell_volume   5085.02947289
_cell_formula_units_Z   36
loop_
 _symmetry_equiv_pos_site_id
 _symmetry_equiv_pos_as_xyz
  1  'x, y, z'
loop_
 _atom_site_type_symbol
 _atom_site_label
 _atom_site_symmetry_multiplicity
 _atom_site_fract_x
 _atom_site_fract_y
 _atom_site_fract_z
 _atom_site_occupancy
  Ba  Ba0  1  -0.00120560  0.82802674  0.37583769  1
  Ba  Ba1  1  0.83338565  0.32069660  0.37519030  1
  Ba  Ba2  1  0.83130162  0.01117210  0.62500382  1
  Ba  Ba3  1  0.33999332  0.51473728  0.62981773  1
  Ba  Ba4  1  0.83037494  0.67508006  0.62615517  1
  Ba  Ba5  1  0.33313868  0.49322570  0.87866604  1
  Ba  Ba6  1  0.83291109  0.99392530  0.37604998  1
  Ba  Ba7  1  0.66505907  0.50835265  0.63018222  1
  Ba  Ba8  1  -0.00332604  0.49200211  0.87340833  1
  Ba  Ba9  1  0.33493975  0.82001561  0.37514807  1
  Ba  Ba10  1  -0.00426839  0.16019729  0.37570822  1
  Ba  Ba11  1  -0.00287137  0.49189549  0.37360080  1
  Ba  Ba12  1  1.00335401  0.17310923  0.62432577  1
  Ba  Ba13  1  0.33251787  0.83824846  0.12363381  1
  Ba  Ba14  1  -0.00328588  0.15607897  0.87384120  1
  Ba  Ba15  1  0.67030824  0.84008409  0.62170036  1
  Ba  Ba16  1  0.00468176  0.82645196  0.87692845  1
  Ba  Ba17  1  0.16821038  0.98911167  0.87371086  1
  Ba  Ba18  1  0.16466600  0.34117267  0.62693022  1
  Ba  Ba19  1  0.50270523  0.65893920  0.37455862  1
  Ba  Ba20  1  0.49798109  0.34987259  0.12191765  1
  Ba  Ba21  1  0.33375878  0.17507465  0.63017173  1
  Ba  Ba22  1  0.33471069  0.51541985  0.12224343  1
  Ba  Ba23  1  0.16533598  0.00387728  0.62664823  1
  Ba  Ba24  1  0.82904955  0.34121443  0.12595573  1
  Ba  Ba25  1  0.49840887  0.34739331  0.63189548  1
  Ba  Ba26  1  0.50233065  0.99108447  0.87159188  1
  Ba  Ba27  1  0.83525520  0.67510155  0.12334297  1
  Ba  Ba28  1  0.33131402  0.82112931  0.87459715  1
  Ba  Ba29  1  0.49936762  0.67763803  0.62744108  1
  Ba  Ba30  1  0.83513676  0.65772033  0.87330837  1
  Ba  Ba31  1  0.16623555  0.00305067  0.12468626  1
  Ba  Ba32  1  1.00072685  0.84226775  0.12657547  1
  Ba  Ba33  1  0.83196108  0.32423372  0.87373309  1
  Ba  Ba34  1  0.83647055  0.65752223  0.37667101  1
  Ba  Ba35  1  0.50231123  0.32700633  0.87241695  1
  La  La36  1  0.48960425  0.01548919  0.12507862  1
  La  La37  1  0.16944136  0.31571410  0.87512508  1
  La  La38  1  0.67165278  0.51297995  0.12661554  1
  La  La39  1  0.50435279  0.32223070  0.38144959  1
  La  La40  1  0.33688118  0.18305107  0.12158973  1
  La  La41  1  1.00099653  0.51802078  0.12406733  1
  La  La42  1  0.66378255  0.81388855  0.37708635  1
  La  La43  1  0.16678466  0.98668818  0.37822798  1
  La  La44  1  0.66426569  0.48738593  0.37841063  1
  La  La45  1  0.83094967  0.01389614  0.12728111  1
  La  La46  1  0.15917981  0.68304709  0.12271440  1
  La  La47  1  0.83740030  0.98475849  0.87408035  1
  La  La48  1  0.67331796  0.18413636  0.62443728  1
  La  La49  1  0.51004064  0.98053549  0.37660998  1
  La  La50  1  0.83135016  0.34705025  0.62372813  1
  La  La51  1  0.32736405  0.15281668  0.37209783  1
  La  La52  1  0.49690021  0.67679873  0.12345833  1
  La  La53  1  0.49545302  0.01178286  0.62303085  1
  La  La54  1  0.99554141  0.18028848  0.12606853  1
  La  La55  1  0.33474653  0.48880381  0.37797692  1
  La  La56  1  0.16513894  0.67040816  0.62616897  1
  La  La57  1  0.32722220  0.15507912  0.87719763  1
  La  La58  1  0.67110173  0.17955880  0.12110676  1
  La  La59  1  0.66058979  0.81532048  0.86756737  1
  La  La60  1  0.17471578  0.65353391  0.37351923  1
  La  La61  1  0.17423824  0.65842824  0.87928346  1
  La  La62  1  0.99991811  0.84435081  0.62495654  1
  La  La63  1  0.67529266  0.84905187  0.12400299  1
  La  La64  1  0.16933438  0.31523511  0.37508603  1
  La  La65  1  0.66336054  0.15065207  0.37298677  1
  La  La66  1  0.33667055  0.84201529  0.62642427  1
  La  La67  1  0.99950778  0.51383720  0.62269943  1
  La  La68  1  0.66055594  0.48680477  0.88058635  1
  La  La69  1  0.66335250  0.15582071  0.87131131  1
  La  La70  1  0.15838495  0.34689676  0.12287079  1
  La  La71  1  0.50212336  0.65241510  0.87707449  1
  In  In72  1  -0.00176753  0.33637914  0.24783645  1
  In  In73  1  0.83040054  0.83484942  0.24967534  1
  In  In74  1  0.49879480  0.50289703  0.50062409  1
  In  In75  1  0.16501292  0.49928126  0.75027849  1
  In  In76  1  0.00123602  0.66830838  0.25336197  1
  In  In77  1  0.16510922  0.49917740  -0.00199459  1
  In  In78  1  0.16719913  0.82893050  0.74748392  1
  In  In79  1  0.50561547  0.83229260  0.24583982  1
  In  In80  1  0.16274526  0.16288989  0.00466425  1
  In  In81  1  0.33262223  0.33463799  0.75377848  1
  In  In82  1  0.00001340  0.33530439  0.50172443  1
  In  In83  1  0.83225849  0.16573549  -0.00385303  1
  In  In84  1  0.16464042  0.16367994  0.75241174  1
  In  In85  1  0.83148629  0.83457422  0.50043581  1
  In  In86  1  0.83336844  0.49906214  -0.00016128  1
  In  In87  1  0.50118134  0.16813467  -0.00330892  1
  In  In88  1  0.66748256  0.66266431  0.50182917  1
  In  In89  1  0.33691285  -0.00182192  0.49771006  1
  In  In90  1  0.66795535  -0.00016140  0.74680091  1
  In  In91  1  0.49851707  0.16830640  0.24899727  1
  In  In92  1  0.33653598  -0.00334514  0.75124137  1
  In  In93  1  0.33446341  0.33490058  0.24851747  1
  In  In94  1  0.50417784  0.83336091  -0.00255336  1
  In  In95  1  0.16585783  0.16324832  0.24740168  1
  In  In96  1  0.66688421  0.66802412  0.00306779  1
  In  In97  1  0.66451492  0.33383800  0.25081699  1
  In  In98  1  0.16692546  0.49938769  0.24818704  1
  In  In99  1  0.16762687  0.16472092  0.49892006  1
  In  In100  1  0.66758473  -0.00048276  -0.00203481  1
  In  In101  1  0.16658024  0.49849437  0.49940181  1
  In  In102  1  -0.00247714  0.00037714  0.49922900  1
  In  In103  1  0.16800619  0.83337738  0.25282941  1
  In  In104  1  0.33595977  -0.00073526  0.25147797  1
  In  In105  1  0.33683821  0.33417859  0.49863934  1
  In  In106  1  -0.00050165  0.66831928  0.75027368  1
  In  In107  1  0.50109746  0.16860225  0.50102139  1
  Ir  Ir108  1  0.83017890  0.49758132  0.74785851  1
  Ir  Ir109  1  -0.00120057  0.33379797  -0.00048157  1
  Ir  Ir110  1  0.50189854  0.50028958  0.00271862  1
  Ir  Ir111  1  0.50211547  0.82993967  0.74688611  1
  Ir  Ir112  1  0.83284876  0.49846910  0.50018001  1
  Ir  Ir113  1  0.00217788  0.67023978  -0.00029076  1
  Ir  Ir114  1  0.33414478  -0.00061731  0.00171441  1
  Ir  Ir115  1  0.33079559  0.33192804  -0.00074344  1
  Ir  Ir116  1  0.66983732  0.33342122  0.50010712  1
  Ir  Ir117  1  0.33250229  0.67038637  0.49894185  1
  Ir  Ir118  1  0.50266800  0.83377364  0.50269830  1
  Ir  Ir119  1  0.83000136  0.50124548  0.25052010  1
  Ir  Ir120  1  0.33588225  0.66783830  0.75286631  1
  Ir  Ir121  1  0.50337758  0.50520099  0.75674768  1
  Ir  Ir122  1  0.82702308  0.16848988  0.50146783  1
  Ir  Ir123  1  0.83035914  0.16963345  0.74619060  1
  Ir  Ir124  1  0.66883260  0.33432718  0.74939367  1
  Ir  Ir125  1  0.66301769  0.00169564  0.49656841  1
  Ir  Ir126  1  0.16746798  0.83314738  -0.00065699  1
  Ir  Ir127  1  0.66266303  -0.00081620  0.24996592  1
  Ir  Ir128  1  0.82980003  0.16255705  0.24903670  1
  Ir  Ir129  1  -0.00673263  0.33465050  0.75125029  1
  Ir  Ir130  1  0.33584945  0.66384685  0.25013879  1
  Ir  Ir131  1  0.66474145  0.66256483  0.24864872  1
  Ir  Ir132  1  0.16778042  0.82629854  0.50155397  1
  Ir  Ir133  1  0.66871777  0.66515799  0.75392935  1
  Ir  Ir134  1  0.50508790  0.16662069  0.75069796  1
  Ir  Ir135  1  0.50092281  0.50361622  0.24835785  1
  Ir  Ir136  1  0.00321619  0.66720724  0.50268101  1
  Ir  Ir137  1  0.33478902  0.66795863  0.00327519  1
  Ir  Ir138  1  0.83216657  0.83379250  0.75506587  1
  Ir  Ir139  1  0.83335391  0.83596833  0.00030048  1
  Ir  Ir140  1  -0.00325564  0.00287832  0.24592254  1
  Ir  Ir141  1  -0.00601023  -0.00307297  0.00079278  1
  Ir  Ir142  1  -0.00638157  -0.00327944  0.75492767  1
  Ir  Ir143  1  0.66458487  0.33403380  -0.00185098  1
  O  O144  1  0.29784495  0.32526043  0.11734224  1
  O  O145  1  0.31809064  0.33320244  0.62725500  1
  O  O146  1  0.30208701  0.66898780  0.12715084  1
  O  O147  1  0.30440426  0.67259187  0.62388849  1
  O  O148  1  0.31710104  0.99349387  0.11937357  1
  O  O149  1  0.31907773  0.98260125  0.62335262  1
  O  O150  1  0.64639449  0.31901589  0.12028226  1
  O  O151  1  0.64607680  0.32077987  0.62553529  1
  O  O152  1  0.63371753  0.65163817  0.12997111  1
  O  O153  1  0.65146869  0.66533827  0.63321773  1
  O  O154  1  0.62846092  0.98601032  0.13062065  1
  O  O155  1  0.63357940  0.99815151  0.61792458  1
  O  O156  1  0.97662225  0.32113887  0.11759065  1
  O  O157  1  0.96637601  0.32862164  0.63239583  1
  O  O158  1  0.98294457  0.66346678  0.11907690  1
  O  O159  1  0.97762206  0.65609868  0.62022339  1
  O  O160  1  0.96453777  0.99628979  0.12223377  1
  O  O161  1  0.97915553  0.98662902  0.63486434  1
  O  O162  1  0.20218129  0.15936659  0.12406799  1
  O  O163  1  0.18297014  0.16480546  0.62747890  1
  O  O164  1  0.18909664  0.48324415  0.12094727  1
  O  O165  1  0.19106431  0.50513716  0.62476781  1
  O  O166  1  0.18269690  0.83070147  0.12030872  1
  O  O167  1  0.20011364  0.81494597  0.61807214  1
  O  O168  1  0.53735636  0.15219169  0.12338726  1
  O  O169  1  0.53816950  0.15916297  0.63094493  1
  O  O170  1  0.53388695  0.50350741  0.12570018  1
  O  O171  1  0.51498469  0.50501873  0.63461606  1
  O  O172  1  0.53987540  0.81718300  0.12234320  1
  O  O173  1  0.52325717  0.83184281  0.62674443  1
  O  O174  1  0.85867238  0.15685426  0.12797299  1
  O  O175  1  0.85354030  0.17071116  0.62436652  1
  O  O176  1  0.86003381  0.49903323  0.13009478  1
  O  O177  1  0.86226726  0.49087876  0.62342558  1
  O  O178  1  0.84957560  0.83413073  0.11911354  1
  O  O179  1  0.86092494  0.83347471  0.63438337  1
  O  O180  1  0.14230625  0.18055637  0.37157418  1
  O  O181  1  0.14557268  0.17496945  0.87989359  1
  O  O182  1  0.14477136  0.52148580  0.37375085  1
  O  O183  1  0.14464803  0.52334031  0.87583127  1
  O  O184  1  0.14682554  0.83971505  0.38319319  1
  O  O185  1  0.15512447  0.82509225  0.87891121  1
  O  O186  1  0.46512519  0.18024426  0.37389113  1
  O  O187  1  0.46802713  0.16708153  0.86931132  1
  O  O188  1  0.47139977  0.50649290  0.36614164  1
  O  O189  1  0.48141702  0.51254605  0.88037570  1
  O  O190  1  0.48617670  0.83895792  0.38047666  1
  O  O191  1  0.48221885  0.83088525  0.86533095  1
  O  O192  1  0.79847070  0.16557270  0.37670171  1
  O  O193  1  0.80111809  0.16818350  0.86688370  1
  O  O194  1  0.80016391  0.50240518  0.37580258  1
  O  O195  1  0.80151829  0.49837696  0.86895287  1
  O  O196  1  0.79817544  0.83942687  0.37299076  1
  O  O197  1  0.79959855  0.84170001  0.87846803  1
  O  O198  1  0.02650939  0.00480035  0.36639727  1
  O  O199  1  0.01681707  -0.00024794  0.87888127  1
  O  O200  1  0.02924199  0.33621904  0.37239702  1
  O  O201  1  0.02794128  0.33865996  0.87700535  1
  O  O202  1  0.03441296  0.66993823  0.38307861  1
  O  O203  1  0.03262729  0.66975735  0.87938226  1
  O  O204  1  0.37689673  0.01081798  0.37521617  1
  O  O205  1  0.35525459  0.00643036  0.88245110  1
  O  O206  1  0.37298247  0.35099711  0.37033498  1
  O  O207  1  0.35532813  0.33377507  0.88332017  1
  O  O208  1  0.35815082  0.66613535  0.37379568  1
  O  O209  1  0.36588783  0.66829787  0.87794646  1
  O  O210  1  0.68772912  0.01356915  0.37282589  1
  O  O211  1  0.70289147  0.01734865  0.87184588  1
  O  O212  1  0.68728655  0.34996772  0.37988850  1
  O  O213  1  0.68617213  0.35071142  0.87369373  1
  O  O214  1  0.68596360  0.67314899  0.36777927  1
  O  O215  1  0.68744388  0.67385110  0.87366614  1
  O  O216  1  0.05814516  0.09296523  0.02596295  1
  O  O217  1  0.07734234  0.08355993  0.51333710  1
  O  O218  1  0.06269443  0.42820022  0.02431420  1
  O  O219  1  0.06282328  0.43760309  0.52677526  1
  O  O220  1  0.07863984  0.75765995  0.02398546  1
  O  O221  1  0.07208873  0.75785271  0.53219858  1
  O  O222  1  0.40287907  0.09198009  0.02444141  1
  O  O223  1  0.41548817  0.08905731  0.53157847  1
  O  O224  1  0.40365416  0.42714033  0.01845543  1
  O  O225  1  0.39827398  0.44202099  0.50579851  1
  O  O226  1  0.41105394  0.75252838  0.02273545  1
  O  O227  1  0.40251588  0.76991471  0.52383505  1
  O  O228  1  0.73976235  0.09304215  0.03542147  1
  O  O229  1  0.72480336  0.10311965  0.51697199  1
  O  O230  1  0.72899173  0.42872572  0.02170661  1
  O  O231  1  0.74047688  0.42786640  0.52298703  1
  O  O232  1  0.73671799  0.77132330  0.02029434  1
  O  O233  1  0.74068359  0.75744417  0.50776245  1
  O  O234  1  0.09473562  0.26921963  0.01996905  1
  O  O235  1  0.09559425  0.26416725  0.51228444  1
  O  O236  1  0.09175515  0.60026085  0.02573914  1
  O  O237  1  0.09650898  0.60290954  0.52321003  1
  O  O238  1  0.09246347  0.92736784  0.01364598  1
  O  O239  1  0.09411892  0.91223885  0.52235411  1
  O  O240  1  0.41923618  0.25822288  0.02314515  1
  O  O241  1  0.44400985  0.27336822  0.50992245  1
  O  O242  1  0.43575284  0.60041131  0.02148747  1
  O  O243  1  0.42424969  0.60569136  0.51454721  1
  O  O244  1  0.43221052  0.93242763  0.02230240  1
  O  O245  1  0.43874991  0.92653387  0.52082400  1
  O  O246  1  0.75192842  0.25871947  0.01570143  1
  O  O247  1  0.76151617  0.26375924  0.52713707  1
  O  O248  1  0.75316920  0.58723734  0.02235004  1
  O  O249  1  0.76381563  0.58622436  0.51483137  1
  O  O250  1  0.76844534  0.92971268  0.02425298  1
  O  O251  1  0.75233702  0.93352100  0.51669921  1
  O  O252  1  0.23539686  0.06599522  0.28357123  1
  O  O253  1  0.25369548  0.08081540  0.77267463  1
  O  O254  1  0.23123284  0.39802493  0.27361180  1
  O  O255  1  0.23013970  0.40131154  0.77929485  1
  O  O256  1  0.24072684  0.72786554  0.26965731  1
  O  O257  1  0.23803343  0.72734398  0.76980250  1
  O  O258  1  0.56910078  0.06469672  0.27686272  1
  O  O259  1  0.58014326  0.08324671  0.77453493  1
  O  O260  1  0.56641987  0.41049170  0.27547440  1
  O  O261  1  0.58221311  0.41618083  0.77480272  1
  O  O262  1  0.57930290  0.73572446  0.26792558  1
  O  O263  1  0.57348650  0.73444778  0.77759674  1
  O  O264  1  0.89819032  0.06918782  0.25902965  1
  O  O265  1  0.89681768  0.07047277  0.77413559  1
  O  O266  1  0.89747059  0.41073996  0.26690525  1
  O  O267  1  0.89717923  0.40312219  0.76212248  1
  O  O268  1  0.90817981  0.74388875  0.26461478  1
  O  O269  1  0.90571853  0.74725818  0.76818192  1
  O  O270  1  0.26669027  0.23431532  0.27649181  1
  O  O271  1  0.25994102  0.24015886  0.78371117  1
  O  O272  1  0.26995281  0.57211083  0.27392921  1
  O  O273  1  0.26391853  0.58143862  0.77242807  1
  O  O274  1  0.25873295  0.90775633  0.27180824  1
  O  O275  1  0.26153100  0.90111874  0.75705907  1
  O  O276  1  0.59397701  0.23959916  0.28227901  1
  O  O277  1  0.60091236  0.23882114  0.77415922  1
  O  O278  1  0.60230582  0.56355793  0.27171269  1
  O  O279  1  0.59848441  0.57441557  0.78279360  1
  O  O280  1  0.60573982  0.90216287  0.27845553  1
  O  O281  1  0.59700492  0.89760582  0.77033107  1
  O  O282  1  0.92194151  0.23368236  0.25787774  1
  O  O283  1  0.92316485  0.23938287  0.76885638  1
  O  O284  1  0.92252194  0.57062693  0.26106579  1
  O  O285  1  0.91955697  0.57014416  0.76202306  1
  O  O286  1  0.92571132  0.91545171  0.26448529  1
  O  O287  1  0.91795945  0.90982647  0.78014296  1
  O  O288  1  0.27001658  0.23431770  0.46919229  1
  O  O289  1  0.26557489  0.23891038  0.97680480  1
  O  O290  1  0.26669671  0.57841943  0.47283286  1
  O  O291  1  0.25805288  0.58488345  0.98232957  1
  O  O292  1  0.25505192  0.90055292  0.48221044  1
  O  O293  1  0.26126249  0.90612593  0.98028803  1
  O  O294  1  0.60688857  0.23764817  0.47446837  1
  O  O295  1  0.60108618  0.23969346  0.97401153  1
  O  O296  1  0.59826562  0.56664910  0.47715648  1
  O  O297  1  0.59352400  0.56662963  0.98073074  1
  O  O298  1  0.59865803  0.90301232  0.47231118  1
  O  O299  1  0.60752631  0.89648671  0.97368575  1
  O  O300  1  0.91726145  0.23805741  0.48659373  1
  O  O301  1  0.93192577  0.23807355  0.98814265  1
  O  O302  1  0.93060050  0.56927727  0.48583794  1
  O  O303  1  0.93022999  0.57966521  0.98684781  1
  O  O304  1  0.92728079  0.90559875  0.49243535  1
  O  O305  1  0.92296447  0.90597960  0.97518389  1
  O  O306  1  0.24257468  0.06841360  0.46587280  1
  O  O307  1  0.24744242  0.07285106  0.97897724  1
  O  O308  1  0.23524390  0.40218399  0.46560312  1
  O  O309  1  0.23371144  0.39509892  0.97666159  1
  O  O310  1  0.23360418  0.73155786  0.47726032  1
  O  O311  1  0.23483854  0.73416371  0.98536014  1
  O  O312  1  0.57204113  0.06855996  0.47050850  1
  O  O313  1  0.58004569  0.07882248  0.97213817  1
  O  O314  1  0.57555810  0.40221193  0.47733148  1
  O  O315  1  0.57440346  0.41009764  0.97764347  1
  O  O316  1  0.57559792  0.74631766  0.48389468  1
  O  O317  1  0.56980230  0.73226029  0.97285227  1
  O  O318  1  0.89828729  0.07939224  0.48804534  1
  O  O319  1  0.89786669  0.06036748  0.98299906  1
  O  O320  1  0.89869309  0.40647473  0.48797220  1
  O  O321  1  0.90743814  0.40261282  0.98438691  1
  O  O322  1  0.91504739  0.73840008  0.48624024  1
  O  O323  1  0.90656291  0.74293122  0.97961304  1
  O  O324  1  0.09429302  0.26192088  0.21675061  1
  O  O325  1  0.08460743  0.26691465  0.74323279  1
  O  O326  1  0.09568871  0.59604276  0.21834133  1
  O  O327  1  0.09164084  0.59408621  0.72216764  1
  O  O328  1  0.08819898  0.93368782  0.23993789  1
  O  O329  1  0.07959434  0.91956770  0.73597083  1
  O  O330  1  0.42285463  0.25846781  0.21475719  1
  O  O331  1  0.43146748  0.25061465  0.73405629  1
  O  O332  1  0.43632501  0.60018926  0.22374651  1
  O  O333  1  0.43567830  0.60225022  0.74572081  1
  O  O334  1  0.44108867  0.93285823  0.22925569  1
  O  O335  1  0.43655357  0.92284768  0.72352197  1
  O  O336  1  0.75601812  0.24950168  0.23145790  1
  O  O337  1  0.76112930  0.26308654  0.72047940  1
  O  O338  1  0.75462641  0.59007431  0.22453434  1
  O  O339  1  0.76048315  0.59041810  0.73198105  1
  O  O340  1  0.75557188  0.93336980  0.21849031  1
  O  O341  1  0.76357935  0.92367856  0.73886918  1
  O  O342  1  0.05990342  0.09581722  0.22139619  1
  O  O343  1  0.06906220  0.08114931  0.73961381  1
  O  O344  1  0.06472103  0.43304854  0.21580598  1
  O  O345  1  0.05678038  0.42834367  0.72821531  1
  O  O346  1  0.08232020  0.75540236  0.22985580  1
  O  O347  1  0.07344559  0.75965178  0.71495190  1
  O  O348  1  0.40248128  0.09702593  0.21570977  1
  O  O349  1  0.42487924  0.08642991  0.72718372  1
  O  O350  1  0.40869227  0.43947064  0.23007088  1
  O  O351  1  0.41467662  0.43115967  0.74609452  1
  O  O352  1  0.41020458  0.75207702  0.22936164  1
  O  O353  1  0.40295901  0.76557199  0.72618296  1
  O  O354  1  0.72823690  0.09660259  0.22568089  1
  O  O355  1  0.73665868  0.10488301  0.72337859  1
  O  O356  1  0.73399975  0.43484459  0.23098762  1
  O  O357  1  0.74464728  0.42006781  0.72185490  1
  O  O358  1  0.72727334  0.76020721  0.22511168  1
  O  O359  1  0.73794319  0.76320685  0.73852870  1
