# generated using pymatgen
data_BaLaInIrO6
_symmetry_space_group_name_H-M   'P 1'
_cell_length_a   17.51044428
_cell_length_b   17.52825631
_cell_length_c   16.48109105
_cell_angle_alpha   90.02619860
_cell_angle_beta   90.00303255
_cell_angle_gamma   89.99022432
_symmetry_Int_Tables_number   1
_chemical_formula_structural   BaLaInIrO6
_chemical_formula_sum   'Ba36 La36 In36 Ir36 O216'
_cell_volume   5058.50037561
_cell_formula_units_Z   36
loop_
 _symmetry_equiv_pos_site_id
 _symmetry_equiv_pos_as_xyz
  1  'x, y, z'
loop_
 _atom_site_type_symbol
 _atom_site_label
 _atom_site_symmetry_multiplicity
 _atom_site_fract_x
 _atom_site_fract_y
 _atom_site_fract_z
 _atom_site_occupancy
  Ba  Ba0  1  0.66697147  0.18381868  0.12723688  1
  Ba  Ba1  1  0.83323849  0.32672608  0.87912364  1
  Ba  Ba2  1  0.66506772  0.50393123  0.62410503  1
  Ba  Ba3  1  0.49922153  0.32774935  0.37468491  1
  Ba  Ba4  1  0.49347161  0.00802794  0.62604354  1
  Ba  Ba5  1  0.99719467  0.17317698  0.62815120  1
  Ba  Ba6  1  0.66528258  0.48493563  0.87280676  1
  Ba  Ba7  1  0.33609179  0.50613914  0.12655479  1
  Ba  Ba8  1  0.83030264  0.99778385  0.37163909  1
  Ba  Ba9  1  0.65994581  0.16389047  0.37512405  1
  Ba  Ba10  1  -0.00067135  0.82415835  0.86938550  1
  Ba  Ba11  1  0.82648524  0.00925704  0.62896774  1
  Ba  Ba12  1  0.66699248  0.49059142  0.37562838  1
  Ba  Ba13  1  -0.00722118  0.15980483  0.37512744  1
  Ba  Ba14  1  0.16337032  0.00847335  0.62736199  1
  Ba  Ba15  1  0.83240307  0.66176807  0.37121214  1
  Ba  Ba16  1  0.83257841  0.67879946  0.62374310  1
  Ba  Ba17  1  0.49984715  0.33800870  0.12692436  1
  Ba  Ba18  1  0.83494949  0.34265678  0.12805651  1
  Ba  Ba19  1  0.83857146  0.67352471  0.11898785  1
  Ba  Ba20  1  0.50381395  0.65454718  0.37478078  1
  Ba  Ba21  1  0.33615878  0.16264655  0.37516604  1
  Ba  Ba22  1  0.17236805  0.65521450  0.37931157  1
  Ba  Ba23  1  0.99848545  0.18103321  0.12764833  1
  Ba  Ba24  1  0.50284228  0.65265441  0.87517076  1
  Ba  Ba25  1  0.49546749  0.34680011  0.62432252  1
  Ba  Ba26  1  0.33334131  0.17658837  0.62748659  1
  Ba  Ba27  1  0.33400016  0.84103904  0.62315387  1
  Ba  Ba28  1  0.49854785  0.00788692  0.12465440  1
  Ba  Ba29  1  -0.00017570  0.49445566  0.87639058  1
  Ba  Ba30  1  0.83246858  0.32559426  0.37762632  1
  Ba  Ba31  1  0.50410511  0.32400660  0.87424334  1
  Ba  Ba32  1  0.16273409  0.34588675  0.12745855  1
  Ba  Ba33  1  0.67013320  0.84096305  0.12053783  1
  Ba  Ba34  1  0.33938557  0.51069244  0.62704720  1
  Ba  Ba35  1  0.66680515  0.83860056  0.62596839  1
  La  La36  1  0.66566913  0.81877467  0.87103403  1
  La  La37  1  0.16714560  0.34107274  0.62077530  1
  La  La38  1  0.34247391  0.84209570  0.12393037  1
  La  La39  1  0.50929700  0.98397374  0.37786076  1
  La  La40  1  -0.00504181  0.48324949  0.37690340  1
  La  La41  1  1.00452941  0.51265357  0.62199421  1
  La  La42  1  0.16472711  0.68329253  0.62482669  1
  La  La43  1  1.00527132  0.50330796  0.13318233  1
  La  La44  1  0.83873387  0.65400430  0.86677827  1
  La  La45  1  0.66733853  0.81877830  0.37841266  1
  La  La46  1  1.00437463  0.84883574  0.61900610  1
  La  La47  1  0.49830321  0.67621367  0.12953148  1
  La  La48  1  0.17659906  0.64793490  0.87205863  1
  La  La49  1  0.33403062  0.15081926  0.87685321  1
  La  La50  1  0.15749531  0.67582198  0.12539362  1
  La  La51  1  0.33214528  0.82225934  0.37536349  1
  La  La52  1  0.33357357  0.48019551  0.87271722  1
  La  La53  1  0.83422955  0.98768425  0.87560450  1
  La  La54  1  0.32789496  0.81668100  0.86940663  1
  La  La55  1  0.66308499  0.16116936  0.87510868  1
  La  La56  1  0.16552346  0.98789408  0.87520861  1
  La  La57  1  0.16878627  0.31893453  0.37512158  1
  La  La58  1  0.33897880  0.18375219  0.12391595  1
  La  La59  1  0.50265859  0.98420607  0.87195004  1
  La  La60  1  0.17313658  0.31875013  0.87459009  1
  La  La61  1  0.66916305  0.18638749  0.62939129  1
  La  La62  1  0.82564213  0.02183105  0.12378408  1
  La  La63  1  -0.00621926  0.15105884  0.87969511  1
  La  La64  1  0.49817305  0.67591656  0.62413965  1
  La  La65  1  1.00186940  0.85262031  0.12252753  1
  La  La66  1  0.16685724  0.98814897  0.37589125  1
  La  La67  1  0.66852302  0.50048472  0.12351765  1
  La  La68  1  0.82765788  0.34420910  0.62631440  1
  La  La69  1  -0.00858657  0.82009808  0.37178702  1
  La  La70  1  0.16167585  0.01619235  0.12573631  1
  La  La71  1  0.33382547  0.48434924  0.37956511  1
  In  In72  1  0.33411501  0.00092796  0.49625110  1
  In  In73  1  0.17019220  0.50112654  0.00121987  1
  In  In74  1  -0.00006909  0.33195581  0.50456811  1
  In  In75  1  0.16443432  0.83112216  0.75195727  1
  In  In76  1  0.32922477  0.33646104  0.24853320  1
  In  In77  1  0.83265480  0.83742638  0.49919861  1
  In  In78  1  0.00268008  0.33545363  -0.00288021  1
  In  In79  1  0.66841114  0.66483553  0.24503828  1
  In  In80  1  0.16354349  0.16664334  0.75276021  1
  In  In81  1  0.16582631  0.83324921  0.49626010  1
  In  In82  1  0.66550197  -0.00126892  0.24764053  1
  In  In83  1  0.82958815  0.16482796  0.50137950  1
  In  In84  1  0.00333153  0.67058732  -0.00460605  1
  In  In85  1  0.66841155  0.66212445  0.74955971  1
  In  In86  1  0.16901313  0.83276466  0.00210709  1
  In  In87  1  0.83259802  0.16988393  0.75440343  1
  In  In88  1  0.16507888  0.16476109  0.50003371  1
  In  In89  1  0.49943910  0.16267354  -0.00200170  1
  In  In90  1  0.83683956  0.50100698  0.50002452  1
  In  In91  1  0.50088343  0.83217124  -0.00233473  1
  In  In92  1  0.16574297  0.16569470  0.00090672  1
  In  In93  1  0.33060361  0.66238238  0.25143634  1
  In  In94  1  0.83511658  0.50061724  0.00063841  1
  In  In95  1  0.66788879  0.66374801  -0.00093530  1
  In  In96  1  0.33226906  -0.00158977  0.75240983  1
  In  In97  1  0.66344749  0.00236381  0.74983505  1
  In  In98  1  0.16787151  0.49763204  0.74592145  1
  In  In99  1  0.49677150  0.16406755  0.24963517  1
  In  In100  1  0.49894731  0.16730062  0.50434676  1
  In  In101  1  0.16730103  0.83324490  0.24869986  1
  In  In102  1  -0.00096664  0.00196230  0.24997636  1
  In  In103  1  0.83388352  0.83626790  0.24314016  1
  In  In104  1  0.33197915  0.00028911  0.25088907  1
  In  In105  1  0.66641035  0.66443937  0.50152459  1
  In  In106  1  0.00320301  0.66624508  0.49720066  1
  In  In107  1  0.33338878  0.66257581  0.00157605  1
  Ir  Ir108  1  0.83953772  0.49751123  0.74888507  1
  Ir  Ir109  1  0.16434152  0.16646018  0.25062454  1
  Ir  Ir110  1  0.49872425  0.83033899  0.25046690  1
  Ir  Ir111  1  0.33051483  -0.00355967  -0.00084211  1
  Ir  Ir112  1  -0.00488951  0.00057732  -0.00051346  1
  Ir  Ir113  1  0.49705263  0.49988697  0.49993181  1
  Ir  Ir114  1  0.82877749  0.16638777  -0.00127546  1
  Ir  Ir115  1  0.16478257  0.50119733  0.25900379  1
  Ir  Ir116  1  0.32934376  0.33708452  0.50218374  1
  Ir  Ir117  1  0.00151573  0.66627131  0.74597421  1
  Ir  Ir118  1  0.49740955  0.49915981  0.75106936  1
  Ir  Ir119  1  0.00256017  0.33606967  0.25258074  1
  Ir  Ir120  1  -0.00017350  -0.00062162  0.50142585  1
  Ir  Ir121  1  0.33588217  0.66349968  0.50243474  1
  Ir  Ir122  1  0.66469121  0.33557365  0.50398300  1
  Ir  Ir123  1  0.66776564  0.33844611  0.25051057  1
  Ir  Ir124  1  0.49869165  0.82960689  0.49894029  1
  Ir  Ir125  1  0.50260716  0.49902113  0.24788544  1
  Ir  Ir126  1  0.50047899  0.49553609  0.00184748  1
  Ir  Ir127  1  0.83617177  0.83555705  0.75335930  1
  Ir  Ir128  1  0.49891322  0.16804550  0.75391554  1
  Ir  Ir129  1  -0.00410455  -0.00119439  0.75316689  1
  Ir  Ir130  1  0.49771978  0.83052319  0.75153575  1
  Ir  Ir131  1  0.00202804  0.33633004  0.75019266  1
  Ir  Ir132  1  0.83577933  0.83846147  -0.00613136  1
  Ir  Ir133  1  0.66682772  0.33210517  0.00015833  1
  Ir  Ir134  1  0.33379564  0.33143702  -0.00502874  1
  Ir  Ir135  1  0.83034765  0.17195467  0.24800976  1
  Ir  Ir136  1  0.33665635  0.66448015  0.74877095  1
  Ir  Ir137  1  0.17004779  0.49973363  0.50163652  1
  Ir  Ir138  1  0.00422166  0.66388780  0.24736617  1
  Ir  Ir139  1  0.84004431  0.50047568  0.24943103  1
  Ir  Ir140  1  0.66754820  0.33520534  0.75098995  1
  Ir  Ir141  1  0.67097101  0.00147179  -0.00602879  1
  Ir  Ir142  1  0.66179655  -0.00154512  0.50104511  1
  Ir  Ir143  1  0.33427717  0.32992207  0.75362743  1
  O  O144  1  0.31208922  0.32773413  0.11626060  1
  O  O145  1  0.30305955  0.33227503  0.62855044  1
  O  O146  1  0.29385629  0.65920577  0.12643228  1
  O  O147  1  0.30330356  0.66131409  0.62592205  1
  O  O148  1  0.29605747  0.97947182  0.11796890  1
  O  O149  1  0.31370041  0.99712480  0.62617920  1
  O  O150  1  0.64917823  0.35223225  0.12584755  1
  O  O151  1  0.64421505  0.33545636  0.62843704  1
  O  O152  1  0.63166403  0.66311788  0.12216270  1
  O  O153  1  0.63584487  0.66674902  0.62737761  1
  O  O154  1  0.64815601  0.99637468  0.11284542  1
  O  O155  1  0.64291291  0.99284815  0.62202416  1
  O  O156  1  0.98697246  0.34105341  0.13231164  1
  O  O157  1  0.96650729  0.32978021  0.63465120  1
  O  O158  1  0.99064089  0.64267714  0.12774608  1
  O  O159  1  0.97797506  0.65104913  0.62820936  1
  O  O160  1  0.96244878  0.99164688  0.11842010  1
  O  O161  1  0.97356408  0.98615102  0.62755440  1
  O  O162  1  0.19853405  0.15448017  0.12854546  1
  O  O163  1  0.18193630  0.16660690  0.62812249  1
  O  O164  1  0.18346107  0.50532625  0.13694413  1
  O  O165  1  0.19334062  0.48195711  0.62031573  1
  O  O166  1  0.20699492  0.81575535  0.12430127  1
  O  O167  1  0.18447597  0.82799420  0.62585902  1
  O  O168  1  0.51585617  0.16419750  0.12189029  1
  O  O169  1  0.53146593  0.16339465  0.63595047  1
  O  O170  1  0.53134195  0.49363862  0.12470025  1
  O  O171  1  0.51785493  0.50481806  0.62562451  1
  O  O172  1  0.52039544  0.82467296  0.12875163  1
  O  O173  1  0.52096897  0.81731504  0.62459475  1
  O  O174  1  0.85119233  0.16200669  0.12119852  1
  O  O175  1  0.84595646  0.16686191  0.62907659  1
  O  O176  1  0.87009572  0.49912674  0.13117339  1
  O  O177  1  0.86808108  0.48592906  0.63019495  1
  O  O178  1  0.86764283  0.83178839  0.11256967  1
  O  O179  1  0.86690840  0.83453634  0.63296506  1
  O  O180  1  0.14248062  0.18070121  0.37017420  1
  O  O181  1  0.13018178  0.17919784  0.87579886  1
  O  O182  1  0.13437855  0.50200721  0.38101765  1
  O  O183  1  0.14963974  0.50973587  0.87051067  1
  O  O184  1  0.12493007  0.84481544  0.37243457  1
  O  O185  1  0.14443335  0.85001280  0.87751525  1
  O  O186  1  0.48967452  0.17265034  0.37651645  1
  O  O187  1  0.46902581  0.17008343  0.87325825  1
  O  O188  1  0.47032224  0.50095601  0.37404812  1
  O  O189  1  0.46901798  0.49813937  0.87674395  1
  O  O190  1  0.46882663  0.83869404  0.37498256  1
  O  O191  1  0.46513873  0.83976299  0.87137840  1
  O  O192  1  0.81336873  0.16728762  0.36966498  1
  O  O193  1  0.79936675  0.16872393  0.88028920  1
  O  O194  1  0.82080028  0.50169533  0.36778641  1
  O  O195  1  0.81596459  0.50963251  0.86788290  1
  O  O196  1  0.80494071  0.84096593  0.37075291  1
  O  O197  1  0.80209168  0.84670845  0.87447406  1
  O  O198  1  0.02828260  0.00319653  0.38002619  1
  O  O199  1  0.02866414  0.00941995  0.87593257  1
  O  O200  1  0.03117276  0.34143478  0.37264039  1
  O  O201  1  0.03808967  0.34220964  0.86707759  1
  O  O202  1  0.02458828  0.68252205  0.36641741  1
  O  O203  1  0.03727535  0.67129387  0.86407677  1
  O  O204  1  0.37553642  0.00546761  0.37223137  1
  O  O205  1  0.36628327  0.01095858  0.88230363  1
  O  O206  1  0.34505040  0.34201225  0.38063782  1
  O  O207  1  0.35763465  0.34208081  0.87422268  1
  O  O208  1  0.35654869  0.67511621  0.38265090  1
  O  O209  1  0.35785521  0.67843528  0.86819759  1
  O  O210  1  0.67886474  -0.00061511  0.38090815  1
  O  O211  1  0.69884887  0.01505640  0.87701270  1
  O  O212  1  0.68379651  0.32862979  0.37949091  1
  O  O213  1  0.68476297  0.31815773  0.87443802  1
  O  O214  1  0.67794964  0.67664532  0.37224278  1
  O  O215  1  0.70035961  0.67045788  0.87344255  1
  O  O216  1  0.06825782  0.08795225  0.02034965  1
  O  O217  1  0.06618445  0.09061630  0.51774557  1
  O  O218  1  0.06995049  0.43885477  0.02410119  1
  O  O219  1  0.07532105  0.43550425  0.52539295  1
  O  O220  1  0.06761996  0.76771738  0.03143651  1
  O  O221  1  0.07539887  0.75768909  0.52966261  1
  O  O222  1  0.38848884  0.09527874  0.02016879  1
  O  O223  1  0.40578513  0.09542359  0.52078704  1
  O  O224  1  0.40214572  0.42899726  0.01096641  1
  O  O225  1  0.39900263  0.43214354  0.50932147  1
  O  O226  1  0.40795589  0.75619453  0.02909562  1
  O  O227  1  0.40941687  0.75405365  0.52540330  1
  O  O228  1  0.73754541  0.09434368  0.02162001  1
  O  O229  1  0.72343258  0.09570309  0.52276605  1
  O  O230  1  0.73595436  0.42381635  0.01526067  1
  O  O231  1  0.74522868  0.41660338  0.51795287  1
  O  O232  1  0.74674370  0.76866201  0.00738346  1
  O  O233  1  0.73755078  0.76387457  0.50870226  1
  O  O234  1  0.09690119  0.26333849  0.01505658  1
  O  O235  1  0.10245173  0.27083121  0.51657281  1
  O  O236  1  0.11203436  0.61063127  0.00765441  1
  O  O237  1  0.10764519  0.59429295  0.53015267  1
  O  O238  1  0.09158188  0.93435465  0.02679628  1
  O  O239  1  0.08812286  0.92854862  0.52038007  1
  O  O240  1  0.41877374  0.25767230  0.01671148  1
  O  O241  1  0.41785305  0.26646572  0.51667917  1
  O  O242  1  0.43765336  0.59168290  0.02597575  1
  O  O243  1  0.43124669  0.59724203  0.52273542  1
  O  O244  1  0.42255825  0.92734726  0.01819993  1
  O  O245  1  0.42895377  0.91703055  0.51260075  1
  O  O246  1  0.76078780  0.26177794  0.02021986  1
  O  O247  1  0.75224359  0.26306820  0.53095846  1
  O  O248  1  0.75076519  0.58225337  0.03015866  1
  O  O249  1  0.76118184  0.59030477  0.51530114  1
  O  O250  1  0.77198834  0.93900268  0.01480313  1
  O  O251  1  0.75473595  0.93318988  0.51564844  1
  O  O252  1  0.22426682  0.06900207  0.27115485  1
  O  O253  1  0.23792396  0.07254306  0.78757232  1
  O  O254  1  0.23003001  0.40647825  0.27884821  1
  O  O255  1  0.23943021  0.39661669  0.77368564  1
  O  O256  1  0.24819334  0.74700581  0.28190988  1
  O  O257  1  0.23941657  0.73023971  0.76835744  1
  O  O258  1  0.56507529  0.06243082  0.26841971  1
  O  O259  1  0.56446910  0.07517868  0.78257342  1
  O  O260  1  0.57466220  0.40742122  0.26817159  1
  O  O261  1  0.56985982  0.40645662  0.76636340  1
  O  O262  1  0.56857528  0.74331846  0.26439400  1
  O  O263  1  0.57688836  0.74821384  0.77205059  1
  O  O264  1  0.90225626  0.08025861  0.25506698  1
  O  O265  1  0.90698166  0.07267627  0.78152890  1
  O  O266  1  0.91471872  0.41048043  0.27632090  1
  O  O267  1  0.90799901  0.40340322  0.77009911  1
  O  O268  1  0.91604511  0.73610453  0.26196282  1
  O  O269  1  0.90455475  0.73502647  0.77245918  1
  O  O270  1  0.24971524  0.24106269  0.26592410  1
  O  O271  1  0.26640565  0.23856929  0.78264781  1
  O  O272  1  0.26312622  0.56083660  0.28106375  1
  O  O273  1  0.26944327  0.57236966  0.77463415  1
  O  O274  1  0.25825475  0.90952075  0.28529678  1
  O  O275  1  0.26016801  0.90395455  0.78118553  1
  O  O276  1  0.59403707  0.25054976  0.25808709  1
  O  O277  1  0.60134979  0.23321006  0.76848509  1
  O  O278  1  0.59459246  0.56489022  0.25637253  1
  O  O279  1  0.58820049  0.56821831  0.76621407  1
  O  O280  1  0.59164514  0.89767236  0.27677427  1
  O  O281  1  0.58763669  0.90508241  0.78061449  1
  O  O282  1  0.92871626  0.24537565  0.26522379  1
  O  O283  1  0.93852470  0.23997307  0.78021896  1
  O  O284  1  0.93947236  0.56589128  0.27372892  1
  O  O285  1  0.92749599  0.57575252  0.77102113  1
  O  O286  1  0.93850553  0.89770612  0.26574743  1
  O  O287  1  0.91917216  0.91418176  0.77726268  1
  O  O288  1  0.25801418  0.25021674  0.48372173  1
  O  O289  1  0.26654017  0.23650171  0.97247856  1
  O  O290  1  0.26930934  0.56674068  0.47759019  1
  O  O291  1  0.27107830  0.56392128  0.96935587  1
  O  O292  1  0.26011978  0.90391139  0.46566798  1
  O  O293  1  0.27203936  0.90143657  0.97168298  1
  O  O294  1  0.59571588  0.24464760  0.50051172  1
  O  O295  1  0.59919398  0.23724030  0.98164078  1
  O  O296  1  0.58615433  0.56916750  0.48612279  1
  O  O297  1  0.59003241  0.56293377  0.98532456  1
  O  O298  1  0.59336082  0.89965457  0.47244927  1
  O  O299  1  0.60073083  0.91081742  0.96526893  1
  O  O300  1  0.92235922  0.24140722  0.48770923  1
  O  O301  1  0.92610844  0.23074290  0.97695965  1
  O  O302  1  0.94268099  0.56494989  0.48356984  1
  O  O303  1  0.91830595  0.58861137  0.97451184  1
  O  O304  1  0.93757646  0.90320030  0.48044923  1
  O  O305  1  0.92558309  0.91067035  0.97278238  1
  O  O306  1  0.23140739  0.06738891  0.47001560  1
  O  O307  1  0.23403015  0.06108477  0.97546596  1
  O  O308  1  0.23358361  0.40470335  0.47408278  1
  O  O309  1  0.24017932  0.39878011  0.97251197  1
  O  O310  1  0.24743716  0.73690943  0.48823356  1
  O  O311  1  0.23905037  0.73657823  0.96324922  1
  O  O312  1  0.56761578  0.06066921  0.48255904  1
  O  O313  1  0.57503639  0.06590241  0.96837579  1
  O  O314  1  0.57167791  0.40845863  0.48277833  1
  O  O315  1  0.57192757  0.40114983  0.98415691  1
  O  O316  1  0.57166664  0.74481717  0.48235474  1
  O  O317  1  0.58361189  0.74842596  0.97078459  1
  O  O318  1  0.90782314  0.06669346  0.48833918  1
  O  O319  1  0.89939553  0.07137985  0.97234343  1
  O  O320  1  0.91426720  0.41117267  0.48102728  1
  O  O321  1  0.90914805  0.40805114  0.98535121  1
  O  O322  1  0.91327607  0.74634652  0.47835271  1
  O  O323  1  0.89973914  0.74489435  0.96882852  1
  O  O324  1  0.09568326  0.26357386  0.23470441  1
  O  O325  1  0.09861874  0.27544272  0.72827907  1
  O  O326  1  0.10094061  0.59760293  0.23222462  1
  O  O327  1  0.09725705  0.60006600  0.72132951  1
  O  O328  1  0.09544096  0.92930341  0.21226311  1
  O  O329  1  0.08153898  0.92373974  0.73300549  1
  O  O330  1  0.41437699  0.25510465  0.23239304  1
  O  O331  1  0.42903852  0.26024089  0.73223233  1
  O  O332  1  0.43522341  0.59363060  0.22553653  1
  O  O333  1  0.43385677  0.59933692  0.72893578  1
  O  O334  1  0.42294475  0.91393576  0.22738101  1
  O  O335  1  0.42929586  0.92137125  0.74042213  1
  O  O336  1  0.75964988  0.26672717  0.23616479  1
  O  O337  1  0.75968399  0.26892198  0.72731378  1
  O  O338  1  0.76576954  0.58506290  0.22670441  1
  O  O339  1  0.76871638  0.58744127  0.73189396  1
  O  O340  1  0.76694908  0.93726932  0.21947682  1
  O  O341  1  0.76269589  0.92514665  0.74297874  1
  O  O342  1  0.07811063  0.09334418  0.22572726  1
  O  O343  1  0.06603209  0.08763897  0.74100391  1
  O  O344  1  0.06667132  0.43708500  0.23935108  1
  O  O345  1  0.06631314  0.42876729  0.71885759  1
  O  O346  1  0.06960093  0.75747454  0.21657848  1
  O  O347  1  0.06653688  0.75807444  0.71807149  1
  O  O348  1  0.39270647  0.09760886  0.21697936  1
  O  O349  1  0.40668187  0.10026825  0.74377505  1
  O  O350  1  0.40745204  0.43233293  0.24318222  1
  O  O351  1  0.40155327  0.42924003  0.74007381  1
  O  O352  1  0.40804517  0.75911348  0.22408513  1
  O  O353  1  0.40899662  0.75504663  0.72511371  1
  O  O354  1  0.74307988  0.09794202  0.23254482  1
  O  O355  1  0.72583739  0.10618537  0.73605361  1
  O  O356  1  0.74281355  0.43426784  0.22764129  1
  O  O357  1  0.74959999  0.42210528  0.72446394  1
  O  O358  1  0.74390213  0.75828747  0.23025928  1
  O  O359  1  0.74821600  0.76331211  0.74021291  1
