# generated using pymatgen
data_BaLaInIrO6
_symmetry_space_group_name_H-M   'P 1'
_cell_length_a   17.50844291
_cell_length_b   17.55388511
_cell_length_c   16.48529016
_cell_angle_alpha   90.00964359
_cell_angle_beta   90.01463656
_cell_angle_gamma   89.96769129
_symmetry_Int_Tables_number   1
_chemical_formula_structural   BaLaInIrO6
_chemical_formula_sum   'Ba36 La36 In36 Ir36 O216'
_cell_volume   5066.60773932
_cell_formula_units_Z   36
loop_
 _symmetry_equiv_pos_site_id
 _symmetry_equiv_pos_as_xyz
  1  'x, y, z'
loop_
 _atom_site_type_symbol
 _atom_site_label
 _atom_site_symmetry_multiplicity
 _atom_site_fract_x
 _atom_site_fract_y
 _atom_site_fract_z
 _atom_site_occupancy
  Ba  Ba0  1  0.50075942  0.33869234  0.12494036  1
  Ba  Ba1  1  0.82918448  0.00873973  0.12133462  1
  Ba  Ba2  1  0.83585426  0.65475852  0.87739879  1
  Ba  Ba3  1  0.83206858  0.67380833  0.62347871  1
  Ba  Ba4  1  0.83619016  0.98981298  0.37190019  1
  Ba  Ba5  1  0.50237642  0.99180629  0.37820595  1
  Ba  Ba6  1  0.99838353  0.17416178  0.62507112  1
  Ba  Ba7  1  0.67074217  0.84259813  0.62598685  1
  Ba  Ba8  1  1.00241152  0.50926427  0.62679384  1
  Ba  Ba9  1  0.67167111  0.82525477  0.87668295  1
  Ba  Ba10  1  0.16948870  0.01509690  0.62605423  1
  Ba  Ba11  1  0.33038495  0.83854928  0.12227491  1
  Ba  Ba12  1  0.49994249  0.66030967  0.37667860  1
  Ba  Ba13  1  0.16576135  0.65974947  0.87635940  1
  Ba  Ba14  1  0.67121108  0.84753206  0.12298625  1
  Ba  Ba15  1  0.33404669  0.15238385  0.37444002  1
  Ba  Ba16  1  0.66513873  0.15137941  0.37604392  1
  Ba  Ba17  1  0.16907915  0.99200499  0.37781927  1
  Ba  Ba18  1  0.66869944  0.82657841  0.37396405  1
  Ba  Ba19  1  0.33323594  0.84434928  0.62589657  1
  Ba  Ba20  1  0.33450005  0.17130862  0.62212559  1
  Ba  Ba21  1  -0.00485835  0.48843679  0.37050306  1
  Ba  Ba22  1  0.50214717  0.32334127  0.87683359  1
  Ba  Ba23  1  0.83242557  0.68273994  0.12397682  1
  Ba  Ba24  1  0.16631702  0.99513769  0.87233245  1
  Ba  Ba25  1  0.33311828  0.48934213  0.87705027  1
  Ba  Ba26  1  0.16545941  0.67463277  0.12120637  1
  Ba  Ba27  1  0.83689997  0.98556226  0.86977109  1
  Ba  Ba28  1  0.33432674  0.16523523  0.87476144  1
  Ba  Ba29  1  0.99814818  0.51155146  0.12596820  1
  Ba  Ba30  1  0.33213485  0.48905085  0.37475358  1
  Ba  Ba31  1  0.66555129  0.49494703  0.37469252  1
  Ba  Ba32  1  0.66822342  0.17264166  0.62377581  1
  Ba  Ba33  1  0.66874098  0.50816265  0.62819589  1
  Ba  Ba34  1  1.00411629  0.84254910  0.11909562  1
  Ba  Ba35  1  0.33371096  0.50935129  0.12775814  1
  La  La36  1  0.33018184  0.81901494  0.87493447  1
  La  La37  1  0.33110994  0.82571338  0.37605827  1
  La  La38  1  0.82742885  0.01245824  0.62310611  1
  La  La39  1  0.49712704  0.01100020  0.62569190  1
  La  La40  1  0.82485022  0.35113745  0.12798588  1
  La  La41  1  0.16936149  0.31860716  0.37816162  1
  La  La42  1  0.33769799  0.51551977  0.62559928  1
  La  La43  1  0.83497241  0.32017894  0.87668127  1
  La  La44  1  -0.00863243  0.81434846  0.87829199  1
  La  La45  1  1.00634385  0.84804845  0.62957640  1
  La  La46  1  0.50582262  0.31828488  0.36894795  1
  La  La47  1  0.67181102  0.52110971  0.12482999  1
  La  La48  1  0.49365576  0.34657058  0.61806194  1
  La  La49  1  -0.00504752  0.15476384  0.37335581  1
  La  La50  1  0.49889217  0.01253988  0.13048683  1
  La  La51  1  -0.00513879  0.48335893  0.88028373  1
  La  La52  1  0.16583302  0.34204253  0.62737485  1
  La  La53  1  0.33645228  0.17604482  0.13163676  1
  La  La54  1  0.16130639  0.34316404  0.11967380  1
  La  La55  1  -0.00474534  0.15149218  0.87342437  1
  La  La56  1  0.15860675  0.68303160  0.62559667  1
  La  La57  1  0.65987857  0.14719298  0.87941565  1
  La  La58  1  0.17104437  0.65295439  0.37151752  1
  La  La59  1  0.49697343  0.68484972  0.62058772  1
  La  La60  1  0.66274543  0.48749941  0.87637990  1
  La  La61  1  0.83658166  0.31855140  0.37634629  1
  La  La62  1  0.50508044  0.98895728  0.87462586  1
  La  La63  1  0.51372648  0.65477758  0.88132458  1
  La  La64  1  0.67164958  0.17827245  0.12506113  1
  La  La65  1  0.17028409  0.32307978  0.87168201  1
  La  La66  1  0.83412764  0.65153616  0.37327690  1
  La  La67  1  0.16248506  0.01630822  0.12183789  1
  La  La68  1  0.49366816  0.68338895  0.13056575  1
  La  La69  1  0.99872542  0.18030715  0.12341469  1
  La  La70  1  -0.01142439  0.81473486  0.36957511  1
  La  La71  1  0.82721319  0.34775683  0.62675147  1
  In  In72  1  0.50188690  0.83760051  0.00284068  1
  In  In73  1  0.33170824  -0.00494947  0.25007027  1
  In  In74  1  0.32972199  0.66905640  0.50016538  1
  In  In75  1  0.83192161  0.16830387  0.75113789  1
  In  In76  1  0.66931567  0.66696707  0.75162667  1
  In  In77  1  0.16694179  0.83696085  -0.00435876  1
  In  In78  1  0.16301679  0.16739966  -0.00248003  1
  In  In79  1  0.16524929  0.16817677  0.25024174  1
  In  In80  1  0.33920831  0.66546050  -0.00140335  1
  In  In81  1  0.16404011  0.83480574  0.25107848  1
  In  In82  1  0.00183396  -0.00166899  0.49953629  1
  In  In83  1  0.50034889  0.83439812  0.75160295  1
  In  In84  1  0.33074340  0.33262103  0.00097390  1
  In  In85  1  0.33460818  0.00119912  0.00213946  1
  In  In86  1  0.50248886  0.49888277  0.00563372  1
  In  In87  1  0.50070894  0.50183768  0.74897939  1
  In  In88  1  0.00116695  0.66553071  0.49886840  1
  In  In89  1  0.33762973  0.00303812  0.75507576  1
  In  In90  1  0.16502389  0.49677996  0.25055373  1
  In  In91  1  0.83613387  0.83231243  0.50030341  1
  In  In92  1  0.50196204  0.49921454  0.25064955  1
  In  In93  1  0.33614605  0.66637733  0.74919097  1
  In  In94  1  0.66505419  0.66773694  0.50040587  1
  In  In95  1  0.66480432  0.33326761  0.49835875  1
  In  In96  1  0.16313778  0.49951553  -0.00220981  1
  In  In97  1  -0.00069194  0.33057695  0.50187546  1
  In  In98  1  0.49989380  0.16706649  0.49977126  1
  In  In99  1  0.50110324  0.16565610  0.00370551  1
  In  In100  1  0.66543148  0.33013878  0.75124651  1
  In  In101  1  0.16643709  0.49996270  0.75045242  1
  In  In102  1  0.00016466  0.00046233  0.24613458  1
  In  In103  1  0.83363493  0.49724813  0.49978364  1
  In  In104  1  0.83149901  0.16639067  0.24667478  1
  In  In105  1  0.33353167  0.33231693  0.74554067  1
  In  In106  1  0.16550211  0.83635972  0.75410519  1
  In  In107  1  0.16774353  0.49914472  0.50107663  1
  Ir  Ir108  1  -0.00325118  0.33162705  0.24660059  1
  Ir  Ir109  1  0.66848510  0.66952453  0.24673501  1
  Ir  Ir110  1  0.84122841  0.83362801  0.75015742  1
  Ir  Ir111  1  0.67387852  0.33256732  0.00286628  1
  Ir  Ir112  1  -0.00479535  0.00516208  -0.00321462  1
  Ir  Ir113  1  0.66802845  0.00166089  -0.00154374  1
  Ir  Ir114  1  -0.00222487  -0.00022159  0.75089620  1
  Ir  Ir115  1  0.66837892  -0.00067421  0.74963419  1
  Ir  Ir116  1  0.50443630  0.16674862  0.24777903  1
  Ir  Ir117  1  -0.00223909  0.33226014  0.75554646  1
  Ir  Ir118  1  0.66911313  0.33383881  0.24722404  1
  Ir  Ir119  1  -0.00711596  0.33110771  0.00134056  1
  Ir  Ir120  1  0.83217679  0.83224694  0.24728811  1
  Ir  Ir121  1  0.66334576  -0.00051938  0.24816901  1
  Ir  Ir122  1  0.16695967  0.16980072  0.50232727  1
  Ir  Ir123  1  0.33219325  0.32890006  0.25544196  1
  Ir  Ir124  1  0.83360448  0.16469968  0.49930528  1
  Ir  Ir125  1  0.83502243  0.83533732  -0.00130572  1
  Ir  Ir126  1  0.83022339  0.49738861  -0.00049256  1
  Ir  Ir127  1  0.33428424  0.67074444  0.25323093  1
  Ir  Ir128  1  0.49650622  0.49717418  0.49915490  1
  Ir  Ir129  1  -0.00171421  0.66758992  0.24766575  1
  Ir  Ir130  1  0.83187886  0.16955284  -0.00163007  1
  Ir  Ir131  1  0.66669521  -0.00155587  0.50169045  1
  Ir  Ir132  1  0.50340690  0.83408435  0.25221002  1
  Ir  Ir133  1  0.33387268  -0.00296163  0.50173327  1
  Ir  Ir134  1  0.49988745  0.83733092  0.49896787  1
  Ir  Ir135  1  0.16127521  0.83373785  0.49925563  1
  Ir  Ir136  1  0.33144663  0.33179707  0.49668774  1
  Ir  Ir137  1  0.83672646  0.49677163  0.75682966  1
  Ir  Ir138  1  0.67093192  0.66599890  0.00152144  1
  Ir  Ir139  1  0.83012592  0.49988217  0.24495031  1
  Ir  Ir140  1  -0.00389354  0.66498188  -0.00012693  1
  Ir  Ir141  1  0.15953111  0.16972586  0.74760566  1
  Ir  Ir142  1  -0.00142246  0.66626991  0.75052878  1
  Ir  Ir143  1  0.50558027  0.16475340  0.75061737  1
  O  O144  1  0.29859965  0.31948703  0.13592324  1
  O  O145  1  0.30167329  0.32710877  0.61561932  1
  O  O146  1  0.31800626  0.67094576  0.13521004  1
  O  O147  1  0.29403804  0.66141765  0.62221300  1
  O  O148  1  0.29417298  0.99165829  0.12704171  1
  O  O149  1  0.31993444  1.00252134  0.62196266  1
  O  O150  1  0.64930558  0.31729379  0.12444299  1
  O  O151  1  0.63167637  0.32925004  0.62556274  1
  O  O152  1  0.63783912  0.66250595  0.12323884  1
  O  O153  1  0.63441344  0.66544344  0.62676637  1
  O  O154  1  0.63672255  1.00286699  0.12338030  1
  O  O155  1  0.63724059  0.99887663  0.62634735  1
  O  O156  1  0.95946445  0.32168182  0.12417539  1
  O  O157  1  0.96238889  0.32797885  0.63568190  1
  O  O158  1  0.97711160  0.66674150  0.12325207  1
  O  O159  1  0.98040126  0.66814476  0.63228173  1
  O  O160  1  0.97724543  1.00313303  0.11411182  1
  O  O161  1  0.96735899  0.99046079  0.63046764  1
  O  O162  1  0.19703675  0.16364153  0.12437741  1
  O  O163  1  0.18707445  0.17272426  0.62461645  1
  O  O164  1  0.18198762  0.48171558  0.12661275  1
  O  O165  1  0.20030138  0.48042819  0.62480913  1
  O  O166  1  0.17693013  0.82883154  0.12243250  1
  O  O167  1  0.18278853  0.82238212  0.62047247  1
  O  O168  1  0.53796824  0.15958764  0.13015117  1
  O  O169  1  0.52094016  0.15473853  0.62951356  1
  O  O170  1  0.53894269  0.49097642  0.12940785  1
  O  O171  1  0.52094196  0.48138175  0.61566781  1
  O  O172  1  0.52484028  0.82236642  0.13379830  1
  O  O173  1  0.52173750  0.83000150  0.61780578  1
  O  O174  1  0.86216423  0.16628630  0.11688212  1
  O  O175  1  0.84864849  0.15379035  0.62113193  1
  O  O176  1  0.85177368  0.48810209  0.12205341  1
  O  O177  1  0.85627670  0.48500764  0.63594283  1
  O  O178  1  0.85255051  0.84149706  0.12242023  1
  O  O179  1  0.86939019  0.83376839  0.63132017  1
  O  O180  1  0.13413936  0.17786776  0.38081025  1
  O  O181  1  0.12942191  0.18004196  0.86715017  1
  O  O182  1  0.14427964  0.51240632  0.37359497  1
  O  O183  1  0.12817671  0.50057731  0.87344206  1
  O  O184  1  0.12703744  0.83820649  0.38105040  1
  O  O185  1  0.12394458  0.84113434  0.87505133  1
  O  O186  1  0.48290019  0.17465776  0.36806969  1
  O  O187  1  0.48947142  0.16513336  0.87187941  1
  O  O188  1  0.48080850  0.50396640  0.37910143  1
  O  O189  1  0.48201402  0.51688053  0.87822999  1
  O  O190  1  0.47028903  0.83851408  0.37547152  1
  O  O191  1  0.46697851  0.85190468  0.87708642  1
  O  O192  1  0.81508382  0.17815915  0.37812466  1
  O  O193  1  0.79712217  0.17950029  0.87989278  1
  O  O194  1  0.81579187  0.50867460  0.36453039  1
  O  O195  1  0.80205413  0.49805384  0.87872132  1
  O  O196  1  0.81910515  0.83234037  0.36541606  1
  O  O197  1  0.81934849  0.83058406  0.87503998  1
  O  O198  1  0.01869597  0.01983156  0.37417515  1
  O  O199  1  0.01719560  0.01421741  0.87514380  1
  O  O200  1  0.02888622  0.33033503  0.36640396  1
  O  O201  1  0.02967656  0.34069842  0.87906870  1
  O  O202  1  0.02889556  0.67246977  0.36695955  1
  O  O203  1  0.01633479  0.67247789  0.87490771  1
  O  O204  1  0.35075384  -0.00871921  0.38210629  1
  O  O205  1  0.37305121  0.01553156  0.87829242  1
  O  O206  1  0.36806301  0.33219213  0.37634296  1
  O  O207  1  0.35320201  0.33064892  0.87114130  1
  O  O208  1  0.35163855  0.68189403  0.37240737  1
  O  O209  1  0.37821590  0.67620830  0.87290258  1
  O  O210  1  0.68893314  -0.00287172  0.37660972  1
  O  O211  1  0.69182807  0.01201273  0.87476719  1
  O  O212  1  0.70107239  0.33920534  0.36628069  1
  O  O213  1  0.70101680  0.34293455  0.88335795  1
  O  O214  1  0.69672264  0.66728964  0.36629449  1
  O  O215  1  0.68817277  0.66592563  0.88337189  1
  O  O216  1  0.05631087  0.10336797  0.01537096  1
  O  O217  1  0.07733193  0.09867217  0.51627803  1
  O  O218  1  0.06175109  0.41932760  0.02030649  1
  O  O219  1  0.07692536  0.41951741  0.52281691  1
  O  O220  1  0.06624784  0.75466854  0.00670210  1
  O  O221  1  0.06838167  0.76882931  0.52381982  1
  O  O222  1  0.40898719  0.09428258  0.04374080  1
  O  O223  1  0.40996154  0.08447261  0.51506151  1
  O  O224  1  0.40827095  0.42365759  0.02052604  1
  O  O225  1  0.39852537  0.42742102  0.52529627  1
  O  O226  1  0.41639768  0.75746030  0.02364035  1
  O  O227  1  0.41200178  0.76279998  0.51623519  1
  O  O228  1  0.73349932  0.10452016  0.02071122  1
  O  O229  1  0.74234104  0.08797124  0.52296711  1
  O  O230  1  0.73602740  0.43026643  0.02759701  1
  O  O231  1  0.74396760  0.41895494  0.52487947  1
  O  O232  1  0.74062618  0.76230115  0.01719308  1
  O  O233  1  0.74286372  0.76019940  0.51565412  1
  O  O234  1  0.08253242  0.26249732  0.03203563  1
  O  O235  1  0.10248918  0.26328343  0.52061881  1
  O  O236  1  0.08266736  0.59300584  0.01485533  1
  O  O237  1  0.10235327  0.60375806  0.52394128  1
  O  O238  1  0.09231492  0.94447763  0.01894171  1
  O  O239  1  0.09571560  0.92280957  0.52734501  1
  O  O240  1  0.41786993  0.24985642  0.02536169  1
  O  O241  1  0.42672449  0.26766159  0.51937792  1
  O  O242  1  0.44025524  0.60028371  0.03049213  1
  O  O243  1  0.42856353  0.59036304  0.52675255  1
  O  O244  1  0.43870296  0.93750952  0.03073140  1
  O  O245  1  0.43051943  0.93105205  0.52483917  1
  O  O246  1  0.76887789  0.26465704  0.02781319  1
  O  O247  1  0.77055197  0.26040340  0.51827152  1
  O  O248  1  0.76075241  0.58964638  0.02596877  1
  O  O249  1  0.75906460  0.59128681  0.50633300  1
  O  O250  1  0.76252139  0.93013490  0.00984349  1
  O  O251  1  0.76326854  0.93401807  0.52196434  1
  O  O252  1  0.24094679  0.07508505  0.26579747  1
  O  O253  1  0.23553472  0.08330695  0.76424063  1
  O  O254  1  0.23972981  0.39676280  0.27733813  1
  O  O255  1  0.22919600  0.39526074  0.76867431  1
  O  O256  1  0.23912356  0.73620261  0.27743524  1
  O  O257  1  0.24453296  0.74642523  0.77404562  1
  O  O258  1  0.57076231  0.07012683  0.26611303  1
  O  O259  1  0.57246638  0.06725518  0.77491481  1
  O  O260  1  0.57522186  0.39792425  0.27472121  1
  O  O261  1  0.58021564  0.41090084  0.77585335  1
  O  O262  1  0.57348804  0.73769283  0.26759226  1
  O  O263  1  0.57100879  0.73737803  0.77797486  1
  O  O264  1  0.90899902  0.07920288  0.26668508  1
  O  O265  1  0.91091023  0.07585097  0.76628813  1
  O  O266  1  0.89521449  0.39787701  0.26739909  1
  O  O267  1  0.90600806  0.40255575  0.78633071  1
  O  O268  1  0.90099740  0.73621916  0.27250368  1
  O  O269  1  0.90963199  0.74110145  0.77493869  1
  O  O270  1  0.25810983  0.24561455  0.27871036  1
  O  O271  1  0.24662363  0.23994034  0.76403618  1
  O  O272  1  0.26043542  0.58272339  0.26927686  1
  O  O273  1  0.26677007  0.56691962  0.76323963  1
  O  O274  1  0.26757206  0.89442892  0.27759528  1
  O  O275  1  0.26611805  0.90626446  0.77391245  1
  O  O276  1  0.59702100  0.24162703  0.27067603  1
  O  O277  1  0.60239018  0.22637357  0.77628314  1
  O  O278  1  0.60112630  0.57889940  0.25964700  1
  O  O279  1  0.59994570  0.57070087  0.77947724  1
  O  O280  1  0.59359186  0.90533567  0.26747387  1
  O  O281  1  0.59763725  0.91304140  0.77034821  1
  O  O282  1  0.93064288  0.24146419  0.27278590  1
  O  O283  1  0.92895305  0.24226036  0.78410206  1
  O  O284  1  0.92085897  0.57847817  0.26978842  1
  O  O285  1  0.93434166  0.56515572  0.77653870  1
  O  O286  1  0.92862976  0.89690270  0.26692623  1
  O  O287  1  0.93873750  0.89975825  0.77098947  1
  O  O288  1  0.25903930  0.24163946  0.47206199  1
  O  O289  1  0.24621597  0.24780793  0.97267517  1
  O  O290  1  0.25990541  0.57478522  0.47673524  1
  O  O291  1  0.25890584  0.57427380  0.98843210  1
  O  O292  1  0.26165171  0.89883885  0.47919051  1
  O  O293  1  0.26916504  0.90202095  0.96706286  1
  O  O294  1  0.58848550  0.24468910  0.47369727  1
  O  O295  1  0.60946490  0.23480143  0.98482970  1
  O  O296  1  0.58540399  0.56898775  0.48616658  1
  O  O297  1  0.60810982  0.57086703  0.98248205  1
  O  O298  1  0.59411759  0.90773730  0.48292175  1
  O  O299  1  0.59750709  0.91360672  0.97743231  1
  O  O300  1  0.92763154  0.23139602  0.47404664  1
  O  O301  1  0.92606078  0.23695496  0.97065447  1
  O  O302  1  0.92604443  0.57231755  0.48267890  1
  O  O303  1  0.92735411  0.56304492  0.97787540  1
  O  O304  1  0.93647809  0.89735688  0.47734092  1
  O  O305  1  0.93263754  0.90385683  0.97585032  1
  O  O306  1  0.24203373  0.07249794  0.48465263  1
  O  O307  1  0.23315064  0.07109821  0.98744557  1
  O  O308  1  0.23800056  0.39448496  0.47280397  1
  O  O309  1  0.22651330  0.39811730  0.98177884  1
  O  O310  1  0.22758930  0.74312332  0.47184847  1
  O  O311  1  0.24976453  0.74656505  0.97328465  1
  O  O312  1  0.57799845  0.07085841  0.49035832  1
  O  O313  1  0.57532812  0.06842473  0.97849736  1
  O  O314  1  0.55849610  0.40071924  0.47492708  1
  O  O315  1  0.58675667  0.40477314  0.97876076  1
  O  O316  1  0.56832477  0.74599476  0.48405143  1
  O  O317  1  0.57775127  0.73309583  0.98272327  1
  O  O318  1  0.90385322  0.07560658  0.48616973  1
  O  O319  1  0.90220155  0.07931278  0.97074406  1
  O  O320  1  0.90017221  0.39543048  0.47548793  1
  O  O321  1  0.89747372  0.40145588  0.97434086  1
  O  O322  1  0.90608578  0.73452538  0.46513782  1
  O  O323  1  0.90735425  0.74346880  0.98094619  1
  O  O324  1  0.08916498  0.26649106  0.21957984  1
  O  O325  1  0.09176570  0.26669299  0.72551094  1
  O  O326  1  0.08872168  0.59815609  0.23444336  1
  O  O327  1  0.09405068  0.60206995  0.72594799  1
  O  O328  1  0.10161527  0.93843075  0.22549878  1
  O  O329  1  0.08577561  0.92908451  0.72579253  1
  O  O330  1  0.42376218  0.25353266  0.22648375  1
  O  O331  1  0.44128816  0.26013184  0.72585108  1
  O  O332  1  0.42802381  0.60014714  0.23168240  1
  O  O333  1  0.43144058  0.59397500  0.70775049  1
  O  O334  1  0.43758746  0.92714410  0.22905438  1
  O  O335  1  0.43966793  0.93863753  0.72964783  1
  O  O336  1  0.76318439  0.26600486  0.22454273  1
  O  O337  1  0.76983047  0.26932990  0.72872914  1
  O  O338  1  0.75892616  0.59411113  0.22316660  1
  O  O339  1  0.76799217  0.58638396  0.73596742  1
  O  O340  1  0.76114105  0.92849699  0.23270591  1
  O  O341  1  0.76917880  0.93130982  0.72487890  1
  O  O342  1  0.06716695  0.10315155  0.21854775  1
  O  O343  1  0.06513677  0.09780997  0.73774655  1
  O  O344  1  0.06781419  0.41748441  0.22727534  1
  O  O345  1  0.06700957  0.41921365  0.73272588  1
  O  O346  1  0.06331788  0.75990204  0.23852237  1
  O  O347  1  0.06590352  0.75947559  0.72822613  1
  O  O348  1  0.41336174  0.09481280  0.22486135  1
  O  O349  1  0.41577910  0.09855417  0.73152329  1
  O  O350  1  0.40553454  0.41558586  0.23559638  1
  O  O351  1  0.40435323  0.42798828  0.71731708  1
  O  O352  1  0.41065302  0.76266856  0.23387384  1
  O  O353  1  0.41362616  0.75650730  0.71847346  1
  O  O354  1  0.73031795  0.09474215  0.22764024  1
  O  O355  1  0.74063014  0.08749571  0.73401500  1
  O  O356  1  0.73594145  0.42944619  0.21767050  1
  O  O357  1  0.74904604  0.42589588  0.73757640  1
  O  O358  1  0.73834349  0.76119574  0.23031348  1
  O  O359  1  0.75019624  0.76283516  0.73531050  1
