# generated using pymatgen
data_BaLaInIrO6
_symmetry_space_group_name_H-M   'P 1'
_cell_length_a   17.50141519
_cell_length_b   17.54968480
_cell_length_c   16.49057189
_cell_angle_alpha   89.95520503
_cell_angle_beta   90.02644301
_cell_angle_gamma   89.99842627
_symmetry_Int_Tables_number   1
_chemical_formula_structural   BaLaInIrO6
_chemical_formula_sum   'Ba36 La36 In36 Ir36 O216'
_cell_volume   5064.98340067
_cell_formula_units_Z   36
loop_
 _symmetry_equiv_pos_site_id
 _symmetry_equiv_pos_as_xyz
  1  'x, y, z'
loop_
 _atom_site_type_symbol
 _atom_site_label
 _atom_site_symmetry_multiplicity
 _atom_site_fract_x
 _atom_site_fract_y
 _atom_site_fract_z
 _atom_site_occupancy
  Ba  Ba0  1  0.99983186  0.17191798  0.62478178  1
  Ba  Ba1  1  0.33454371  0.49172508  0.37758756  1
  Ba  Ba2  1  0.83684702  0.01138623  0.12203169  1
  Ba  Ba3  1  0.83452225  0.65576292  0.87412037  1
  Ba  Ba4  1  0.49857098  0.34383445  0.12595506  1
  Ba  Ba5  1  0.49798158  0.34087859  0.62957546  1
  Ba  Ba6  1  0.33460760  0.16309415  0.37302918  1
  Ba  Ba7  1  0.83567793  0.65344730  0.37640207  1
  Ba  Ba8  1  0.16553585  0.66265138  0.37789437  1
  Ba  Ba9  1  0.66809397  0.84742506  0.62199220  1
  Ba  Ba10  1  0.16203150  0.33062267  0.37644302  1
  Ba  Ba11  1  -0.00226360  0.82497790  0.37702170  1
  Ba  Ba12  1  1.00232404  0.50301719  0.62451842  1
  Ba  Ba13  1  0.66481882  0.82282199  0.37533827  1
  Ba  Ba14  1  1.00246593  0.83753268  0.62814076  1
  Ba  Ba15  1  0.99884491  0.84271122  0.12910239  1
  Ba  Ba16  1  0.33333274  0.82489914  0.87106437  1
  Ba  Ba17  1  0.16804858  0.00576026  0.62497892  1
  Ba  Ba18  1  0.49650113  0.01254654  0.62777040  1
  Ba  Ba19  1  0.33521231  0.84632641  0.62613690  1
  Ba  Ba20  1  0.16519829  0.33582700  0.62076642  1
  Ba  Ba21  1  0.83042520  0.99508272  0.87995066  1
  Ba  Ba22  1  -0.00327409  0.48733173  0.87614703  1
  Ba  Ba23  1  0.16918161  0.67131043  0.62250351  1
  Ba  Ba24  1  0.66812702  0.50606245  0.12579718  1
  Ba  Ba25  1  0.83027283  0.67748559  0.12206084  1
  Ba  Ba26  1  -0.00325950  0.82293250  0.87795331  1
  Ba  Ba27  1  0.33859264  0.51364037  0.12705002  1
  Ba  Ba28  1  0.16593001  0.99721283  0.37681547  1
  Ba  Ba29  1  0.99829532  0.17762175  0.11980821  1
  Ba  Ba30  1  0.50137553  0.99045944  0.87665237  1
  Ba  Ba31  1  0.33730356  0.50984084  0.62376099  1
  Ba  Ba32  1  0.83552871  0.32492788  0.37454614  1
  Ba  Ba33  1  0.33432388  0.17289406  0.62136673  1
  Ba  Ba34  1  0.83555205  0.32189513  0.87543937  1
  Ba  Ba35  1  0.67532915  0.17526681  0.12096552  1
  La  La36  1  0.32892500  0.48382294  0.87599921  1
  La  La37  1  0.50352028  0.98481158  0.38321122  1
  La  La38  1  0.83250006  0.00655597  0.62337115  1
  La  La39  1  0.49329989  0.68711672  0.62342092  1
  La  La40  1  1.00037938  0.51595458  0.12076004  1
  La  La41  1  0.15979745  0.68249089  0.12350599  1
  La  La42  1  0.16409922  0.34811579  0.12750855  1
  La  La43  1  0.67296316  0.17489260  0.62764590  1
  La  La44  1  0.50547971  0.31622039  0.87451208  1
  La  La45  1  0.83981873  0.98838108  0.37111513  1
  La  La46  1  0.50289245  0.65588839  0.37430516  1
  La  La47  1  0.33205108  0.15012798  0.87071147  1
  La  La48  1  0.00441196  0.49657623  0.37739328  1
  La  La49  1  0.66221093  0.14655491  0.37403112  1
  La  La50  1  0.83087990  0.34855577  0.62822525  1
  La  La51  1  0.49962672  0.01149253  0.12585308  1
  La  La52  1  0.50677928  0.31580911  0.38037126  1
  La  La53  1  0.33556912  0.18298760  0.12606962  1
  La  La54  1  0.82734761  0.34899892  0.12013220  1
  La  La55  1  -0.00186446  0.15271434  0.37613640  1
  La  La56  1  0.16710549  0.65227734  0.86612524  1
  La  La57  1  0.49653639  0.68181618  0.12512391  1
  La  La58  1  0.50575892  0.65083998  0.87436932  1
  La  La59  1  0.32701805  0.82222977  0.37883457  1
  La  La60  1  0.66686776  0.48241017  0.88012991  1
  La  La61  1  0.15781209  0.01844931  0.12682868  1
  La  La62  1  0.67277441  0.51475311  0.62625535  1
  La  La63  1  0.65777319  0.81967956  0.87678933  1
  La  La64  1  0.66599148  0.14877533  0.87849492  1
  La  La65  1  0.17080592  0.98456776  0.87282475  1
  La  La66  1  0.33276461  0.84493964  0.12693953  1
  La  La67  1  0.66347332  0.48402726  0.37578816  1
  La  La68  1  0.83169289  0.68747945  0.62764534  1
  La  La69  1  -0.00428258  0.15541906  0.87268280  1
  La  La70  1  0.67325362  0.85074254  0.12375901  1
  La  La71  1  0.16449970  0.31841377  0.87478333  1
  In  In72  1  0.66452541  0.66578179  0.74961962  1
  In  In73  1  0.83407939  0.16993431  0.24949126  1
  In  In74  1  -0.00176144  0.66401777  0.75039362  1
  In  In75  1  0.49864456  0.49909364  -0.00113204  1
  In  In76  1  0.16476699  0.17099602  0.24900688  1
  In  In77  1  0.33204475  0.00062076  0.24786301  1
  In  In78  1  0.66574307  0.33159393  0.74888125  1
  In  In79  1  0.16670583  0.49474975  0.75034566  1
  In  In80  1  0.33473857  0.33071375  0.75216289  1
  In  In81  1  0.16535348  0.16509503  0.75083890  1
  In  In82  1  -0.00152818  0.66745462  0.24852737  1
  In  In83  1  -0.00018730  -0.00057958  0.50202154  1
  In  In84  1  0.50200857  0.16363941  0.24928793  1
  In  In85  1  0.83138840  0.83534169  0.49782471  1
  In  In86  1  -0.00651098  0.33010755  0.49859301  1
  In  In87  1  0.16858882  0.50434633  0.24671542  1
  In  In88  1  0.49974078  0.16595913  0.00136789  1
  In  In89  1  0.66593744  0.66427527  0.50175475  1
  In  In90  1  0.16878632  0.49907113  0.50050121  1
  In  In91  1  0.16781880  0.50028018  -0.00110449  1
  In  In92  1  0.66834293  0.32953620  0.25081913  1
  In  In93  1  -0.00231503  0.66339612  0.50162703  1
  In  In94  1  0.16843246  0.83759526  0.24931682  1
  In  In95  1  0.32907729  -0.00042720  0.00351883  1
  In  In96  1  0.83123520  0.83802102  0.75431417  1
  In  In97  1  0.16860991  0.83075196  0.74928972  1
  In  In98  1  0.33310239  0.33468145  0.25203218  1
  In  In99  1  0.66467720  -0.00003038  0.74840464  1
  In  In100  1  0.00247668  -0.00108745  -0.00193569  1
  In  In101  1  0.66679836  0.66466297  0.25005124  1
  In  In102  1  0.49936288  0.83433919  0.24877786  1
  In  In103  1  0.50095693  0.49959980  0.25284908  1
  In  In104  1  0.66579708  0.66405425  0.00069594  1
  In  In105  1  0.33412077  0.66997534  -0.00182467  1
  In  In106  1  0.50452970  0.49772348  0.50538323  1
  In  In107  1  0.33580857  0.00356064  0.49862188  1
  Ir  Ir108  1  0.83421450  0.16678220  0.74772252  1
  Ir  Ir109  1  -0.00061241  0.00311771  0.75278701  1
  Ir  Ir110  1  0.33566034  0.00098838  0.75336062  1
  Ir  Ir111  1  0.50254069  0.83403218  0.00135583  1
  Ir  Ir112  1  0.83591756  0.49728890  -0.00069863  1
  Ir  Ir113  1  -0.00114503  0.00388397  0.24880860  1
  Ir  Ir114  1  0.49886381  0.83498437  0.50084702  1
  Ir  Ir115  1  -0.00401862  0.33000578  0.75324041  1
  Ir  Ir116  1  0.66625232  -0.00157338  0.25282370  1
  Ir  Ir117  1  0.34099476  0.67263500  0.50114772  1
  Ir  Ir118  1  0.16728472  0.83105291  -0.00179444  1
  Ir  Ir119  1  0.83113530  0.49771860  0.74771032  1
  Ir  Ir120  1  0.16757827  0.16996916  -0.00412791  1
  Ir  Ir121  1  0.82768869  0.16575879  0.49973618  1
  Ir  Ir122  1  0.82823915  0.49483843  0.50347079  1
  Ir  Ir123  1  0.00017794  0.66902596  0.00226031  1
  Ir  Ir124  1  0.50608233  0.16841807  0.50197133  1
  Ir  Ir125  1  0.33746463  0.33039888  0.50096749  1
  Ir  Ir126  1  0.82779358  0.83546507  0.00280956  1
  Ir  Ir127  1  0.34355951  0.66536121  0.75115701  1
  Ir  Ir128  1  0.49818113  0.83220050  0.75457055  1
  Ir  Ir129  1  0.33425108  0.67236669  0.24964211  1
  Ir  Ir130  1  0.16951928  0.83392621  0.49918520  1
  Ir  Ir131  1  0.66565094  0.00572542  0.49796032  1
  Ir  Ir132  1  0.83387323  0.16955207  -0.00646593  1
  Ir  Ir133  1  0.66887533  0.32849612  0.50270317  1
  Ir  Ir134  1  0.66889873  0.33195994  -0.00446209  1
  Ir  Ir135  1  0.33130957  0.33009799  -0.00557714  1
  Ir  Ir136  1  0.82956863  0.83881429  0.24526707  1
  Ir  Ir137  1  -0.00559536  0.33693760  0.24327937  1
  Ir  Ir138  1  0.50131942  0.16596717  0.75284880  1
  Ir  Ir139  1  -0.00054336  0.33222631  0.00230787  1
  Ir  Ir140  1  0.50096974  0.50073532  0.75466665  1
  Ir  Ir141  1  0.83492433  0.49505381  0.24993955  1
  Ir  Ir142  1  0.16496831  0.16944981  0.49844198  1
  Ir  Ir143  1  0.66640254  -0.00242157  0.00113406  1
  O  O144  1  0.30047573  0.32126213  0.11199279  1
  O  O145  1  0.31806516  0.32903088  0.62238173  1
  O  O146  1  0.30230048  0.67007113  0.12973020  1
  O  O147  1  0.31969065  0.66660171  0.62617436  1
  O  O148  1  0.29028309  0.98087170  0.12226246  1
  O  O149  1  0.32114676  1.00462012  0.63090590  1
  O  O150  1  0.65096380  0.33347735  0.11675905  1
  O  O151  1  0.64629791  0.31553904  0.62156615  1
  O  O152  1  0.63311136  0.66042785  0.12410449  1
  O  O153  1  0.62856242  0.65193047  0.62730241  1
  O  O154  1  0.63610371  0.99089797  0.12832459  1
  O  O155  1  0.64617899  1.01168220  0.61836821  1
  O  O156  1  0.96491800  0.32668615  0.12191959  1
  O  O157  1  0.96842704  0.32524508  0.63248882  1
  O  O158  1  0.97693669  0.66266328  0.12077699  1
  O  O159  1  0.96392286  0.66069606  0.62564284  1
  O  O160  1  0.98841798  1.00416721  0.12758831  1
  O  O161  1  0.97024559  1.00032062  0.63119057  1
  O  O162  1  0.19705720  0.15835298  0.11368842  1
  O  O163  1  0.18201634  0.16770468  0.62122548  1
  O  O164  1  0.19037003  0.48374808  0.12046222  1
  O  O165  1  0.18875477  0.48989656  0.62644235  1
  O  O166  1  0.19608681  0.82057575  0.11776443  1
  O  O167  1  0.18525019  0.83515978  0.61908633  1
  O  O168  1  0.52828853  0.15217517  0.12382270  1
  O  O169  1  0.53472301  0.16664921  0.62864309  1
  O  O170  1  0.51705251  0.49904834  0.12415743  1
  O  O171  1  0.53448038  0.49324390  0.63584539  1
  O  O172  1  0.53492447  0.82099783  0.11824573  1
  O  O173  1  0.52175893  0.82317039  0.62889521  1
  O  O174  1  0.84850958  0.16468275  0.11570798  1
  O  O175  1  0.85045771  0.14581611  0.62352725  1
  O  O176  1  0.86366540  0.48855250  0.12478219  1
  O  O177  1  0.85333661  0.48421151  0.62578094  1
  O  O178  1  0.85078227  0.83709956  0.12410553  1
  O  O179  1  0.85007851  0.83705566  0.62559854  1
  O  O180  1  0.13622089  0.17175766  0.37682463  1
  O  O181  1  0.13291059  0.17939070  0.87951601  1
  O  O182  1  0.14029243  0.50370741  0.37182476  1
  O  O183  1  0.14687023  0.51390967  0.87652499  1
  O  O184  1  0.15281016  0.83533760  0.38001504  1
  O  O185  1  0.14689889  0.84546488  0.87976392  1
  O  O186  1  0.48606614  0.17506422  0.38180319  1
  O  O187  1  0.47127758  0.17124953  0.87380492  1
  O  O188  1  0.48238420  0.52051506  0.38115477  1
  O  O189  1  0.46535937  0.51286912  0.87151622  1
  O  O190  1  0.46975676  0.84504607  0.37911240  1
  O  O191  1  0.47940927  0.84013158  0.87870823  1
  O  O192  1  0.79798599  0.17256991  0.38089060  1
  O  O193  1  0.80369715  0.17020860  0.87009313  1
  O  O194  1  0.80113110  0.49700175  0.37774280  1
  O  O195  1  0.80286977  0.49953434  0.87239102  1
  O  O196  1  0.81139049  0.84834717  0.36529715  1
  O  O197  1  0.79603462  0.83860756  0.88389853  1
  O  O198  1  0.01316149  0.01152755  0.36950252  1
  O  O199  1  0.03206958  0.01170814  0.87286453  1
  O  O200  1  0.00785977  0.35364305  0.36367096  1
  O  O201  1  0.02811426  0.33284988  0.87903288  1
  O  O202  1  0.01076225  0.65139199  0.37291948  1
  O  O203  1  0.02862382  0.66697874  0.88373138  1
  O  O204  1  0.36836285  0.00590070  0.37330179  1
  O  O205  1  0.35078546  0.00614861  0.87492584  1
  O  O206  1  0.36654993  0.32838315  0.38247035  1
  O  O207  1  0.36902323  0.33825146  0.87892232  1
  O  O208  1  0.36868713  0.68361563  0.37439399  1
  O  O209  1  0.37202896  0.67222496  0.86942062  1
  O  O210  1  0.69820862  0.00533486  0.37490800  1
  O  O211  1  0.68098215  0.00609872  0.87890039  1
  O  O212  1  0.68887167  0.34162396  0.38495639  1
  O  O213  1  0.68722948  0.34107347  0.87546289  1
  O  O214  1  0.68466620  0.66949266  0.37615920  1
  O  O215  1  0.68369814  0.68329693  0.87544407  1
  O  O216  1  0.08061518  0.09726943  0.01661158  1
  O  O217  1  0.07426882  0.09627625  0.50744857  1
  O  O218  1  0.06584022  0.42447670  0.02813625  1
  O  O219  1  0.06934742  0.42179728  0.50320299  1
  O  O220  1  0.07360652  0.76008938  0.02537622  1
  O  O221  1  0.08281087  0.75911103  0.51161170  1
  O  O222  1  0.39859294  0.09691757  0.02341436  1
  O  O223  1  0.41675261  0.09806328  0.51519464  1
  O  O224  1  0.39480392  0.42617089  0.00980430  1
  O  O225  1  0.40941830  0.41969537  0.51714658  1
  O  O226  1  0.40601267  0.77150008  0.02786119  1
  O  O227  1  0.40841063  0.76550528  0.52131307  1
  O  O228  1  0.73443921  0.09931888  0.00276608  1
  O  O229  1  0.72864937  0.10395224  0.51972202  1
  O  O230  1  0.74055472  0.42650261  0.01590966  1
  O  O231  1  0.73047536  0.42757877  0.53085284  1
  O  O232  1  0.73295505  0.76857418  0.02237158  1
  O  O233  1  0.74164147  0.75565164  0.52374879  1
  O  O234  1  0.10294026  0.26976107  0.01932294  1
  O  O235  1  0.08909110  0.25290132  0.51135290  1
  O  O236  1  0.09293560  0.60098892  0.02562411  1
  O  O237  1  0.09008992  0.58890325  0.51690633  1
  O  O238  1  0.10533796  0.92952415  0.01912850  1
  O  O239  1  0.09387356  0.92068516  0.51445891  1
  O  O240  1  0.42188306  0.26178649  0.01909971  1
  O  O241  1  0.43641021  0.26130039  0.51688618  1
  O  O242  1  0.43859382  0.60866255  0.01736162  1
  O  O243  1  0.43621764  0.60583762  0.52062472  1
  O  O244  1  0.43638687  0.92895640  0.02833960  1
  O  O245  1  0.43372589  0.92808432  0.51459708  1
  O  O246  1  0.76506083  0.26484563  0.01799773  1
  O  O247  1  0.76407302  0.26052124  0.53207065  1
  O  O248  1  0.76420532  0.58585600  0.01365016  1
  O  O249  1  0.76956321  0.59072270  0.53213929  1
  O  O250  1  0.75588629  0.92561253  0.02670291  1
  O  O251  1  0.76078961  0.94231901  0.51775262  1
  O  O252  1  0.23073476  0.06845764  0.25451276  1
  O  O253  1  0.24239552  0.07023703  0.77723440  1
  O  O254  1  0.23178884  0.40139602  0.25724942  1
  O  O255  1  0.24089599  0.40263993  0.78612547  1
  O  O256  1  0.24555041  0.73924938  0.26885340  1
  O  O257  1  0.24609114  0.72914854  0.77212411  1
  O  O258  1  0.57126541  0.06220717  0.27957998  1
  O  O259  1  0.57409812  0.07941979  0.77177004  1
  O  O260  1  0.57194561  0.39890475  0.28191883  1
  O  O261  1  0.56516857  0.40500743  0.78142267  1
  O  O262  1  0.56036788  0.73188051  0.26865302  1
  O  O263  1  0.56350362  0.73896691  0.77503709  1
  O  O264  1  0.90609005  0.07371335  0.27444207  1
  O  O265  1  0.90688762  0.07677527  0.77299240  1
  O  O266  1  0.89524840  0.39565945  0.25163527  1
  O  O267  1  0.89796086  0.39870436  0.76062501  1
  O  O268  1  0.90195779  0.74931907  0.26209951  1
  O  O269  1  0.90393798  0.74100271  0.76327303  1
  O  O270  1  0.26443830  0.23508482  0.25214142  1
  O  O271  1  0.26062442  0.23616484  0.78187661  1
  O  O272  1  0.26760885  0.58134579  0.26924342  1
  O  O273  1  0.27643947  0.57363341  0.77564831  1
  O  O274  1  0.27358142  0.89438840  0.26999102  1
  O  O275  1  0.25781843  0.91480580  0.76792487  1
  O  O276  1  0.60049963  0.23221795  0.27836014  1
  O  O277  1  0.59473329  0.23358191  0.77756589  1
  O  O278  1  0.60181890  0.56426557  0.27817843  1
  O  O279  1  0.59720007  0.56190539  0.77965995  1
  O  O280  1  0.59583410  0.90905797  0.26762570  1
  O  O281  1  0.59444683  0.89821882  0.77212014  1
  O  O282  1  0.93881867  0.23672722  0.27241823  1
  O  O283  1  0.93119351  0.23246246  0.77305444  1
  O  O284  1  0.93220105  0.55596353  0.26185113  1
  O  O285  1  0.92058175  0.56480139  0.76702323  1
  O  O286  1  0.92286062  0.91408315  0.27029330  1
  O  O287  1  0.92970373  0.91658697  0.77196853  1
  O  O288  1  0.25882503  0.24231308  0.48105860  1
  O  O289  1  0.26476097  0.23377931  0.96840832  1
  O  O290  1  0.26817536  0.58542706  0.48513291  1
  O  O291  1  0.26751312  0.57120421  0.97177532  1
  O  O292  1  0.26165699  0.90583648  0.47958670  1
  O  O293  1  0.25659452  0.90090402  0.97822132  1
  O  O294  1  0.60509492  0.23285745  0.47654263  1
  O  O295  1  0.59790133  0.24043713  0.96866924  1
  O  O296  1  0.61183101  0.55458013  0.48925029  1
  O  O297  1  0.59724649  0.56695003  0.96532707  1
  O  O298  1  0.59186631  0.91176550  0.47626807  1
  O  O299  1  0.60483186  0.89593878  0.98460400  1
  O  O300  1  0.92560437  0.22757667  0.47510543  1
  O  O301  1  0.93296114  0.23553569  0.97428418  1
  O  O302  1  0.92292830  0.55391551  0.47691307  1
  O  O303  1  0.93385240  0.56835410  0.99018049  1
  O  O304  1  0.91792099  0.91733164  0.47445810  1
  O  O305  1  0.91909651  0.90802917  0.98729849  1
  O  O306  1  0.24033913  0.08324144  0.48525138  1
  O  O307  1  0.23182681  0.07638086  0.96734784  1
  O  O308  1  0.25032010  0.40330063  0.48305607  1
  O  O309  1  0.23770506  0.39538509  0.97005975  1
  O  O310  1  0.24996243  0.74801478  0.47614311  1
  O  O311  1  0.22754759  0.73311307  0.97478405  1
  O  O312  1  0.57164422  0.07366949  0.47117543  1
  O  O313  1  0.57909297  0.07126353  0.98268423  1
  O  O314  1  0.57395028  0.39317792  0.47755492  1
  O  O315  1  0.57333506  0.39944502  0.97162099  1
  O  O316  1  0.56043700  0.73569708  0.48311406  1
  O  O317  1  0.56333219  0.73904912  0.97440366  1
  O  O318  1  0.89432999  0.07441596  0.47500830  1
  O  O319  1  0.91204056  0.08438776  0.97592307  1
  O  O320  1  0.88954823  0.39801390  0.49766721  1
  O  O321  1  0.90339647  0.39973770  0.98827224  1
  O  O322  1  0.90530874  0.74008779  0.48830242  1
  O  O323  1  0.90225748  0.74240801  0.98252253  1
  O  O324  1  0.09235878  0.27443255  0.22484012  1
  O  O325  1  0.08892070  0.26366554  0.74244267  1
  O  O326  1  0.09369740  0.59359344  0.21208293  1
  O  O327  1  0.09818088  0.59443474  0.74202394  1
  O  O328  1  0.09589155  0.93742151  0.22793639  1
  O  O329  1  0.09100871  0.93397696  0.74147890  1
  O  O330  1  0.42532475  0.25576362  0.23009575  1
  O  O331  1  0.43380126  0.25765832  0.74257850  1
  O  O332  1  0.43249919  0.61106916  0.23297019  1
  O  O333  1  0.44394498  0.60180338  0.72987701  1
  O  O334  1  0.43061375  0.92823709  0.21302617  1
  O  O335  1  0.42779236  0.92671584  0.73680097  1
  O  O336  1  0.76923637  0.26753655  0.22417918  1
  O  O337  1  0.76646970  0.25838955  0.72265330  1
  O  O338  1  0.76995955  0.58813604  0.23512773  1
  O  O339  1  0.76460648  0.59057541  0.72079607  1
  O  O340  1  0.75844554  0.93085189  0.22535623  1
  O  O341  1  0.76587780  0.93996463  0.72781291  1
  O  O342  1  0.06772075  0.09569810  0.23393906  1
  O  O343  1  0.06845416  0.09248413  0.73873992  1
  O  O344  1  0.05693183  0.43102291  0.22145231  1
  O  O345  1  0.06707092  0.41696719  0.73833519  1
  O  O346  1  0.08146252  0.75629033  0.23136080  1
  O  O347  1  0.07808597  0.75639879  0.73988721  1
  O  O348  1  0.40504897  0.09277109  0.21330838  1
  O  O349  1  0.40337568  0.09936324  0.74131108  1
  O  O350  1  0.40503390  0.42869151  0.23705218  1
  O  O351  1  0.40789064  0.43489750  0.74112974  1
  O  O352  1  0.39850564  0.76548136  0.22272695  1
  O  O353  1  0.40926020  0.75922654  0.72780770  1
  O  O354  1  0.73397347  0.09140011  0.24166960  1
  O  O355  1  0.73561025  0.10507125  0.73577986  1
  O  O356  1  0.74119156  0.42980446  0.23882419  1
  O  O357  1  0.73540643  0.43126631  0.72766100  1
  O  O358  1  0.73640191  0.77009242  0.22505201  1
  O  O359  1  0.73856021  0.75892378  0.72875569  1
