# generated using pymatgen
data_BaLaInIrO6
_symmetry_space_group_name_H-M   'P 1'
_cell_length_a   17.50793306
_cell_length_b   17.52819933
_cell_length_c   16.48670475
_cell_angle_alpha   89.96886781
_cell_angle_beta   89.99401671
_cell_angle_gamma   90.04188449
_symmetry_Int_Tables_number   1
_chemical_formula_structural   BaLaInIrO6
_chemical_formula_sum   'Ba36 La36 In36 Ir36 O216'
_cell_volume   5059.47971463
_cell_formula_units_Z   36
loop_
 _symmetry_equiv_pos_site_id
 _symmetry_equiv_pos_as_xyz
  1  'x, y, z'
loop_
 _atom_site_type_symbol
 _atom_site_label
 _atom_site_symmetry_multiplicity
 _atom_site_fract_x
 _atom_site_fract_y
 _atom_site_fract_z
 _atom_site_occupancy
  Ba  Ba0  1  0.66522889  0.81464943  0.37504298  1
  Ba  Ba1  1  0.16586397  0.67708705  0.12703820  1
  Ba  Ba2  1  0.33727299  0.50630123  0.62708786  1
  Ba  Ba3  1  0.33394384  0.15754143  0.37591963  1
  Ba  Ba4  1  -0.00318323  0.81995126  0.37833945  1
  Ba  Ba5  1  0.83509611  0.98947458  0.37476458  1
  Ba  Ba6  1  0.17293604  0.99133715  0.37776627  1
  Ba  Ba7  1  0.33307317  0.50931472  0.12676513  1
  Ba  Ba8  1  0.66382008  0.49424766  0.37984162  1
  Ba  Ba9  1  0.33012030  0.83831551  0.12259979  1
  Ba  Ba10  1  0.66242230  0.15532073  0.87258611  1
  Ba  Ba11  1  0.66746935  0.82470304  0.87523187  1
  Ba  Ba12  1  1.00503368  0.17699805  0.62183039  1
  Ba  Ba13  1  0.83328892  0.65972983  0.37951649  1
  Ba  Ba14  1  0.33457731  0.15855499  0.86903560  1
  Ba  Ba15  1  0.00114025  0.49440960  0.87755996  1
  Ba  Ba16  1  0.50245746  0.66018264  0.88108840  1
  Ba  Ba17  1  0.17142635  0.32915338  0.87516622  1
  Ba  Ba18  1  0.50169676  0.65275548  0.37883724  1
  Ba  Ba19  1  0.16915804  0.66218605  0.87516949  1
  Ba  Ba20  1  0.16681881  0.65822614  0.37613605  1
  Ba  Ba21  1  0.50482927  0.98497289  0.37716163  1
  Ba  Ba22  1  0.83679392  0.65667568  0.87617438  1
  Ba  Ba23  1  0.49726627  0.32343460  0.87251299  1
  Ba  Ba24  1  -0.00367139  0.82030234  0.87620055  1
  Ba  Ba25  1  1.00076615  0.17520948  0.12650242  1
  Ba  Ba26  1  0.49622816  0.34393583  0.62634492  1
  Ba  Ba27  1  0.49677689  0.67200434  0.62360094  1
  Ba  Ba28  1  0.66324747  0.51200971  0.62438285  1
  Ba  Ba29  1  0.50084097  0.99205571  0.86888491  1
  Ba  Ba30  1  0.16917063  0.99468585  0.87235975  1
  Ba  Ba31  1  0.16715731  0.34472893  0.62217230  1
  Ba  Ba32  1  0.00057077  0.15270951  0.37941712  1
  Ba  Ba33  1  0.33332220  0.17576829  0.62037176  1
  Ba  Ba34  1  0.32890837  0.82672837  0.87331022  1
  Ba  Ba35  1  0.83399092  0.32412926  0.87230278  1
  La  La36  1  0.84544441  0.98806832  0.87049379  1
  La  La37  1  0.33469150  0.84438253  0.62467182  1
  La  La38  1  0.50480540  0.32408531  0.38467356  1
  La  La39  1  0.49650608  0.01716981  0.12069540  1
  La  La40  1  0.32940399  0.49036614  0.86767890  1
  La  La41  1  0.33060131  0.48315668  0.38004380  1
  La  La42  1  0.49523614  0.34378894  0.12503063  1
  La  La43  1  0.49971465  0.01557396  0.62649714  1
  La  La44  1  0.16622822  0.01240085  0.12441769  1
  La  La45  1  0.82977401  0.01472635  0.12770441  1
  La  La46  1  1.00165048  0.51700251  0.62727042  1
  La  La47  1  0.66646968  0.51804730  0.12493854  1
  La  La48  1  0.16894215  0.31901772  0.37671822  1
  La  La49  1  0.16760719  0.01742730  0.62232840  1
  La  La50  1  0.16086607  0.34916771  0.12563539  1
  La  La51  1  1.00265737  0.51519258  0.12534193  1
  La  La52  1  -0.00221718  0.15722315  0.87417343  1
  La  La53  1  0.33495258  0.17778858  0.12142485  1
  La  La54  1  0.83497438  0.01838064  0.61672546  1
  La  La55  1  0.67287828  0.18141531  0.12451346  1
  La  La56  1  0.82859019  0.34815774  0.12286179  1
  La  La57  1  0.83626919  0.32149469  0.37769254  1
  La  La58  1  0.16549998  0.67956381  0.62245857  1
  La  La59  1  0.67106483  0.18355113  0.62358836  1
  La  La60  1  1.00512505  0.85065371  0.61889916  1
  La  La61  1  0.65636068  0.15217659  0.37576508  1
  La  La62  1  0.66284314  0.84684067  0.12371745  1
  La  La63  1  0.33062904  0.81782818  0.37609565  1
  La  La64  1  0.66111189  0.48230972  0.87603678  1
  La  La65  1  0.49038066  0.68162496  0.13077670  1
  La  La66  1  0.82772602  0.68009684  0.62528535  1
  La  La67  1  1.00863734  0.84848878  0.13101105  1
  La  La68  1  -0.00503110  0.49289813  0.37435999  1
  La  La69  1  0.66223117  0.83690389  0.62316678  1
  La  La70  1  0.83150777  0.68189306  0.12551623  1
  La  La71  1  0.82967139  0.35140380  0.62654464  1
  In  In72  1  0.83256978  0.16942796  0.25171851  1
  In  In73  1  0.33395655  0.33257748  0.74812726  1
  In  In74  1  0.00059639  0.00225198  0.00001823  1
  In  In75  1  0.50063859  0.83560765  -0.00072482  1
  In  In76  1  0.16757921  0.50164856  0.00080998  1
  In  In77  1  0.16738553  0.83307424  0.25485884  1
  In  In78  1  0.66356268  -0.00056189  0.24888691  1
  In  In79  1  0.16507472  0.83394587  -0.00006185  1
  In  In80  1  -0.00075492  0.33788020  0.49987056  1
  In  In81  1  0.16412705  0.83544338  0.74641722  1
  In  In82  1  0.67247400  -0.00292366  0.74609391  1
  In  In83  1  0.49939105  0.49750582  0.25135822  1
  In  In84  1  -0.00175743  0.33491961  0.25128729  1
  In  In85  1  0.66650987  -0.00190519  0.50269738  1
  In  In86  1  0.83232843  0.16854066  -0.00186761  1
  In  In87  1  0.49993242  0.16976279  0.24890524  1
  In  In88  1  0.66779070  0.66790830  0.75417672  1
  In  In89  1  0.83307802  0.16681912  0.74745642  1
  In  In90  1  0.83396129  0.83358294  0.24774484  1
  In  In91  1  0.83076528  0.49958480  0.00162528  1
  In  In92  1  0.16488973  0.50503525  0.74684266  1
  In  In93  1  0.66765026  0.00056401  -0.00061126  1
  In  In94  1  0.33571533  0.66386800  -0.00068721  1
  In  In95  1  0.16637504  0.50120048  0.25486309  1
  In  In96  1  0.83401461  0.83404890  0.50185842  1
  In  In97  1  0.50046757  0.50283589  0.75444558  1
  In  In98  1  0.33875341  -0.00251597  0.49911975  1
  In  In99  1  0.83423661  0.83494162  0.00281457  1
  In  In100  1  0.82990658  0.50189661  0.25038661  1
  In  In101  1  0.16563127  0.16888674  0.75180922  1
  In  In102  1  0.33328519  0.00243805  -0.00149116  1
  In  In103  1  0.83181806  0.50291455  0.75089411  1
  In  In104  1  0.33533104  -0.00253712  0.24838654  1
  In  In105  1  -0.00143135  0.33468801  0.74901371  1
  In  In106  1  0.66590524  0.33629262  0.25177377  1
  In  In107  1  0.16731282  0.16745949  0.24794959  1
  Ir  Ir108  1  0.66571418  0.33268015  0.74712413  1
  Ir  Ir109  1  -0.00067954  -0.00035669  0.25080474  1
  Ir  Ir110  1  0.16823355  0.16794752  0.49884842  1
  Ir  Ir111  1  0.49880144  0.82829590  0.50245026  1
  Ir  Ir112  1  0.66507583  0.66484007  0.00709287  1
  Ir  Ir113  1  0.84020651  0.83592491  0.74349550  1
  Ir  Ir114  1  0.49912494  0.83187288  0.74505365  1
  Ir  Ir115  1  0.50307061  0.49587915  0.00472498  1
  Ir  Ir116  1  0.33079073  0.66432611  0.50045992  1
  Ir  Ir117  1  0.16859771  0.82899951  0.50259872  1
  Ir  Ir118  1  -0.00468453  0.66624927  0.00250726  1
  Ir  Ir119  1  -0.00106121  0.66336134  0.50199784  1
  Ir  Ir120  1  0.50341721  0.17189324  0.50185727  1
  Ir  Ir121  1  0.67101425  0.33544815  0.50231815  1
  Ir  Ir122  1  0.50417143  0.16484374  0.74740928  1
  Ir  Ir123  1  0.33349608  0.33496628  0.49285361  1
  Ir  Ir124  1  0.66260190  0.66648444  0.24576642  1
  Ir  Ir125  1  0.33320266  0.33242996  0.00779323  1
  Ir  Ir126  1  -0.00400502  0.66365460  0.25040608  1
  Ir  Ir127  1  0.49599746  0.49954237  0.49907499  1
  Ir  Ir128  1  0.00381505  0.00017702  0.49915450  1
  Ir  Ir129  1  0.33587277  -0.00207764  0.74341766  1
  Ir  Ir130  1  0.66043914  0.33398488  0.00163487  1
  Ir  Ir131  1  -0.00047757  -0.00124530  0.74263091  1
  Ir  Ir132  1  0.83040918  0.17028068  0.49960789  1
  Ir  Ir133  1  0.33323612  0.66884880  0.74644722  1
  Ir  Ir134  1  0.50164798  0.82919020  0.25231202  1
  Ir  Ir135  1  0.66429995  0.66638998  0.50215916  1
  Ir  Ir136  1  0.16779881  0.17220686  0.00139574  1
  Ir  Ir137  1  0.83348318  0.50105070  0.49962370  1
  Ir  Ir138  1  0.33731133  0.66557314  0.25655719  1
  Ir  Ir139  1  -0.00333184  0.67067637  0.74474783  1
  Ir  Ir140  1  -0.00127222  0.33194410  0.00276538  1
  Ir  Ir141  1  0.16444438  0.50450538  0.49933494  1
  Ir  Ir142  1  0.33301357  0.33225178  0.24947686  1
  Ir  Ir143  1  0.50295275  0.17048099  -0.00060889  1
  O  O144  1  0.30033585  0.31960717  0.13006558  1
  O  O145  1  0.31773208  0.33492761  0.61401126  1
  O  O146  1  0.32125654  0.66384743  0.13681149  1
  O  O147  1  0.30308639  0.66071899  0.62257591  1
  O  O148  1  0.30038159  0.99727485  0.12363647  1
  O  O149  1  0.30763281  0.98856585  0.62337132  1
  O  O150  1  0.63048861  0.32134526  0.11983167  1
  O  O151  1  0.64328233  0.32227872  0.62455308  1
  O  O152  1  0.62924889  0.65768285  0.12654598  1
  O  O153  1  0.64893205  0.67447097  0.62235378  1
  O  O154  1  0.62759823  0.98704084  0.12579407  1
  O  O155  1  0.63337998  0.98040732  0.62421535  1
  O  O156  1  0.96584752  0.32655970  0.12117378  1
  O  O157  1  0.96381945  0.32968131  0.62038711  1
  O  O158  1  0.96735974  0.65418258  0.12680535  1
  O  O159  1  0.96622712  0.65651079  0.62445463  1
  O  O160  1  0.96838229  0.99574562  0.13127799  1
  O  O161  1  0.97224282  0.99584926  0.62088322  1
  O  O162  1  0.19647964  0.16157250  0.11933017  1
  O  O163  1  0.18078808  0.15910329  0.61941373  1
  O  O164  1  0.18337239  0.49309656  0.12808653  1
  O  O165  1  0.18791829  0.51007369  0.61602538  1
  O  O166  1  0.17703507  0.83201446  0.12945632  1
  O  O167  1  0.19587316  0.82277816  0.62072866  1
  O  O168  1  0.53337544  0.16715105  0.11793251  1
  O  O169  1  0.53381299  0.15984858  0.62453548  1
  O  O170  1  0.53319977  0.48202336  0.12351035  1
  O  O171  1  0.51154138  0.50112319  0.62087033  1
  O  O172  1  0.52830427  0.81886931  0.13316339  1
  O  O173  1  0.52912882  0.82446788  0.62329265  1
  O  O174  1  0.85461217  0.15453561  0.12416175  1
  O  O175  1  0.85737408  0.16208695  0.61701859  1
  O  O176  1  0.86518434  0.48608459  0.12552305  1
  O  O177  1  0.86289367  0.49252711  0.61783618  1
  O  O178  1  0.87241233  0.81917530  0.12611289  1
  O  O179  1  0.86896436  0.81954610  0.62652904  1
  O  O180  1  0.15182351  0.17613943  0.37822566  1
  O  O181  1  0.13563278  0.17246392  0.88230049  1
  O  O182  1  0.13321626  0.50220438  0.38109630  1
  O  O183  1  0.15182933  0.50056010  0.87561739  1
  O  O184  1  0.14589925  0.83025772  0.38326168  1
  O  O185  1  0.14573789  0.83451845  0.87076336  1
  O  O186  1  0.48239208  0.18370278  0.38087444  1
  O  O187  1  0.48139880  0.16720164  0.87361312  1
  O  O188  1  0.47035233  0.49608903  0.37869489  1
  O  O189  1  0.46886251  0.50296741  0.88746831  1
  O  O190  1  0.46824195  0.83237891  0.37821946  1
  O  O191  1  0.47977864  0.83553453  0.86521016  1
  O  O192  1  0.79338420  0.17805576  0.38145877  1
  O  O193  1  0.80978850  0.16481955  0.87270526  1
  O  O194  1  0.81141680  0.50840975  0.38083447  1
  O  O195  1  0.79797294  0.50267592  0.87784904  1
  O  O196  1  0.81841623  0.83188684  0.37514699  1
  O  O197  1  0.81839645  0.84798583  0.86524326  1
  O  O198  1  0.02527519  -0.00177998  0.37493354  1
  O  O199  1  0.01643765  0.00792075  0.86335544  1
  O  O200  1  0.03462074  0.35484070  0.37759622  1
  O  O201  1  0.02125204  0.33876014  0.88489659  1
  O  O202  1  0.01894718  0.66157143  0.37547844  1
  O  O203  1  0.01938532  0.66920834  0.87620613  1
  O  O204  1  0.35670265  0.00377426  0.37571879  1
  O  O205  1  0.35181738  0.00342855  0.86437714  1
  O  O206  1  0.36604002  0.34119770  0.36987885  1
  O  O207  1  0.34753462  0.34868994  0.88781563  1
  O  O208  1  0.35474282  0.67964871  0.37951763  1
  O  O209  1  0.35198008  0.67302180  0.86622504  1
  O  O210  1  0.68345077  0.01007317  0.37744662  1
  O  O211  1  0.70533755  -0.00114539  0.87147965  1
  O  O212  1  0.70056992  0.34112596  0.38261400  1
  O  O213  1  0.68678276  0.34528355  0.87465322  1
  O  O214  1  0.68468014  0.66158407  0.37162855  1
  O  O215  1  0.68804500  0.66936545  0.88680226  1
  O  O216  1  0.08081740  0.09804377  0.01860799  1
  O  O217  1  0.08244922  0.08701811  0.52146624  1
  O  O218  1  0.06574754  0.42454219  0.03082307  1
  O  O219  1  0.06869656  0.44239406  0.52470724  1
  O  O220  1  0.05899623  0.76042237  0.02538961  1
  O  O221  1  0.07014224  0.75968009  0.52955455  1
  O  O222  1  0.40980167  0.10352014  0.02543673  1
  O  O223  1  0.42107620  0.09147846  0.52359301  1
  O  O224  1  0.41335328  0.41998970  0.03319119  1
  O  O225  1  0.39958420  0.43109869  0.50734879  1
  O  O226  1  0.41676606  0.75170830  0.02034039  1
  O  O227  1  0.39568873  0.76425234  0.52169977  1
  O  O228  1  0.73516725  0.09612432  0.03285830  1
  O  O229  1  0.73948495  0.10066219  0.52496086  1
  O  O230  1  0.72849116  0.42609456  0.02870413  1
  O  O231  1  0.74489548  0.42574405  0.52942472  1
  O  O232  1  0.73396134  0.75732962  0.03224726  1
  O  O233  1  0.73615607  0.75735035  0.52513949  1
  O  O234  1  0.09955004  0.26856527  0.02744209  1
  O  O235  1  0.09621250  0.25948863  0.50773121  1
  O  O236  1  0.08432746  0.59395757  0.02132240  1
  O  O237  1  0.09573023  0.59805849  0.52678532  1
  O  O238  1  0.09118663  0.93054037  0.03106336  1
  O  O239  1  0.10087714  0.92752638  0.52713397  1
  O  O240  1  0.42975379  0.26212164  0.02793128  1
  O  O241  1  0.43038906  0.26666810  0.51261986  1
  O  O242  1  0.44106241  0.58940174  0.03088501  1
  O  O243  1  0.42326688  0.59352943  0.51522760  1
  O  O244  1  0.43447475  0.93620065  0.02355499  1
  O  O245  1  0.43399928  0.92026315  0.53056203  1
  O  O246  1  0.75492120  0.26784212  0.02786227  1
  O  O247  1  0.76499427  0.26565100  0.52833175  1
  O  O248  1  0.75625164  0.59670736  0.03491865  1
  O  O249  1  0.76351724  0.59804728  0.52622593  1
  O  O250  1  0.76201440  0.92733394  0.03687713  1
  O  O251  1  0.76432940  0.92937082  0.53097315  1
  O  O252  1  0.23646871  0.07112466  0.25815121  1
  O  O253  1  0.24219365  0.06767526  0.75174775  1
  O  O254  1  0.24097765  0.40089942  0.27884208  1
  O  O255  1  0.24721019  0.41653418  0.76267769  1
  O  O256  1  0.24812841  0.73658481  0.27147112  1
  O  O257  1  0.24017415  0.73449226  0.75265167  1
  O  O258  1  0.57055375  0.07509851  0.27022998  1
  O  O259  1  0.57373773  0.07346972  0.75730797  1
  O  O260  1  0.56149237  0.39476861  0.27345356  1
  O  O261  1  0.58058637  0.40693161  0.76855297  1
  O  O262  1  0.56600814  0.73068670  0.26570622  1
  O  O263  1  0.56961039  0.74283138  0.76394605  1
  O  O264  1  0.90690710  0.06814287  0.26643948  1
  O  O265  1  0.90177705  0.05947006  0.76067929  1
  O  O266  1  0.89797562  0.40356409  0.27949961  1
  O  O267  1  0.89932241  0.40466200  0.75869442  1
  O  O268  1  0.90222430  0.72685254  0.25962156  1
  O  O269  1  0.90028935  0.73691231  0.76216114  1
  O  O270  1  0.26531401  0.24426643  0.26870920  1
  O  O271  1  0.26093488  0.24043251  0.76219909  1
  O  O272  1  0.27112610  0.57018101  0.27848380  1
  O  O273  1  0.26748193  0.57647545  0.76966511  1
  O  O274  1  0.26890176  0.89708496  0.27802684  1
  O  O275  1  0.26650324  0.90759716  0.75401273  1
  O  O276  1  0.60103114  0.23552234  0.27640627  1
  O  O277  1  0.59913966  0.23514910  0.75929909  1
  O  O278  1  0.59977387  0.57015161  0.25824796  1
  O  O279  1  0.59965752  0.56852631  0.77734378  1
  O  O280  1  0.59522986  0.89216423  0.26478013  1
  O  O281  1  0.59311505  0.89817580  0.75933100  1
  O  O282  1  0.92322895  0.24379223  0.28180697  1
  O  O283  1  0.93421662  0.22932222  0.77446152  1
  O  O284  1  0.93578738  0.56526221  0.26612273  1
  O  O285  1  0.93268497  0.57656549  0.76163612  1
  O  O286  1  0.93569904  0.90593060  0.26271062  1
  O  O287  1  0.93741258  0.90078576  0.75673541  1
  O  O288  1  0.25544836  0.24804578  0.47275202  1
  O  O289  1  0.26637000  0.23882291  0.98635436  1
  O  O290  1  0.26458559  0.56683346  0.47321810  1
  O  O291  1  0.27288648  0.56286812  0.97853780  1
  O  O292  1  0.26669023  0.89127797  0.48348072  1
  O  O293  1  0.25713077  0.91196695  0.98117096  1
  O  O294  1  0.60027042  0.24301836  0.47502724  1
  O  O295  1  0.59526072  0.23979266  0.97924702  1
  O  O296  1  0.59124199  0.57125827  0.48783028  1
  O  O297  1  0.60191388  0.56151524  0.98343098  1
  O  O298  1  0.59216496  0.89429767  0.48720146  1
  O  O299  1  0.60025125  0.90005571  0.98834706  1
  O  O300  1  0.91579720  0.24384982  0.47220133  1
  O  O301  1  0.93799714  0.23629579  0.97660800  1
  O  O302  1  0.93382187  0.56471602  0.47951865  1
  O  O303  1  0.92820185  0.57355887  0.98876715  1
  O  O304  1  0.93402955  0.90904892  0.49164451  1
  O  O305  1  0.92202614  0.91306965  0.97698520  1
  O  O306  1  0.24199254  0.07733160  0.49298742  1
  O  O307  1  0.23684526  0.08376204  0.98263922  1
  O  O308  1  0.23529167  0.40821108  0.46853646  1
  O  O309  1  0.24046990  0.39813764  1.00022148  1
  O  O310  1  0.23480441  0.73152336  0.48843689  1
  O  O311  1  0.24129633  0.73829751  0.99165007  1
  O  O312  1  0.57628696  0.08438086  0.48440163  1
  O  O313  1  0.56686670  0.07608867  0.98484726  1
  O  O314  1  0.56925423  0.40350426  0.47954565  1
  O  O315  1  0.57211339  0.40605111  0.97572790  1
  O  O316  1  0.57025210  0.73746896  0.48310640  1
  O  O317  1  0.57775283  0.73405971  0.99333339  1
  O  O318  1  0.90104106  0.07233322  0.48426823  1
  O  O319  1  0.90804066  0.07429790  0.96944399  1
  O  O320  1  0.89926121  0.40971348  0.47077986  1
  O  O321  1  0.90395203  0.39671859  0.98790122  1
  O  O322  1  0.90853921  0.73307961  0.49227441  1
  O  O323  1  0.90196199  0.73190385  0.98947024  1
  O  O324  1  0.10271441  0.26968288  0.23224555  1
  O  O325  1  0.09360383  0.26308496  0.73263377  1
  O  O326  1  0.08664112  0.59584454  0.23378887  1
  O  O327  1  0.09161777  0.60574164  0.72188213  1
  O  O328  1  0.09278925  0.93317975  0.22548145  1
  O  O329  1  0.09327449  0.93322000  0.71355801  1
  O  O330  1  0.42352543  0.26373204  0.21964595  1
  O  O331  1  0.42954082  0.25117657  0.73514279  1
  O  O332  1  0.43048431  0.59768036  0.23325185  1
  O  O333  1  0.42236895  0.59922054  0.73924140  1
  O  O334  1  0.44149111  0.92557701  0.22605839  1
  O  O335  1  0.43102511  0.92689539  0.71771581  1
  O  O336  1  0.76286447  0.26868995  0.21915218  1
  O  O337  1  0.75835704  0.26486443  0.72077683  1
  O  O338  1  0.75808149  0.60151339  0.22043673  1
  O  O339  1  0.76611133  0.60150761  0.72460161  1
  O  O340  1  0.76315328  0.93040562  0.22083148  1
  O  O341  1  0.77880383  0.93060635  0.71978435  1
  O  O342  1  0.07124948  0.08755955  0.23175792  1
  O  O343  1  0.07043307  0.08800681  0.73216234  1
  O  O344  1  0.06680167  0.43261755  0.22341024  1
  O  O345  1  0.06583280  0.43737703  0.72313566  1
  O  O346  1  0.06091330  0.76032428  0.23242895  1
  O  O347  1  0.06443235  0.76204301  0.71621205  1
  O  O348  1  0.40756746  0.09609875  0.21502429  1
  O  O349  1  0.41488145  0.08775916  0.72144718  1
  O  O350  1  0.40210031  0.42075796  0.23048700  1
  O  O351  1  0.41039240  0.42536105  0.74817914  1
  O  O352  1  0.40639647  0.76123474  0.23595665  1
  O  O353  1  0.40043155  0.76696595  0.72233421  1
  O  O354  1  0.73393711  0.09972993  0.22574823  1
  O  O355  1  0.73982688  0.09405758  0.70936715  1
  O  O356  1  0.73218636  0.43348458  0.21760601  1
  O  O357  1  0.73557881  0.42210105  0.73050034  1
  O  O358  1  0.73042446  0.75940366  0.21991907  1
  O  O359  1  0.74393582  0.77064226  0.72412749  1
