# generated using pymatgen
data_BaLaInIrO6
_symmetry_space_group_name_H-M   'P 1'
_cell_length_a   17.52656193
_cell_length_b   17.55329622
_cell_length_c   16.49882960
_cell_angle_alpha   89.97578604
_cell_angle_beta   90.01431544
_cell_angle_gamma   90.03795832
_symmetry_Int_Tables_number   1
_chemical_formula_structural   BaLaInIrO6
_chemical_formula_sum   'Ba36 La36 In36 Ir36 O216'
_cell_volume   5075.84560418
_cell_formula_units_Z   36
loop_
 _symmetry_equiv_pos_site_id
 _symmetry_equiv_pos_as_xyz
  1  'x, y, z'
loop_
 _atom_site_type_symbol
 _atom_site_label
 _atom_site_symmetry_multiplicity
 _atom_site_fract_x
 _atom_site_fract_y
 _atom_site_fract_z
 _atom_site_occupancy
  Ba  Ba0  1  0.49634535  0.01576448  0.62228193  1
  Ba  Ba1  1  0.99950160  0.50918133  0.63033450  1
  Ba  Ba2  1  0.83618149  0.65869679  0.37287919  1
  Ba  Ba3  1  0.50090896  0.99436379  0.87688710  1
  Ba  Ba4  1  0.83188591  0.99126352  0.87576362  1
  Ba  Ba5  1  0.33452523  0.82693561  0.37212715  1
  Ba  Ba6  1  0.49914045  0.32055211  0.37252085  1
  Ba  Ba7  1  0.32797847  0.16237389  0.37730533  1
  Ba  Ba8  1  0.66270346  0.83851163  0.62635665  1
  Ba  Ba9  1  0.33662048  0.84307108  0.62077335  1
  Ba  Ba10  1  0.17255552  0.65923355  0.37795005  1
  Ba  Ba11  1  1.00280081  0.17511481  0.12473828  1
  Ba  Ba12  1  0.16498461  0.00907151  0.12390204  1
  Ba  Ba13  1  0.82925285  0.00654844  0.62682754  1
  Ba  Ba14  1  0.33528681  0.49488642  0.37198717  1
  Ba  Ba15  1  0.82774084  0.65773365  0.87628788  1
  Ba  Ba16  1  0.50102122  0.68138240  0.12446138  1
  Ba  Ba17  1  0.50340845  0.66278590  0.37509526  1
  Ba  Ba18  1  0.33495937  0.17879074  0.62361198  1
  Ba  Ba19  1  0.83087431  0.33741494  0.62373666  1
  Ba  Ba20  1  0.16597557  0.34398131  0.12131643  1
  Ba  Ba21  1  0.49853191  0.01240756  0.12625190  1
  Ba  Ba22  1  0.83021106  0.68058202  0.11848446  1
  Ba  Ba23  1  0.66568830  0.16874759  0.62747135  1
  Ba  Ba24  1  0.66908921  0.50274668  0.62667608  1
  Ba  Ba25  1  0.66768054  0.15508944  0.87700837  1
  Ba  Ba26  1  0.49801804  0.99454278  0.37632403  1
  Ba  Ba27  1  0.99962159  0.50526830  0.11851994  1
  Ba  Ba28  1  0.00084548  0.15924122  0.37820939  1
  Ba  Ba29  1  0.83228748  0.00980540  0.12211200  1
  Ba  Ba30  1  0.66782451  0.84577251  0.12769741  1
  Ba  Ba31  1  0.66529050  0.82607641  0.37585781  1
  Ba  Ba32  1  0.16609583  0.34358753  0.62605012  1
  Ba  Ba33  1  0.66025043  0.49012244  0.37028053  1
  Ba  Ba34  1  0.83158305  0.32662635  0.87392642  1
  Ba  Ba35  1  0.17018334  0.32111607  0.88020765  1
  La  La36  1  0.17336291  0.98629143  0.87515637  1
  La  La37  1  0.49477452  0.34822651  0.12284073  1
  La  La38  1  0.17524517  0.98447961  0.36976577  1
  La  La39  1  0.83651038  0.33605505  0.13451634  1
  La  La40  1  0.66432358  0.15499275  0.38090091  1
  La  La41  1  0.16955598  0.64746520  0.87616736  1
  La  La42  1  0.33895886  0.50586999  0.62290744  1
  La  La43  1  0.82773885  0.67670204  0.62653077  1
  La  La44  1  1.00625013  0.18232666  0.63215740  1
  La  La45  1  0.33696955  0.18357705  0.12239605  1
  La  La46  1  0.33325613  0.81847839  0.87261598  1
  La  La47  1  0.83042058  0.32398857  0.37945576  1
  La  La48  1  0.16303149  0.67762959  0.12444853  1
  La  La49  1  -0.00334121  0.48514132  0.37478264  1
  La  La50  1  0.83135332  0.98295982  0.37582235  1
  La  La51  1  0.67140360  0.17398777  0.12549457  1
  La  La52  1  0.33448548  0.51754067  0.12577534  1
  La  La53  1  0.50823914  0.31345489  0.87378492  1
  La  La54  1  -0.00061070  0.48437972  0.87616785  1
  La  La55  1  0.33479682  0.15428888  0.87941191  1
  La  La56  1  -0.00521246  0.15436555  0.87842978  1
  La  La57  1  0.51234156  0.65525090  0.87211816  1
  La  La58  1  0.17304865  0.32184133  0.37115755  1
  La  La59  1  1.00331125  0.84263366  0.62374615  1
  La  La60  1  0.16766174  0.68059627  0.62949308  1
  La  La61  1  -0.00681740  0.81609109  0.87775698  1
  La  La62  1  0.49844224  0.33442117  0.61541858  1
  La  La63  1  0.67133303  0.51946886  0.12076426  1
  La  La64  1  0.16057952  0.01703983  0.62254435  1
  La  La65  1  0.66251588  0.47874845  0.87530119  1
  La  La66  1  0.66691377  0.83270296  0.88757408  1
  La  La67  1  1.00451046  0.84443145  0.12415136  1
  La  La68  1  0.33022968  0.48572364  0.87827121  1
  La  La69  1  0.50256472  0.67940115  0.61904792  1
  La  La70  1  0.34184113  0.85126189  0.12565108  1
  La  La71  1  -0.00533901  0.81928478  0.37196170  1
  In  In72  1  0.33102249  -0.00018340  0.74748343  1
  In  In73  1  0.66470260  -0.00390938  0.75306691  1
  In  In74  1  0.00250846  -0.00166521  -0.00052721  1
  In  In75  1  0.83527076  0.16598289  0.75170615  1
  In  In76  1  0.83316886  0.49942039  0.49794383  1
  In  In77  1  0.83471256  0.83095966  0.50292435  1
  In  In78  1  0.16945053  0.83022444  -0.00284406  1
  In  In79  1  0.16464236  0.50128846  0.25038254  1
  In  In80  1  0.66813277  0.66835467  0.24997928  1
  In  In81  1  0.83521633  0.83502724  0.24616597  1
  In  In82  1  0.32984398  0.33673982  0.49871148  1
  In  In83  1  0.83169778  0.49838120  -0.00255114  1
  In  In84  1  0.00245163  0.33366262  0.50029573  1
  In  In85  1  0.83603522  0.16303274  0.49966628  1
  In  In86  1  0.83161515  0.49705563  0.24903825  1
  In  In87  1  0.00226487  -0.00309592  0.75069645  1
  In  In88  1  0.83214497  0.16414847  0.25447430  1
  In  In89  1  0.00165720  0.00039370  0.25525279  1
  In  In90  1  0.16541090  0.83424035  0.50087330  1
  In  In91  1  0.66312235  0.33231373  0.00575959  1
  In  In92  1  0.33604735  0.66353514  0.75247633  1
  In  In93  1  0.16753978  0.16522316  0.75456591  1
  In  In94  1  0.49934597  0.50071891  0.75074767  1
  In  In95  1  0.66642786  -0.00117754  0.50108192  1
  In  In96  1  0.50008502  0.50164611  0.24692976  1
  In  In97  1  0.33363534  0.00788785  0.24730102  1
  In  In98  1  0.00365370  0.66303251  0.24854014  1
  In  In99  1  0.49808378  0.83474987  0.49860366  1
  In  In100  1  0.00171467  0.33185946  0.25111045  1
  In  In101  1  0.33453265  0.33560845  0.75350286  1
  In  In102  1  0.83387571  0.50050534  0.75125570  1
  In  In103  1  0.49722879  0.83387527  0.75375618  1
  In  In104  1  0.00309109  0.66391363  0.50274481  1
  In  In105  1  0.33225742  0.66298958  0.50089128  1
  In  In106  1  0.33341365  0.33575861  0.24675360  1
  In  In107  1  0.33706934  0.66773072  -0.00081188  1
  Ir  Ir108  1  0.00439079  -0.00321437  0.50029243  1
  Ir  Ir109  1  0.16631750  0.50113018  0.50536717  1
  Ir  Ir110  1  0.49798239  0.49967215  -0.00185086  1
  Ir  Ir111  1  0.49899889  0.83726308  0.24574570  1
  Ir  Ir112  1  0.00238965  0.33134459  -0.00437503  1
  Ir  Ir113  1  0.33238172  0.00367471  -0.00201063  1
  Ir  Ir114  1  0.00485558  0.33422732  0.75469553  1
  Ir  Ir115  1  0.66572326  0.00212739  0.00471218  1
  Ir  Ir116  1  0.50485745  0.16892670  0.24704250  1
  Ir  Ir117  1  0.16262020  0.16379143  0.49892322  1
  Ir  Ir118  1  0.49752754  0.17298470  0.74992954  1
  Ir  Ir119  1  0.66079935  0.32935721  0.24765186  1
  Ir  Ir120  1  0.16711280  0.50125579  0.75337109  1
  Ir  Ir121  1  0.49504899  0.83871174  0.00211415  1
  Ir  Ir122  1  0.16270511  0.83047598  0.75365339  1
  Ir  Ir123  1  0.66408274  0.00574463  0.24748578  1
  Ir  Ir124  1  0.66664712  0.66177500  0.50664656  1
  Ir  Ir125  1  0.17002972  0.49928168  -0.00421071  1
  Ir  Ir126  1  0.66222962  0.33167311  0.49881784  1
  Ir  Ir127  1  0.33089280  0.66983974  0.24584900  1
  Ir  Ir128  1  0.49971798  0.16724357  0.00419607  1
  Ir  Ir129  1  0.16795416  0.16659373  0.00036732  1
  Ir  Ir130  1  0.49825463  0.16868377  0.49581918  1
  Ir  Ir131  1  0.32743791  0.00472953  0.49724887  1
  Ir  Ir132  1  0.50343070  0.49777102  0.50361751  1
  Ir  Ir133  1  0.66280608  0.66963090  -0.00803964  1
  Ir  Ir134  1  0.00291521  0.66760048  0.75399891  1
  Ir  Ir135  1  0.83562231  0.17119842  0.00239283  1
  Ir  Ir136  1  0.66078957  0.33020695  0.74958259  1
  Ir  Ir137  1  0.33902403  0.33431903  -0.00019193  1
  Ir  Ir138  1  0.83458191  0.83148859  -0.00472917  1
  Ir  Ir139  1  0.66718223  0.66624742  0.75099249  1
  Ir  Ir140  1  0.00379274  0.66548524  -0.00318352  1
  Ir  Ir141  1  0.16972671  0.83148544  0.24463743  1
  Ir  Ir142  1  0.83712241  0.82523230  0.75356032  1
  Ir  Ir143  1  0.16878895  0.16689314  0.24847468  1
  O  O144  1  0.31571692  0.32265403  0.11797992  1
  O  O145  1  0.32122385  0.34196030  0.62588471  1
  O  O146  1  0.30233975  0.66247564  0.12421173  1
  O  O147  1  0.30228242  0.64640929  0.63001463  1
  O  O148  1  0.31439967  0.99261982  0.11867269  1
  O  O149  1  0.29975525  1.00337367  0.61760292  1
  O  O150  1  0.62840123  0.31454131  0.12986382  1
  O  O151  1  0.63246256  0.32811533  0.62314498  1
  O  O152  1  0.64724504  0.65920647  0.11125873  1
  O  O153  1  0.63795309  0.65717633  0.63046506  1
  O  O154  1  0.64640795  1.01113160  0.12573557  1
  O  O155  1  0.64722486  0.99586319  0.62804866  1
  O  O156  1  0.97373530  0.33031940  0.11550758  1
  O  O157  1  0.98401028  0.32599457  0.63396338  1
  O  O158  1  0.98031089  0.66052475  0.11403967  1
  O  O159  1  0.96762698  0.66328679  0.63722905  1
  O  O160  1  0.98319495  0.98615897  0.12638459  1
  O  O161  1  0.97764642  0.98388756  0.61976131  1
  O  O162  1  0.20005391  0.16265381  0.12440077  1
  O  O163  1  0.18535190  0.15534859  0.61867882  1
  O  O164  1  0.19945084  0.49803033  0.11541557  1
  O  O165  1  0.20139474  0.49618420  0.63016186  1
  O  O166  1  0.20515785  0.82130571  0.12525861  1
  O  O167  1  0.18888950  0.82073977  0.63708338  1
  O  O168  1  0.53473383  0.16673052  0.12632227  1
  O  O169  1  0.51739761  0.18090024  0.62350857  1
  O  O170  1  0.53402338  0.48678334  0.11409729  1
  O  O171  1  0.51757937  0.47762154  0.62363624  1
  O  O172  1  0.51676347  0.84114691  0.12226362  1
  O  O173  1  0.51143657  0.81817818  0.62707287  1
  O  O174  1  0.84996106  0.17082079  0.12271106  1
  O  O175  1  0.86902958  0.16555615  0.62599532  1
  O  O176  1  0.84855963  0.47455929  0.12035270  1
  O  O177  1  0.84789189  0.49455257  0.62641355  1
  O  O178  1  0.86607926  0.83730006  0.11505538  1
  O  O179  1  0.86727905  0.81984790  0.63394554  1
  O  O180  1  0.14822223  0.18285831  0.37186263  1
  O  O181  1  0.13500473  0.16545509  0.88167120  1
  O  O182  1  0.13405229  0.50911820  0.38628232  1
  O  O183  1  0.13471191  0.50984041  0.87416544  1
  O  O184  1  0.13677914  0.83997852  0.36755534  1
  O  O185  1  0.13004845  0.84460262  0.87009841  1
  O  O186  1  0.47645435  0.16429774  0.37067457  1
  O  O187  1  0.46928719  0.17715653  0.87909836  1
  O  O188  1  0.48743641  0.50471330  0.38097797  1
  O  O189  1  0.46653819  0.51550881  0.88102627  1
  O  O190  1  0.48441848  0.83020917  0.36562716  1
  O  O191  1  0.46724089  0.83772242  0.88466476  1
  O  O192  1  0.79821732  0.18480704  0.37535779  1
  O  O193  1  0.81866567  0.17299248  0.88369751  1
  O  O194  1  0.80665670  0.49950685  0.37375353  1
  O  O195  1  0.79935847  0.49783845  0.87373554  1
  O  O196  1  0.81827163  0.84356575  0.37500883  1
  O  O197  1  0.80411333  0.82845972  0.87412818  1
  O  O198  1  0.04080892  0.00176231  0.38338696  1
  O  O199  1  0.03824968  0.00980834  0.87558072  1
  O  O200  1  0.03992661  0.34407751  0.37692170  1
  O  O201  1  0.02608952  0.34301366  0.87508428  1
  O  O202  1  0.02691911  0.68568680  0.37551082  1
  O  O203  1  0.03665974  0.67825460  0.87523757  1
  O  O204  1  0.34465158  0.00482545  0.37718448  1
  O  O205  1  0.34967100  0.01617710  0.87912125  1
  O  O206  1  0.34632823  0.33205479  0.37292739  1
  O  O207  1  0.37111547  0.34518872  0.88160368  1
  O  O208  1  0.35021402  0.66690171  0.36683227  1
  O  O209  1  0.37340035  0.67193365  0.87782579  1
  O  O210  1  0.69220130  0.01251865  0.36643735  1
  O  O211  1  0.68103900  -0.00589423  0.88517364  1
  O  O212  1  0.69236837  0.33436722  0.37191370  1
  O  O213  1  0.67664638  0.33488369  0.87224045  1
  O  O214  1  0.68269199  0.66427560  0.38520207  1
  O  O215  1  0.67946040  0.69012266  0.87063596  1
  O  O216  1  0.07957592  0.09669752  0.01811873  1
  O  O217  1  0.06768580  0.09239292  0.52856998  1
  O  O218  1  0.07477996  0.42737672  0.00969977  1
  O  O219  1  0.07614301  0.43439684  0.52133871  1
  O  O220  1  0.07132526  0.75649183  0.02464565  1
  O  O221  1  0.07243614  0.76198908  0.53448658  1
  O  O222  1  0.39812963  0.10308579  0.02054926  1
  O  O223  1  0.40225193  0.09665301  0.51592500  1
  O  O224  1  0.40433891  0.43149107  0.02867675  1
  O  O225  1  0.40892927  0.43258828  0.51858668  1
  O  O226  1  0.39861499  0.77419107  0.02188243  1
  O  O227  1  0.41407919  0.74903963  0.51560964  1
  O  O228  1  0.73629561  0.10263023  0.02366677  1
  O  O229  1  0.73918865  0.09486248  0.50897096  1
  O  O230  1  0.72166575  0.43591512  0.01105914  1
  O  O231  1  0.73365498  0.41797873  0.51366849  1
  O  O232  1  0.73396871  0.76425323  0.01239557  1
  O  O233  1  0.74046172  0.74881716  0.52689571  1
  O  O234  1  0.09547156  0.25773453  0.01952720  1
  O  O235  1  0.08761176  0.24740487  0.52548939  1
  O  O236  1  0.10390461  0.59995341  0.01631333  1
  O  O237  1  0.10693392  0.59777940  0.53363924  1
  O  O238  1  0.09059244  0.91619450  0.02225420  1
  O  O239  1  0.09687635  0.93259335  0.52885787  1
  O  O240  1  0.43168931  0.26214244  0.02791982  1
  O  O241  1  0.42869529  0.26063894  0.51472021  1
  O  O242  1  0.42566351  0.58485790  0.02889355  1
  O  O243  1  0.43301716  0.58713824  0.52928774  1
  O  O244  1  0.42275185  0.92965297  0.02494964  1
  O  O245  1  0.41537606  0.93188336  0.51253059  1
  O  O246  1  0.76481544  0.26397298  0.02700106  1
  O  O247  1  0.74906429  0.26256973  0.51461243  1
  O  O248  1  0.75164195  0.59552082  0.01305473  1
  O  O249  1  0.76109615  0.59819816  0.52629513  1
  O  O250  1  0.76087582  0.92448088  0.01706197  1
  O  O251  1  0.76703043  0.92847979  0.50670818  1
  O  O252  1  0.23226815  0.07219250  0.27036841  1
  O  O253  1  0.22794518  0.05998815  0.76784850  1
  O  O254  1  0.23399081  0.40406098  0.27022288  1
  O  O255  1  0.23629781  0.41249215  0.77629691  1
  O  O256  1  0.24043726  0.74122307  0.26480765  1
  O  O257  1  0.22634128  0.73438509  0.77763758  1
  O  O258  1  0.57368272  0.07747451  0.27176851  1
  O  O259  1  0.56616740  0.08105172  0.76299463  1
  O  O260  1  0.56807640  0.39541869  0.25743987  1
  O  O261  1  0.56945806  0.40213878  0.77647341  1
  O  O262  1  0.57284366  0.74954441  0.25592978  1
  O  O263  1  0.56682683  0.72603592  0.76292911  1
  O  O264  1  0.89855500  0.06515140  0.27767351  1
  O  O265  1  0.91763720  0.07864757  0.77896219  1
  O  O266  1  0.89327968  0.39293283  0.26925208  1
  O  O267  1  0.91824741  0.40943308  0.77302380  1
  O  O268  1  0.91847050  0.74641690  0.26282278  1
  O  O269  1  0.91175274  0.73673486  0.77864599  1
  O  O270  1  0.26128732  0.23451595  0.25511434  1
  O  O271  1  0.26830568  0.23326196  0.77653954  1
  O  O272  1  0.26624331  0.57549088  0.25749724  1
  O  O273  1  0.25820817  0.56876323  0.78472446  1
  O  O274  1  0.25369414  0.90910570  0.26492202  1
  O  O275  1  0.25535885  0.89693274  0.78271245  1
  O  O276  1  0.60161762  0.23087341  0.27432977  1
  O  O277  1  0.59052089  0.24095728  0.77103477  1
  O  O278  1  0.59153855  0.57563851  0.24973110  1
  O  O279  1  0.60238870  0.57180070  0.78114563  1
  O  O280  1  0.59187245  0.91122804  0.26642768  1
  O  O281  1  0.59884847  0.89586982  0.77893286  1
  O  O282  1  0.92382930  0.24122710  0.26821951  1
  O  O283  1  0.93981852  0.23994182  0.77302246  1
  O  O284  1  0.93550298  0.56328310  0.27128543  1
  O  O285  1  0.93902672  0.57382392  0.78039070  1
  O  O286  1  0.93186882  0.90516022  0.27926631  1
  O  O287  1  0.93113358  0.89377906  0.77495995  1
  O  O288  1  0.24603776  0.24271699  0.48524755  1
  O  O289  1  0.27208605  0.23493826  0.97941153  1
  O  O290  1  0.26117417  0.56195414  0.48847636  1
  O  O291  1  0.26102412  0.56884402  0.97409922  1
  O  O292  1  0.25481804  0.91667616  0.47631585  1
  O  O293  1  0.26477418  0.90991825  0.97127846  1
  O  O294  1  0.59327193  0.23669652  0.47426771  1
  O  O295  1  0.58807233  0.23823731  0.98219547  1
  O  O296  1  0.59540549  0.56862581  0.48947207  1
  O  O297  1  0.59237665  0.57049798  0.96747709  1
  O  O298  1  0.58884835  0.90932925  0.48265391  1
  O  O299  1  0.59550974  0.90412664  0.98392530  1
  O  O300  1  0.91898852  0.24686709  0.47755879  1
  O  O301  1  0.93357678  0.23677643  0.97544122  1
  O  O302  1  0.93716370  0.56619714  0.47581625  1
  O  O303  1  0.93496225  0.57295182  0.97175851  1
  O  O304  1  0.94505410  0.90019931  0.47961160  1
  O  O305  1  0.92843523  0.89779043  0.97305788  1
  O  O306  1  0.22797234  0.06892705  0.47517064  1
  O  O307  1  0.23819690  0.07417076  0.97044367  1
  O  O308  1  0.22777951  0.40649078  0.47650815  1
  O  O309  1  0.24896070  0.41064242  0.97185858  1
  O  O310  1  0.23960361  0.74085398  0.49602817  1
  O  O311  1  0.23987331  0.73723412  0.96312421  1
  O  O312  1  0.57363425  0.08353020  0.48053166  1
  O  O313  1  0.57157566  0.07457047  0.98441078  1
  O  O314  1  0.56731344  0.39957715  0.48586479  1
  O  O315  1  0.56136219  0.40581266  0.97086911  1
  O  O316  1  0.57779531  0.73221195  0.49579039  1
  O  O317  1  0.56640982  0.74428400  0.97078783  1
  O  O318  1  0.90859635  0.05806706  0.47286965  1
  O  O319  1  0.91029599  0.08200492  0.98197193  1
  O  O320  1  0.90829664  0.40507726  0.46798088  1
  O  O321  1  0.91694016  0.40674246  0.97463245  1
  O  O322  1  0.90981469  0.74057714  0.48590534  1
  O  O323  1  0.91201432  0.73965651  0.97257175  1
  O  O324  1  0.10242930  0.25918020  0.23467956  1
  O  O325  1  0.09170966  0.26016008  0.73472778  1
  O  O326  1  0.10546248  0.60263113  0.22261617  1
  O  O327  1  0.10213547  0.60357694  0.73333887  1
  O  O328  1  0.09572616  0.91635426  0.22803761  1
  O  O329  1  0.10153316  0.92518185  0.72351238  1
  O  O330  1  0.43656070  0.26070942  0.21984069  1
  O  O331  1  0.44049415  0.27389971  0.73644651  1
  O  O332  1  0.41726246  0.59565357  0.22431322  1
  O  O333  1  0.44029813  0.60333124  0.72268198  1
  O  O334  1  0.42180020  0.92302477  0.23411447  1
  O  O335  1  0.42560561  0.93198841  0.73382634  1
  O  O336  1  0.75395653  0.26517179  0.22472013  1
  O  O337  1  0.75199662  0.25972280  0.73489501  1
  O  O338  1  0.75495603  0.58632605  0.21967946  1
  O  O339  1  0.76226096  0.60198919  0.73034092  1
  O  O340  1  0.75672859  0.93746406  0.23722384  1
  O  O341  1  0.76676488  0.91212254  0.73708330  1
  O  O342  1  0.07867695  0.09618833  0.23752902  1
  O  O343  1  0.07265866  0.09418467  0.71772865  1
  O  O344  1  0.06502874  0.43389090  0.23770067  1
  O  O345  1  0.07396879  0.43134355  0.73812733  1
  O  O346  1  0.08154941  0.76270904  0.21368350  1
  O  O347  1  0.06732583  0.76430526  0.72629943  1
  O  O348  1  0.40662104  0.10665008  0.22377472  1
  O  O349  1  0.40181723  0.10810967  0.74405855  1
  O  O350  1  0.40494215  0.43155401  0.21656089  1
  O  O351  1  0.39113833  0.44529071  0.74221725  1
  O  O352  1  0.40169525  0.76805352  0.22299067  1
  O  O353  1  0.39206163  0.76997005  0.74687870  1
  O  O354  1  0.72713375  0.10072876  0.23111391  1
  O  O355  1  0.74602901  0.08507201  0.74432975  1
  O  O356  1  0.72364198  0.42035557  0.21630380  1
  O  O357  1  0.73116001  0.42029646  0.74335954  1
  O  O358  1  0.74365587  0.75897490  0.23381415  1
  O  O359  1  0.74601725  0.75291776  0.72325196  1
