# generated using pymatgen
data_BaLaInIrO6
_symmetry_space_group_name_H-M   'P 1'
_cell_length_a   17.53788495
_cell_length_b   17.57148416
_cell_length_c   16.51329542
_cell_angle_alpha   89.96358083
_cell_angle_beta   90.00495842
_cell_angle_gamma   89.96833396
_symmetry_Int_Tables_number   1
_chemical_formula_structural   BaLaInIrO6
_chemical_formula_sum   'Ba36 La36 In36 Ir36 O216'
_cell_volume   5088.84539888
_cell_formula_units_Z   36
loop_
 _symmetry_equiv_pos_site_id
 _symmetry_equiv_pos_as_xyz
  1  'x, y, z'
loop_
 _atom_site_type_symbol
 _atom_site_label
 _atom_site_symmetry_multiplicity
 _atom_site_fract_x
 _atom_site_fract_y
 _atom_site_fract_z
 _atom_site_occupancy
  Ba  Ba0  1  0.50486322  0.99105891  0.87594335  1
  Ba  Ba1  1  0.50236695  0.65620223  0.37479482  1
  Ba  Ba2  1  0.83587707  0.34036674  0.62507734  1
  Ba  Ba3  1  0.83045283  0.34297565  0.12858207  1
  Ba  Ba4  1  0.33072530  0.82179301  0.37415000  1
  Ba  Ba5  1  0.83685254  0.99532487  0.87380593  1
  Ba  Ba6  1  1.00318090  0.50562908  0.62354136  1
  Ba  Ba7  1  0.32857258  0.82635538  0.87766272  1
  Ba  Ba8  1  0.83458063  0.65500477  0.37435894  1
  Ba  Ba9  1  0.66629201  0.50845813  0.12663703  1
  Ba  Ba10  1  0.17157183  0.65590691  0.37568974  1
  Ba  Ba11  1  0.16638180  0.99117634  0.37560752  1
  Ba  Ba12  1  0.16988555  0.32717932  0.87235542  1
  Ba  Ba13  1  0.16447338  0.34100710  0.12107360  1
  Ba  Ba14  1  0.66881857  0.17282468  0.62623508  1
  Ba  Ba15  1  0.83532489  0.67049385  0.62460897  1
  Ba  Ba16  1  0.32872092  0.49241301  0.87250247  1
  Ba  Ba17  1  0.16967640  0.00757614  0.12851855  1
  Ba  Ba18  1  0.32987335  0.84023751  0.62436131  1
  Ba  Ba19  1  -0.00238083  0.15949792  0.37473941  1
  Ba  Ba20  1  0.16456441  0.67267727  0.12243687  1
  Ba  Ba21  1  0.16637814  0.67455741  0.62580044  1
  Ba  Ba22  1  0.83034372  0.32952605  0.87570571  1
  Ba  Ba23  1  0.00254999  0.48981074  0.87667804  1
  Ba  Ba24  1  0.16760037  0.32538586  0.37720167  1
  Ba  Ba25  1  -0.00778110  0.82326856  0.87545602  1
  Ba  Ba26  1  0.66982138  0.50507641  0.62373080  1
  Ba  Ba27  1  0.83167499  0.32477828  0.37693815  1
  Ba  Ba28  1  0.49783353  0.01148005  0.12806247  1
  Ba  Ba29  1  0.33189178  0.15933236  0.87390098  1
  Ba  Ba30  1  0.17174214  0.99228719  0.87658986  1
  Ba  Ba31  1  0.50290658  0.32109299  0.36944754  1
  Ba  Ba32  1  0.16766801  0.65645251  0.87756066  1
  Ba  Ba33  1  0.16898638  0.34526450  0.62329352  1
  Ba  Ba34  1  0.66731960  0.49299499  0.87550988  1
  Ba  Ba35  1  0.66440933  0.82275466  0.87673538  1
  La  La36  1  0.82470954  0.01809585  0.12889656  1
  La  La37  1  -0.00151196  0.81584475  0.37478310  1
  La  La38  1  0.83956639  0.64813872  0.87164604  1
  La  La39  1  0.33545241  0.18281632  0.12678779  1
  La  La40  1  0.16410294  0.01412113  0.62461293  1
  La  La41  1  0.66766717  0.18362432  0.12728172  1
  La  La42  1  0.33577060  0.17855111  0.62016791  1
  La  La43  1  0.33406655  0.51918885  0.62358458  1
  La  La44  1  1.00569892  0.18266640  0.62627474  1
  La  La45  1  0.66748850  0.48085449  0.37352183  1
  La  La46  1  0.00009615  0.16067745  0.88177973  1
  La  La47  1  0.33526766  0.51420528  0.12522818  1
  La  La48  1  1.00536056  0.51145197  0.11892659  1
  La  La49  1  -0.00320461  0.48635547  0.37289122  1
  La  La50  1  0.83784037  0.98430977  0.37617489  1
  La  La51  1  0.32509376  0.15451606  0.37514482  1
  La  La52  1  0.32766709  0.84616483  0.12167422  1
  La  La53  1  0.66873184  0.84369708  0.62365422  1
  La  La54  1  0.49061442  0.35206569  0.62012622  1
  La  La55  1  0.49030744  0.67975177  0.62797019  1
  La  La56  1  0.32596991  0.48652063  0.37873357  1
  La  La57  1  0.50730382  0.31889692  0.87357872  1
  La  La58  1  0.50423171  0.65273179  0.87714953  1
  La  La59  1  0.65864014  0.15764476  0.87744994  1
  La  La60  1  0.49363364  0.35062372  0.12239290  1
  La  La61  1  0.66422574  0.81483546  0.37501264  1
  La  La62  1  0.67043546  0.84997397  0.13096570  1
  La  La63  1  1.00074335  0.85160409  0.12901627  1
  La  La64  1  0.49644617  0.01781747  0.62588976  1
  La  La65  1  0.49729892  0.68190775  0.12258762  1
  La  La66  1  0.83328949  0.00849367  0.62037856  1
  La  La67  1  0.66382288  0.15277962  0.37372124  1
  La  La68  1  1.00886006  0.84864289  0.62391484  1
  La  La69  1  0.82807584  0.68112732  0.12431357  1
  La  La70  1  1.00012298  0.18014694  0.12611016  1
  La  La71  1  0.50354052  0.98316964  0.37653267  1
  In  In72  1  0.83305754  0.50041657  0.49821295  1
  In  In73  1  0.50074208  0.83493140  0.75045791  1
  In  In74  1  0.00265560  0.33303776  0.49795296  1
  In  In75  1  0.66842593  -0.00138163  0.74593868  1
  In  In76  1  0.16545280  0.83204354  0.25081082  1
  In  In77  1  0.16029066  0.83186315  0.00195884  1
  In  In78  1  0.16568556  0.49932370  0.24851725  1
  In  In79  1  0.16437890  0.83442182  0.75141791  1
  In  In80  1  0.83524696  0.16702126  0.75155233  1
  In  In81  1  0.33527852  0.33465219  0.25133279  1
  In  In82  1  0.82981853  0.17087894  0.00175484  1
  In  In83  1  0.83647449  0.83042727  0.50129832  1
  In  In84  1  0.49860598  0.49926531  0.74994874  1
  In  In85  1  0.66299070  0.66330738  0.50213118  1
  In  In86  1  0.83473671  0.83197689  0.74558233  1
  In  In87  1  0.16519788  0.16651735  0.25034974  1
  In  In88  1  0.16924342  0.16648464  -0.00056209  1
  In  In89  1  0.33762202  0.00171174  0.25283696  1
  In  In90  1  0.33504435  0.33474861  0.75008864  1
  In  In91  1  0.83253479  0.83568484  0.00203265  1
  In  In92  1  0.83345127  0.49873886  0.00476981  1
  In  In93  1  0.66614106  0.00195160  0.00359176  1
  In  In94  1  0.50150695  0.83238319  0.24937566  1
  In  In95  1  0.50064486  0.50361390  0.25161228  1
  In  In96  1  0.33388052  0.00219077  0.74872311  1
  In  In97  1  0.66174866  0.32881843  0.50089096  1
  In  In98  1  -0.00351024  0.66588407  0.24656029  1
  In  In99  1  0.66470459  0.33237195  0.74778691  1
  In  In100  1  0.33324551  0.66930429  0.75433579  1
  In  In101  1  0.66776744  0.66868167  0.00341062  1
  In  In102  1  0.66497999  0.66653146  0.75015844  1
  In  In103  1  0.66636204  -0.00163231  0.49832835  1
  In  In104  1  0.33489417  -0.00207801  0.50108648  1
  In  In105  1  0.49719452  0.16794699  0.00376673  1
  In  In106  1  0.00177452  0.00423382  0.75238706  1
  In  In107  1  0.83470101  0.16483049  0.50037555  1
  Ir  Ir108  1  0.49765816  0.83110133  0.00346491  1
  Ir  Ir109  1  0.66571041  0.33045419  0.24752872  1
  Ir  Ir110  1  0.83784616  0.49859976  0.75060298  1
  Ir  Ir111  1  0.16824564  0.50190716  0.49958050  1
  Ir  Ir112  1  0.33516345  0.33439410  0.50075007  1
  Ir  Ir113  1  -0.00308042  0.00350588  0.00874589  1
  Ir  Ir114  1  0.33765831  0.66506460  0.00621432  1
  Ir  Ir115  1  0.50068952  0.16963166  0.74462498  1
  Ir  Ir116  1  0.16377423  0.83338792  0.49941116  1
  Ir  Ir117  1  0.00403877  0.33381067  0.75462824  1
  Ir  Ir118  1  0.00514204  0.66606247  0.49881466  1
  Ir  Ir119  1  -0.00871695  0.00073054  0.25129415  1
  Ir  Ir120  1  -0.00127747  0.66354034  0.74913780  1
  Ir  Ir121  1  0.82972639  0.16612551  0.24931763  1
  Ir  Ir122  1  -0.00633216  0.66400791  -0.00160531  1
  Ir  Ir123  1  0.33593843  0.66619351  0.24762837  1
  Ir  Ir124  1  0.33638812  0.66645544  0.49523393  1
  Ir  Ir125  1  0.17088357  0.49957383  -0.00028660  1
  Ir  Ir126  1  0.50235395  0.16778802  0.25198306  1
  Ir  Ir127  1  0.50417716  0.83130385  0.49853634  1
  Ir  Ir128  1  0.66968081  0.00126512  0.25340545  1
  Ir  Ir129  1  0.49708918  0.49985030  0.00182834  1
  Ir  Ir130  1  0.16662488  0.50003659  0.74927340  1
  Ir  Ir131  1  0.66910300  0.66616319  0.24886993  1
  Ir  Ir132  1  -0.00578884  0.33421610  0.24414216  1
  Ir  Ir133  1  0.49573460  0.16685770  0.49561713  1
  Ir  Ir134  1  0.33638328  0.33731048  0.00092706  1
  Ir  Ir135  1  0.33575607  -0.00066368  0.00301030  1
  Ir  Ir136  1  0.83384224  0.49894294  0.24877371  1
  Ir  Ir137  1  0.00065706  -0.00230305  0.49379410  1
  Ir  Ir138  1  0.65984557  0.33435814  0.00224757  1
  Ir  Ir139  1  0.16823863  0.16545931  0.50183138  1
  Ir  Ir140  1  0.16612482  0.16905133  0.74600284  1
  Ir  Ir141  1  0.49558163  0.49895486  0.49652165  1
  Ir  Ir142  1  0.00069380  0.33259266  -0.00003148  1
  Ir  Ir143  1  0.83243274  0.83515146  0.25004592  1
  O  O144  1  0.31611179  0.32450664  0.12027965  1
  O  O145  1  0.31877242  0.31755686  0.61964090  1
  O  O146  1  0.31245044  0.65176948  0.12776199  1
  O  O147  1  0.31984691  0.65956085  0.61501755  1
  O  O148  1  0.32196510  0.98904908  0.12309506  1
  O  O149  1  0.30191199  1.00459910  0.62217765  1
  O  O150  1  0.63145099  0.32584987  0.12452397  1
  O  O151  1  0.62626561  0.33356506  0.62396988  1
  O  O152  1  0.63517089  0.66198664  0.13194439  1
  O  O153  1  0.62558608  0.65801143  0.62393837  1
  O  O154  1  0.64426572  0.98913711  0.13577904  1
  O  O155  1  0.62711538  0.98681534  0.61882838  1
  O  O156  1  0.97675553  0.31811823  0.12132473  1
  O  O157  1  0.98753801  0.32730086  0.63367705  1
  O  O158  1  0.96439013  0.65269627  0.11846416  1
  O  O159  1  0.98257230  0.65827641  0.62553816  1
  O  O160  1  0.96052907  0.99191486  0.13137028  1
  O  O161  1  0.97277097  0.99067129  0.61239853  1
  O  O162  1  0.19874628  0.16889718  0.12501050  1
  O  O163  1  0.19852426  0.16044777  0.62369871  1
  O  O164  1  0.19733003  0.49828301  0.11940479  1
  O  O165  1  0.19703095  0.50173607  0.62380624  1
  O  O166  1  0.19167203  0.83084920  0.12421043  1
  O  O167  1  0.17780721  0.83255301  0.61767042  1
  O  O168  1  0.53295448  0.16518430  0.13349194  1
  O  O169  1  0.52164116  0.15641872  0.61928339  1
  O  O170  1  0.51806919  0.49070735  0.12096410  1
  O  O171  1  0.51892575  0.49294652  0.61507239  1
  O  O172  1  0.53134627  0.82244909  0.12266957  1
  O  O173  1  0.53244259  0.81880408  0.61676518  1
  O  O174  1  0.86324346  0.16022946  0.13094965  1
  O  O175  1  0.87421637  0.14915754  0.62591164  1
  O  O176  1  0.86739052  0.49779405  0.13191418  1
  O  O177  1  0.85097391  0.49716210  0.63020317  1
  O  O178  1  0.86644935  0.82201703  0.13157906  1
  O  O179  1  0.87723698  0.82497870  0.62152308  1
  O  O180  1  0.14790403  0.16930383  0.38128321  1
  O  O181  1  0.13767619  0.16746897  0.86831485  1
  O  O182  1  0.13789567  0.50142096  0.37847538  1
  O  O183  1  0.15012149  0.49957694  0.87311286  1
  O  O184  1  0.13632002  0.83286023  0.37924104  1
  O  O185  1  0.14317382  0.83670613  0.87890936  1
  O  O186  1  0.46327863  0.17061454  0.37438732  1
  O  O187  1  0.48181226  0.17898177  0.86745077  1
  O  O188  1  0.46304058  0.50063380  0.37824285  1
  O  O189  1  0.47635051  0.51011965  0.88277860  1
  O  O190  1  0.48113109  0.84096032  0.37952080  1
  O  O191  1  0.47696305  0.83718108  0.88589939  1
  O  O192  1  0.80046084  0.16777645  0.36801263  1
  O  O193  1  0.79450209  0.16823020  0.87882872  1
  O  O194  1  0.80231776  0.50122888  0.36514205  1
  O  O195  1  0.82124089  0.50448107  0.87284074  1
  O  O196  1  0.80052927  0.84477173  0.36921384  1
  O  O197  1  0.81557031  0.83892298  0.87520418  1
  O  O198  1  0.02067294  0.00576886  0.37080143  1
  O  O199  1  0.02378632  0.01439790  0.88966715  1
  O  O200  1  0.01702887  0.34513470  0.36412456  1
  O  O201  1  0.02413039  0.33302692  0.87861852  1
  O  O202  1  0.02277811  0.67654671  0.37789222  1
  O  O203  1  0.01965343  0.66821522  0.87406005  1
  O  O204  1  0.36848465  0.01544611  0.37961621  1
  O  O205  1  0.35358413  0.00398415  0.88269780  1
  O  O206  1  0.35480246  0.34875621  0.38123713  1
  O  O207  1  0.36834765  0.33824772  0.87983981  1
  O  O208  1  0.35554226  0.66982987  0.36952736  1
  O  O209  1  0.36620068  0.66763111  0.88639696  1
  O  O210  1  0.70023805  0.01336223  0.37097051  1
  O  O211  1  0.68442156  0.01747341  0.87544254  1
  O  O212  1  0.68037036  0.33934228  0.36772737  1
  O  O213  1  0.67637332  0.33270074  0.88244414  1
  O  O214  1  0.68747094  0.67824132  0.36791019  1
  O  O215  1  0.70256357  0.67011668  0.87898582  1
  O  O216  1  0.06485860  0.09707182  0.02822237  1
  O  O217  1  0.07456726  0.09274743  0.52875546  1
  O  O218  1  0.07156305  0.42959151  0.02336174  1
  O  O219  1  0.08173251  0.42735326  0.51171395  1
  O  O220  1  0.05744599  0.75784525  0.02653285  1
  O  O221  1  0.06529062  0.76830653  0.51793997  1
  O  O222  1  0.39918911  0.09791833  0.02518502  1
  O  O223  1  0.40419425  0.10258170  0.52408363  1
  O  O224  1  0.40342300  0.43073804  0.02995439  1
  O  O225  1  0.39805867  0.43339159  0.52580867  1
  O  O226  1  0.40492332  0.75978571  0.03471640  1
  O  O227  1  0.41267134  0.75719926  0.52256185  1
  O  O228  1  0.73945777  0.09630809  0.03914895  1
  O  O229  1  0.74300392  0.08839619  0.51991973  1
  O  O230  1  0.73441558  0.42187914  0.01633608  1
  O  O231  1  0.73393704  0.42734175  0.50016493  1
  O  O232  1  0.73542949  0.76599222  0.03827060  1
  O  O233  1  0.73148481  0.76819543  0.51563923  1
  O  O234  1  0.08589658  0.25685243  0.01567043  1
  O  O235  1  0.09442233  0.25149039  0.52118090  1
  O  O236  1  0.08929407  0.58641013  0.02155010  1
  O  O237  1  0.09807852  0.59316091  0.51733179  1
  O  O238  1  0.08194482  0.92840889  0.03115205  1
  O  O239  1  0.09605534  0.92985698  0.52345601  1
  O  O240  1  0.42893044  0.26875860  0.02428637  1
  O  O241  1  0.42954968  0.26352567  0.52518792  1
  O  O242  1  0.43302788  0.59625694  0.03006697  1
  O  O243  1  0.42933197  0.59534981  0.52319307  1
  O  O244  1  0.42407314  0.91958079  0.02936596  1
  O  O245  1  0.44146611  0.92958222  0.52011997  1
  O  O246  1  0.74674442  0.26154114  0.02582249  1
  O  O247  1  0.75685148  0.25659265  0.51768421  1
  O  O248  1  0.76683997  0.59852255  0.02655974  1
  O  O249  1  0.75993768  0.59410147  0.51180622  1
  O  O250  1  0.76053704  0.93004349  0.03489712  1
  O  O251  1  0.76981923  0.93148092  0.51806065  1
  O  O252  1  0.24470848  0.07688404  0.27267302  1
  O  O253  1  0.23472463  0.08070351  0.76189531  1
  O  O254  1  0.24193313  0.41032506  0.26974146  1
  O  O255  1  0.23800517  0.41131508  0.75978535  1
  O  O256  1  0.24362072  0.73293767  0.26123307  1
  O  O257  1  0.23853184  0.73944290  0.76408249  1
  O  O258  1  0.57294142  0.07108672  0.28405077  1
  O  O259  1  0.56842964  0.07900042  0.75905933  1
  O  O260  1  0.57876540  0.40659956  0.26312399  1
  O  O261  1  0.56089147  0.39611288  0.77000531  1
  O  O262  1  0.57981857  0.73933930  0.26743465  1
  O  O263  1  0.56345119  0.73181268  0.77981135  1
  O  O264  1  0.89211423  0.06612953  0.27107075  1
  O  O265  1  0.92359958  0.08907233  0.78566770  1
  O  O266  1  0.90449896  0.40933673  0.27350380  1
  O  O267  1  0.91127570  0.40391462  0.76904234  1
  O  O268  1  0.90222449  0.74518692  0.27036848  1
  O  O269  1  0.90390324  0.72543432  0.77189740  1
  O  O270  1  0.27013705  0.23457110  0.26910206  1
  O  O271  1  0.25787771  0.23957874  0.76214263  1
  O  O272  1  0.27398094  0.56848721  0.26730603  1
  O  O273  1  0.25694759  0.56968920  0.75643564  1
  O  O274  1  0.26194959  0.90522694  0.25897730  1
  O  O275  1  0.25926798  0.91000700  0.76339354  1
  O  O276  1  0.60383928  0.22944103  0.26970898  1
  O  O277  1  0.59417326  0.23185643  0.77507631  1
  O  O278  1  0.60487424  0.57091553  0.27433930  1
  O  O279  1  0.58845093  0.57422219  0.77510656  1
  O  O280  1  0.60643174  0.90431093  0.27682903  1
  O  O281  1  0.59956357  0.90131863  0.76299539  1
  O  O282  1  0.92321797  0.23824726  0.26508364  1
  O  O283  1  0.93833263  0.24256078  0.77396469  1
  O  O284  1  0.92732762  0.56351497  0.27283631  1
  O  O285  1  0.92898189  0.57118439  0.76992449  1
  O  O286  1  0.92589933  0.90336316  0.27900961  1
  O  O287  1  0.92817515  0.91101713  0.76046969  1
  O  O288  1  0.26901889  0.23428869  0.47950376  1
  O  O289  1  0.26674438  0.24627436  0.98396227  1
  O  O290  1  0.26876614  0.56885407  0.47852589  1
  O  O291  1  0.26943096  0.56830984  0.98908129  1
  O  O292  1  0.25456641  0.90391757  0.48113183  1
  O  O293  1  0.26513457  0.90842899  0.99396040  1
  O  O294  1  0.59109341  0.22792088  0.47005202  1
  O  O295  1  0.59300334  0.24280353  0.97984811  1
  O  O296  1  0.59110902  0.56009542  0.46894305  1
  O  O297  1  0.58537328  0.57337090  0.98279789  1
  O  O298  1  0.59688239  0.89859449  0.46969407  1
  O  O299  1  0.58941035  0.90114481  0.99208404  1
  O  O300  1  0.93073022  0.23791024  0.49167594  1
  O  O301  1  0.93197553  0.23888107  0.98066209  1
  O  O302  1  0.93954810  0.57263190  0.47433006  1
  O  O303  1  0.92777665  0.57428139  0.97978089  1
  O  O304  1  0.93583951  0.90484946  0.46594793  1
  O  O305  1  0.93097211  0.91111564  0.99346957  1
  O  O306  1  0.24121914  0.08041497  0.48065894  1
  O  O307  1  0.24609838  0.07047394  0.98774812  1
  O  O308  1  0.24419715  0.41240409  0.47701417  1
  O  O309  1  0.24315653  0.40727894  0.98123414  1
  O  O310  1  0.23762114  0.74118024  0.48085261  1
  O  O311  1  0.24818486  0.73536123  0.99032778  1
  O  O312  1  0.56219056  0.07213730  0.47163588  1
  O  O313  1  0.57730028  0.08209994  0.98279665  1
  O  O314  1  0.56064978  0.40620303  0.48092215  1
  O  O315  1  0.55899089  0.39955954  0.98167877  1
  O  O316  1  0.57269873  0.74372034  0.47438882  1
  O  O317  1  0.56029644  0.73429764  0.98324342  1
  O  O318  1  0.90461748  0.06002212  0.47222793  1
  O  O319  1  0.91025642  0.07571571  0.98950175  1
  O  O320  1  0.91587198  0.41506177  0.47943038  1
  O  O321  1  0.91241788  0.40463308  0.98988734  1
  O  O322  1  0.91724528  0.73815686  0.47496870  1
  O  O323  1  0.89782204  0.72680818  0.98242092  1
  O  O324  1  0.08175923  0.25807650  0.22814139  1
  O  O325  1  0.09260457  0.25788211  0.72683837  1
  O  O326  1  0.08565848  0.58624523  0.22506132  1
  O  O327  1  0.09467889  0.59336664  0.73609500  1
  O  O328  1  0.07988681  0.92925334  0.23075167  1
  O  O329  1  0.09501301  0.93326462  0.71991924  1
  O  O330  1  0.43786100  0.26194809  0.22157482  1
  O  O331  1  0.43794947  0.26442705  0.72593083  1
  O  O332  1  0.43141903  0.60260064  0.22327435  1
  O  O333  1  0.42495565  0.59428632  0.72578763  1
  O  O334  1  0.43829878  0.93341929  0.24778020  1
  O  O335  1  0.43546512  0.93751234  0.72380246  1
  O  O336  1  0.75441936  0.25363314  0.22260328  1
  O  O337  1  0.75915370  0.25907438  0.73187180  1
  O  O338  1  0.76723641  0.59798203  0.22361122  1
  O  O339  1  0.76780158  0.58883350  0.74171165  1
  O  O340  1  0.76494181  0.93217967  0.22455529  1
  O  O341  1  0.76006725  0.92274583  0.70472290  1
  O  O342  1  0.05946425  0.09383612  0.22603736  1
  O  O343  1  0.07868447  0.09803693  0.71602627  1
  O  O344  1  0.06066405  0.42712935  0.22312136  1
  O  O345  1  0.07660089  0.42663138  0.73487784  1
  O  O346  1  0.06288602  0.76692426  0.22941977  1
  O  O347  1  0.05954085  0.76085827  0.72874091  1
  O  O348  1  0.40518245  0.10900649  0.22780864  1
  O  O349  1  0.40539932  0.10483294  0.72197157  1
  O  O350  1  0.40615280  0.43033406  0.22275925  1
  O  O351  1  0.40112551  0.43083728  0.71579085  1
  O  O352  1  0.40187510  0.76099682  0.22012252  1
  O  O353  1  0.41027651  0.75873865  0.72635563  1
  O  O354  1  0.73426173  0.09849025  0.22386562  1
  O  O355  1  0.75416439  0.08041112  0.71973414  1
  O  O356  1  0.73600607  0.42803501  0.23383942  1
  O  O357  1  0.74755121  0.42731083  0.73993725  1
  O  O358  1  0.73750507  0.76460072  0.22305941  1
  O  O359  1  0.73335496  0.76306688  0.71776896  1
