# generated using pymatgen
data_BaLaInIrO6
_symmetry_space_group_name_H-M   'P 1'
_cell_length_a   17.52547022
_cell_length_b   17.54690825
_cell_length_c   16.50095634
_cell_angle_alpha   89.93335254
_cell_angle_beta   89.97000369
_cell_angle_gamma   89.99653782
_symmetry_Int_Tables_number   1
_chemical_formula_structural   BaLaInIrO6
_chemical_formula_sum   'Ba36 La36 In36 Ir36 O216'
_cell_volume   5074.33395082
_cell_formula_units_Z   36
loop_
 _symmetry_equiv_pos_site_id
 _symmetry_equiv_pos_as_xyz
  1  'x, y, z'
loop_
 _atom_site_type_symbol
 _atom_site_label
 _atom_site_symmetry_multiplicity
 _atom_site_fract_x
 _atom_site_fract_y
 _atom_site_fract_z
 _atom_site_occupancy
  Ba  Ba0  1  0.16442253  0.67620455  0.12310644  1
  Ba  Ba1  1  0.16401145  0.66292341  0.37130854  1
  Ba  Ba2  1  0.16634901  0.99594994  0.37196288  1
  Ba  Ba3  1  0.49748740  0.67166861  0.12108198  1
  Ba  Ba4  1  0.83033869  0.67747323  0.62618570  1
  Ba  Ba5  1  0.83465133  0.00438279  0.62589433  1
  Ba  Ba6  1  0.17293593  0.32550844  0.37979593  1
  Ba  Ba7  1  0.82925539  0.67671520  0.12415552  1
  Ba  Ba8  1  1.00241933  0.51445529  0.62447908  1
  Ba  Ba9  1  0.66113994  0.82230910  0.37830386  1
  Ba  Ba10  1  0.66590301  0.49164573  0.87698353  1
  Ba  Ba11  1  0.50386090  0.32283936  0.37570233  1
  Ba  Ba12  1  0.32854935  0.82434308  0.87467601  1
  Ba  Ba13  1  0.66853241  0.84361248  0.62646028  1
  Ba  Ba14  1  0.49981230  0.00357790  0.12891675  1
  Ba  Ba15  1  0.33282154  0.50858600  0.62566054  1
  Ba  Ba16  1  0.66917971  0.50862681  0.62216570  1
  Ba  Ba17  1  0.66969917  0.51073735  0.12625730  1
  Ba  Ba18  1  0.33094364  0.49191645  0.87804275  1
  Ba  Ba19  1  -0.00382556  0.49495765  0.87453498  1
  Ba  Ba20  1  0.16832803  0.00533667  0.12605362  1
  Ba  Ba21  1  -0.00237797  0.82879971  0.87523392  1
  Ba  Ba22  1  0.33122939  0.84231078  0.62368665  1
  Ba  Ba23  1  0.33297627  0.82915590  0.36874500  1
  Ba  Ba24  1  1.00027206  0.84551162  0.12440828  1
  Ba  Ba25  1  1.00604500  0.17371859  0.12279779  1
  Ba  Ba26  1  0.49652111  0.98902118  0.37615716  1
  Ba  Ba27  1  0.15847371  0.67912446  0.62243395  1
  Ba  Ba28  1  0.16187862  0.00786728  0.62541198  1
  Ba  Ba29  1  0.83778891  0.32434013  0.37484734  1
  Ba  Ba30  1  -0.00177035  0.15777752  0.37317374  1
  Ba  Ba31  1  0.49740629  0.65559477  0.87467170  1
  Ba  Ba32  1  0.49845909  0.34510946  0.62144593  1
  Ba  Ba33  1  0.33533289  0.16859677  0.12708811  1
  Ba  Ba34  1  0.83289140  0.98982579  0.87479174  1
  Ba  Ba35  1  0.33169825  0.84158923  0.12409790  1
  La  La36  1  0.16740533  0.35310617  0.62725736  1
  La  La37  1  0.49331436  0.67380686  0.62350807  1
  La  La38  1  0.50142070  0.32489406  0.87910902  1
  La  La39  1  1.00654476  0.51705947  0.12617965  1
  La  La40  1  0.66000532  0.81476884  0.87439957  1
  La  La41  1  -0.00457577  0.15114624  0.87778889  1
  La  La42  1  0.32777496  0.15228978  0.37827807  1
  La  La43  1  0.99455277  0.84031147  0.61910892  1
  La  La44  1  0.83429402  0.34484939  0.12350629  1
  La  La45  1  0.17098918  0.31773248  0.87222484  1
  La  La46  1  0.83764600  0.98061397  0.37739798  1
  La  La47  1  0.16575567  0.98479593  0.87588773  1
  La  La48  1  0.66399093  0.15296330  0.87067897  1
  La  La49  1  0.83118974  0.34876199  0.62393729  1
  La  La50  1  0.66718328  0.17875328  0.62490808  1
  La  La51  1  0.66321690  0.14795999  0.38190252  1
  La  La52  1  0.84074641  0.31694097  0.87662314  1
  La  La53  1  0.83865165  0.65164629  0.37806177  1
  La  La54  1  0.33145801  0.48743067  0.37777792  1
  La  La55  1  0.50430267  0.98440890  0.87663748  1
  La  La56  1  0.67173469  0.84574138  0.12708116  1
  La  La57  1  -0.00321445  0.82505564  0.37618737  1
  La  La58  1  0.33347650  0.15315357  0.87140334  1
  La  La59  1  0.50130899  0.65908647  0.37711913  1
  La  La60  1  0.16245343  0.34919297  0.12062314  1
  La  La61  1  0.33628030  0.18052297  0.61920841  1
  La  La62  1  1.01052521  0.18682932  0.62324600  1
  La  La63  1  0.66734607  0.48797992  0.37626655  1
  La  La64  1  0.83000589  0.00965729  0.12384098  1
  La  La65  1  0.17131170  0.65247048  0.87282569  1
  La  La66  1  0.34015340  0.50924314  0.13241533  1
  La  La67  1  -0.00638706  0.48468951  0.38081289  1
  La  La68  1  0.67511268  0.17333035  0.12926276  1
  La  La69  1  0.49957755  0.34794664  0.12448490  1
  La  La70  1  0.49248248  0.01525197  0.62276591  1
  La  La71  1  0.83138858  0.65524171  0.87451388  1
  In  In72  1  0.16188081  0.83400583  0.24995624  1
  In  In73  1  0.66854077  0.33105851  0.50020664  1
  In  In74  1  -0.00295025  0.67209285  0.75130579  1
  In  In75  1  0.33405203  0.00086094  -0.00529562  1
  In  In76  1  -0.00043947  0.00132241  0.74943383  1
  In  In77  1  0.33483311  0.33089873  0.75032500  1
  In  In78  1  0.33440631  0.00010972  0.24945357  1
  In  In79  1  0.50402104  0.50022062  0.25267373  1
  In  In80  1  0.33523713  0.32907898  0.24864763  1
  In  In81  1  0.83689103  0.16649537  0.74730163  1
  In  In82  1  0.16606560  0.50026284  0.25162690  1
  In  In83  1  0.66396648  0.66407370  0.74779866  1
  In  In84  1  0.49933507  0.49690165  0.75076801  1
  In  In85  1  -0.00150544  0.00314303  0.49874809  1
  In  In86  1  0.49814381  0.83383277  0.74911959  1
  In  In87  1  0.33040579  0.66643244  -0.00130616  1
  In  In88  1  0.00244332  0.33301810  0.24697372  1
  In  In89  1  0.66975083  0.33072197  0.75243024  1
  In  In90  1  0.66927902  0.32880328  0.00018247  1
  In  In91  1  0.16507439  0.83481924  0.74733344  1
  In  In92  1  0.33285828  0.33092303  0.00119722  1
  In  In93  1  0.16421679  0.50377855  0.49782001  1
  In  In94  1  0.83658892  0.50024991  0.24949460  1
  In  In95  1  0.16792226  0.16875927  0.24919630  1
  In  In96  1  0.66667524  0.00026813  -0.00167288  1
  In  In97  1  0.00224454  0.33524896  0.75398201  1
  In  In98  1  0.49896494  0.83349145  0.50330291  1
  In  In99  1  0.66970983  0.32900278  0.24921672  1
  In  In100  1  0.33126209  0.66810645  0.49882742  1
  In  In101  1  0.50286057  0.82880145  0.24786605  1
  In  In102  1  0.33368169  0.66629318  0.25060165  1
  In  In103  1  0.83348969  0.83269957  -0.00014496  1
  In  In104  1  0.83597924  0.49856582  0.00026106  1
  In  In105  1  0.83606861  0.16529515  0.50155067  1
  In  In106  1  0.66964978  -0.00187407  0.25431917  1
  In  In107  1  0.50235921  0.16721207  0.00199092  1
  Ir  Ir108  1  0.66755368  0.66198427  0.49548414  1
  Ir  Ir109  1  0.50030332  0.16306751  0.49947840  1
  Ir  Ir110  1  0.82641628  0.83449030  0.75144833  1
  Ir  Ir111  1  0.49915390  0.49762684  0.00206640  1
  Ir  Ir112  1  -0.00015060  0.00392197  0.00117351  1
  Ir  Ir113  1  0.16933346  0.17084632  0.50709498  1
  Ir  Ir114  1  0.50429355  0.83190324  -0.00379279  1
  Ir  Ir115  1  0.67136718  0.66669294  0.25407515  1
  Ir  Ir116  1  0.66238040  0.00246955  0.74904298  1
  Ir  Ir117  1  0.16059628  0.83384179  -0.00297111  1
  Ir  Ir118  1  0.16401410  0.16714401  -0.00968198  1
  Ir  Ir119  1  0.82804865  0.83035132  0.49796132  1
  Ir  Ir120  1  0.00200973  0.33455225  0.50432126  1
  Ir  Ir121  1  0.33428133  0.00658353  0.74658128  1
  Ir  Ir122  1  0.50132887  0.50234233  0.49794344  1
  Ir  Ir123  1  0.00306971  0.33106895  -0.00174009  1
  Ir  Ir124  1  0.66590982  0.00149675  0.50551465  1
  Ir  Ir125  1  0.50731098  0.16575274  0.25499717  1
  Ir  Ir126  1  0.32953810  0.00424450  0.50715082  1
  Ir  Ir127  1  0.83316948  0.50079884  0.75008848  1
  Ir  Ir128  1  0.16226847  0.49692768  -0.00374944  1
  Ir  Ir129  1  0.49988761  0.16353241  0.74575719  1
  Ir  Ir130  1  -0.00484233  0.67232196  0.49596569  1
  Ir  Ir131  1  0.16446495  0.50117389  0.75267818  1
  Ir  Ir132  1  0.33621490  0.33189949  0.50093108  1
  Ir  Ir133  1  0.00146158  0.66694200  -0.00032063  1
  Ir  Ir134  1  0.66509778  0.66865431  0.00487920  1
  Ir  Ir135  1  0.16825504  0.16837107  0.74902657  1
  Ir  Ir136  1  0.83245468  0.83227277  0.25252245  1
  Ir  Ir137  1  0.83469400  0.50223758  0.50220727  1
  Ir  Ir138  1  -0.00719016  -0.00070133  0.24938198  1
  Ir  Ir139  1  0.32832091  0.66542175  0.74870144  1
  Ir  Ir140  1  -0.00527655  0.66899241  0.25212089  1
  Ir  Ir141  1  0.83362657  0.16332729  0.24684715  1
  Ir  Ir142  1  0.16291503  0.83810890  0.49796978  1
  Ir  Ir143  1  0.83673860  0.16683041  0.00414505  1
  O  O144  1  0.29601487  0.32372259  0.12195973  1
  O  O145  1  0.30421251  0.31983542  0.62203208  1
  O  O146  1  0.31253650  0.64480355  0.12109332  1
  O  O147  1  0.30837459  0.66377063  0.63040158  1
  O  O148  1  0.32194911  1.00600450  0.11969117  1
  O  O149  1  0.30964812  1.00802769  0.62756769  1
  O  O150  1  0.63371678  0.30989616  0.12455179  1
  O  O151  1  0.64597974  0.31887533  0.62547851  1
  O  O152  1  0.64599155  0.66731825  0.13082892  1
  O  O153  1  0.63594165  0.66236978  0.61548193  1
  O  O154  1  0.65240296  0.99709798  0.12533773  1
  O  O155  1  0.62998224  0.99869371  0.62694563  1
  O  O156  1  0.96970689  0.32776556  0.11594730  1
  O  O157  1  0.97059532  0.32591170  0.62568274  1
  O  O158  1  0.97545103  0.65485095  0.12775494  1
  O  O159  1  0.98025037  0.67399914  0.61738038  1
  O  O160  1  0.96625539  1.00235910  0.12562387  1
  O  O161  1  0.98540990  0.98047575  0.62372094  1
  O  O162  1  0.18416810  0.16094093  0.11001124  1
  O  O163  1  0.19989023  0.16507883  0.62910467  1
  O  O164  1  0.19727175  0.48985917  0.11419479  1
  O  O165  1  0.18160177  0.49394516  0.63009656  1
  O  O166  1  0.17493668  0.83554769  0.11613949  1
  O  O167  1  0.17970814  0.83964196  0.61821742  1
  O  O168  1  0.53850344  0.15749155  0.13405213  1
  O  O169  1  0.53260861  0.15152887  0.62285692  1
  O  O170  1  0.52202475  0.49329263  0.12026841  1
  O  O171  1  0.52009451  0.50288239  0.61750023  1
  O  O172  1  0.53625273  0.83067414  0.11404423  1
  O  O173  1  0.52194521  0.81544373  0.62703264  1
  O  O174  1  0.85930171  0.14648055  0.12622609  1
  O  O175  1  0.87736396  0.15668306  0.62520626  1
  O  O176  1  0.87175437  0.49105126  0.12369617  1
  O  O177  1  0.85696482  0.48847817  0.62673086  1
  O  O178  1  0.85066919  0.82977078  0.13246938  1
  O  O179  1  0.85741017  0.83084067  0.62373270  1
  O  O180  1  0.14795512  0.17131424  0.38747416  1
  O  O181  1  0.13175444  0.18000397  0.86861967  1
  O  O182  1  0.12724906  0.49624765  0.37579021  1
  O  O183  1  0.14120337  0.51197272  0.87495945  1
  O  O184  1  0.13337932  0.83532271  0.37931106  1
  O  O185  1  0.14796937  0.83970659  0.87783273  1
  O  O186  1  0.46937151  0.16932597  0.37740845  1
  O  O187  1  0.47057487  0.18192181  0.86277921  1
  O  O188  1  0.47032925  0.51023020  0.38001738  1
  O  O189  1  0.48153777  0.49144818  0.88356808  1
  O  O190  1  0.48797615  0.82561748  0.37817973  1
  O  O191  1  0.47934493  0.84298232  0.87665310  1
  O  O192  1  0.80217919  0.17106881  0.36656002  1
  O  O193  1  0.80415315  0.17835230  0.88339043  1
  O  O194  1  0.80573799  0.50789568  0.38114121  1
  O  O195  1  0.81710531  0.51298866  0.87187754  1
  O  O196  1  0.80728711  0.84341405  0.37478353  1
  O  O197  1  0.79839212  0.83597832  0.87178492  1
  O  O198  1  0.01122381  -0.00560921  0.36935350  1
  O  O199  1  0.02708030  0.00978463  0.88130538  1
  O  O200  1  0.02240594  0.34208749  0.38214703  1
  O  O201  1  0.03688268  0.33744021  0.88112812  1
  O  O202  1  0.01438570  0.68552784  0.37428293  1
  O  O203  1  0.03167463  0.67018087  0.88063180  1
  O  O204  1  0.34782286  0.01057557  0.38729806  1
  O  O205  1  0.36610816  0.01108792  0.86428685  1
  O  O206  1  0.35626329  0.34677292  0.38164533  1
  O  O207  1  0.36498136  0.32963942  0.87661836  1
  O  O208  1  0.36799468  0.67352725  0.37623163  1
  O  O209  1  0.34362243  0.66371913  0.86905392  1
  O  O210  1  0.70003063  0.00963974  0.38393033  1
  O  O211  1  0.68706904  0.01577770  0.86828004  1
  O  O212  1  0.68942050  0.34572805  0.37616317  1
  O  O213  1  0.70621788  0.33075608  0.87593840  1
  O  O214  1  0.70230693  0.66557360  0.37474266  1
  O  O215  1  0.69401758  0.67480164  0.88413450  1
  O  O216  1  0.06799612  0.10151773  0.00509696  1
  O  O217  1  0.07121715  0.10575259  0.52510486  1
  O  O218  1  0.06944350  0.42511555  0.02809618  1
  O  O219  1  0.07545715  0.42043564  0.52521388  1
  O  O220  1  0.06985191  0.75905433  0.01709158  1
  O  O221  1  0.06081075  0.77249054  0.51506342  1
  O  O222  1  0.40054441  0.10347280  -0.00218344  1
  O  O223  1  0.40257284  0.09627980  0.52806575  1
  O  O224  1  0.40607786  0.43104079  0.02909551  1
  O  O225  1  0.40556180  0.43276975  0.51460567  1
  O  O226  1  0.41213454  0.76188723  0.01159539  1
  O  O227  1  0.41214347  0.75195099  0.52983042  1
  O  O228  1  0.74159299  0.10084792  0.02329278  1
  O  O229  1  0.72895548  0.09756273  0.52494083  1
  O  O230  1  0.74826476  0.41813922  0.02721652  1
  O  O231  1  0.75062219  0.42498959  0.52049377  1
  O  O232  1  0.72855582  0.76472236  0.02061457  1
  O  O233  1  0.73586094  0.75604847  0.51789304  1
  O  O234  1  0.10268575  0.26791677  0.01784727  1
  O  O235  1  0.09810085  0.26559274  0.53496472  1
  O  O236  1  0.08674866  0.58576796  0.02530832  1
  O  O237  1  0.08530384  0.60074621  0.51089181  1
  O  O238  1  0.09432723  0.93487756  0.01022447  1
  O  O239  1  0.09022919  0.92419648  0.51170321  1
  O  O240  1  0.44020178  0.27064945  0.02386602  1
  O  O241  1  0.42662636  0.25285954  0.52274160  1
  O  O242  1  0.42280534  0.58253070  0.01464532  1
  O  O243  1  0.43800481  0.59620894  0.51757295  1
  O  O244  1  0.43619076  0.92539299  0.00670001  1
  O  O245  1  0.42390481  0.93621115  0.52695149  1
  O  O246  1  0.77166555  0.25720396  0.03224826  1
  O  O247  1  0.76555122  0.25913265  0.52994889  1
  O  O248  1  0.75579896  0.59622162  0.01337793  1
  O  O249  1  0.76364237  0.59432321  0.51631801  1
  O  O250  1  0.76246887  0.92834839  0.02593839  1
  O  O251  1  0.76103615  0.92995926  0.51613520  1
  O  O252  1  0.24751774  0.08220512  0.26877136  1
  O  O253  1  0.23790100  0.07435002  0.77897684  1
  O  O254  1  0.24638678  0.41021171  0.26923283  1
  O  O255  1  0.22935858  0.40131473  0.76696986  1
  O  O256  1  0.23780540  0.74155750  0.25947387  1
  O  O257  1  0.23328710  0.73376454  0.76934045  1
  O  O258  1  0.57874654  0.07754941  0.28239600  1
  O  O259  1  0.56467029  0.06779650  0.77303374  1
  O  O260  1  0.58217029  0.41149256  0.26725269  1
  O  O261  1  0.56886950  0.39392712  0.77559243  1
  O  O262  1  0.57600438  0.72597170  0.27320139  1
  O  O263  1  0.57896299  0.74580829  0.77628847  1
  O  O264  1  0.89428608  0.06349292  0.27091078  1
  O  O265  1  0.91211195  0.07785443  0.77952351  1
  O  O266  1  0.91860687  0.41450584  0.27652279  1
  O  O267  1  0.89801958  0.40411915  0.76983494  1
  O  O268  1  0.89804106  0.73705196  0.27823443  1
  O  O269  1  0.89305141  0.74080609  0.77659769  1
  O  O270  1  0.27076974  0.23299807  0.27952927  1
  O  O271  1  0.26109633  0.23322868  0.77496293  1
  O  O272  1  0.26405761  0.56649336  0.27754806  1
  O  O273  1  0.25460093  0.57399749  0.77181831  1
  O  O274  1  0.25063632  0.91338703  0.26102375  1
  O  O275  1  0.26312502  0.91721277  0.76842027  1
  O  O276  1  0.60279874  0.22724833  0.27810607  1
  O  O277  1  0.59937599  0.22218991  0.76592593  1
  O  O278  1  0.60637792  0.57255954  0.28010590  1
  O  O279  1  0.59131045  0.57136057  0.76630160  1
  O  O280  1  0.60279094  0.89902459  0.25392281  1
  O  O281  1  0.59580063  0.91189517  0.77930406  1
  O  O282  1  0.92239013  0.23567968  0.26185475  1
  O  O283  1  0.93207296  0.24110702  0.78505999  1
  O  O284  1  0.93034517  0.57672032  0.28076647  1
  O  O285  1  0.91880525  0.57816591  0.76604882  1
  O  O286  1  0.92507857  0.90146432  0.27717917  1
  O  O287  1  0.91728826  0.90299834  0.76094428  1
  O  O288  1  0.27159808  0.23331374  0.48439060  1
  O  O289  1  0.25681423  0.23301926  0.96434589  1
  O  O290  1  0.26407319  0.56877697  0.47434783  1
  O  O291  1  0.24352840  0.57624334  0.97448890  1
  O  O292  1  0.25796606  0.90897196  0.48133594  1
  O  O293  1  0.24868792  0.91010597  0.97847209  1
  O  O294  1  0.59662806  0.22754511  0.48004106  1
  O  O295  1  0.59763860  0.23522757  0.96284105  1
  O  O296  1  0.59813835  0.56890283  0.46781162  1
  O  O297  1  0.59218807  0.57223324  0.98439379  1
  O  O298  1  0.59528695  0.91343774  0.48856997  1
  O  O299  1  0.59728727  0.90004212  0.97287653  1
  O  O300  1  0.93376801  0.24389664  0.48664285  1
  O  O301  1  0.93273287  0.23649496  0.97214522  1
  O  O302  1  0.92719652  0.57571588  0.47229301  1
  O  O303  1  0.92714408  0.58172839  0.98266850  1
  O  O304  1  0.92147066  0.89782268  0.47952625  1
  O  O305  1  0.92816219  0.91435930  0.98681649  1
  O  O306  1  0.24056507  0.08007143  0.48184108  1
  O  O307  1  0.23194711  0.07658171  0.96186871  1
  O  O308  1  0.24697929  0.40562694  0.49146261  1
  O  O309  1  0.22749884  0.40216602  0.97223722  1
  O  O310  1  0.23469333  0.74922307  0.48362258  1
  O  O311  1  0.22910932  0.74137330  0.97901501  1
  O  O312  1  0.57339733  0.07221907  0.47951191  1
  O  O313  1  0.57082121  0.07071938  0.96761198  1
  O  O314  1  0.57671137  0.41569929  0.47941044  1
  O  O315  1  0.56558144  0.40012970  0.98617717  1
  O  O316  1  0.57395870  0.72462346  0.47800966  1
  O  O317  1  0.57545946  0.74119588  0.97458651  1
  O  O318  1  0.89766524  0.06512734  0.47254343  1
  O  O319  1  0.90722612  0.07530297  0.98046258  1
  O  O320  1  0.91232357  0.41175204  0.48020124  1
  O  O321  1  0.90672956  0.39377918  0.97469407  1
  O  O322  1  0.89782155  0.73903085  0.47261561  1
  O  O323  1  0.90640704  0.73511841  0.97539028  1
  O  O324  1  0.10263146  0.26705470  0.22647680  1
  O  O325  1  0.10467367  0.26428843  0.72283713  1
  O  O326  1  0.08333189  0.59545858  0.23093124  1
  O  O327  1  0.09571968  0.59491118  0.74100369  1
  O  O328  1  0.08071116  0.92962646  0.23396335  1
  O  O329  1  0.09905301  0.93609035  0.75188086  1
  O  O330  1  0.44404310  0.25979448  0.22629430  1
  O  O331  1  0.42819893  0.24945844  0.71906801  1
  O  O332  1  0.42375679  0.58371372  0.22961150  1
  O  O333  1  0.42346818  0.59956033  0.72838387  1
  O  O334  1  0.42629290  0.92380592  0.24071332  1
  O  O335  1  0.43026858  0.94050714  0.72645928  1
  O  O336  1  0.76773180  0.25409540  0.21560480  1
  O  O337  1  0.77065612  0.26401709  0.72213428  1
  O  O338  1  0.76327156  0.59909320  0.23979759  1
  O  O339  1  0.76443450  0.59320005  0.74025649  1
  O  O340  1  0.77255925  0.92978180  0.23108213  1
  O  O341  1  0.75619638  0.93128589  0.73173040  1
  O  O342  1  0.06743306  0.08793644  0.23817088  1
  O  O343  1  0.07139603  0.10812334  0.72742357  1
  O  O344  1  0.07525516  0.42792161  0.21233140  1
  O  O345  1  0.07722615  0.42838509  0.73163352  1
  O  O346  1  0.06065708  0.76079093  0.24007462  1
  O  O347  1  0.06089845  0.77231549  0.72604699  1
  O  O348  1  0.41795780  0.09788681  0.24194714  1
  O  O349  1  0.40262753  0.10030553  0.72069295  1
  O  O350  1  0.41174548  0.42016229  0.22136628  1
  O  O351  1  0.40524241  0.42490621  0.73354780  1
  O  O352  1  0.41080840  0.75656329  0.22386306  1
  O  O353  1  0.40087690  0.75412366  0.73483382  1
  O  O354  1  0.74141770  0.09675385  0.22725558  1
  O  O355  1  0.72789768  0.09905654  0.72789847  1
  O  O356  1  0.75315266  0.41618430  0.22302391  1
  O  O357  1  0.74735194  0.42798695  0.73061622  1
  O  O358  1  0.73396489  0.76757302  0.22895482  1
  O  O359  1  0.73846846  0.76354968  0.74022618  1
