# generated using pymatgen
data_BaLaInIrO6
_symmetry_space_group_name_H-M   'P 1'
_cell_length_a   17.53725041
_cell_length_b   17.56209912
_cell_length_c   16.50987097
_cell_angle_alpha   90.06369232
_cell_angle_beta   90.00750685
_cell_angle_gamma   89.99583494
_symmetry_Int_Tables_number   1
_chemical_formula_structural   BaLaInIrO6
_chemical_formula_sum   'Ba36 La36 In36 Ir36 O216'
_cell_volume   5084.88731397
_cell_formula_units_Z   36
loop_
 _symmetry_equiv_pos_site_id
 _symmetry_equiv_pos_as_xyz
  1  'x, y, z'
loop_
 _atom_site_type_symbol
 _atom_site_label
 _atom_site_symmetry_multiplicity
 _atom_site_fract_x
 _atom_site_fract_y
 _atom_site_fract_z
 _atom_site_occupancy
  Ba  Ba0  1  0.17075202  0.65367965  0.37650932  1
  Ba  Ba1  1  1.00277077  0.50300380  0.12562865  1
  Ba  Ba2  1  0.99974857  0.50701322  0.62940638  1
  Ba  Ba3  1  1.00211096  0.17451735  0.61972336  1
  Ba  Ba4  1  0.99714811  0.17014485  0.12224376  1
  Ba  Ba5  1  0.83128946  0.32759797  0.87213533  1
  Ba  Ba6  1  0.33338446  0.48714600  0.87566194  1
  Ba  Ba7  1  0.83615860  0.01103515  0.62512957  1
  Ba  Ba8  1  0.49981157  0.65616010  0.37548385  1
  Ba  Ba9  1  0.83263978  0.65838065  0.87737725  1
  Ba  Ba10  1  0.83555073  0.99223614  0.87240176  1
  Ba  Ba11  1  1.00284437  0.84315654  0.62446595  1
  Ba  Ba12  1  0.50431026  0.65410894  0.87608184  1
  Ba  Ba13  1  0.83209800  0.99311046  0.37596985  1
  Ba  Ba14  1  0.32922218  0.15353099  0.37022943  1
  Ba  Ba15  1  0.16527881  0.99276243  0.87807011  1
  Ba  Ba16  1  0.16324291  0.67610507  0.62530463  1
  Ba  Ba17  1  0.83531610  0.34205689  0.12627033  1
  Ba  Ba18  1  -0.00028165  0.49149570  0.87503217  1
  Ba  Ba19  1  0.16658707  0.34225608  0.12798900  1
  Ba  Ba20  1  0.66127130  0.83049274  0.37809028  1
  Ba  Ba21  1  0.83141814  0.32597211  0.37511179  1
  Ba  Ba22  1  0.50283159  0.99031742  0.87320884  1
  Ba  Ba23  1  0.33545747  0.82223254  0.37601933  1
  Ba  Ba24  1  0.50024524  0.99710685  0.37723613  1
  Ba  Ba25  1  0.49852288  0.67888337  0.12687924  1
  Ba  Ba26  1  0.50033015  0.00738734  0.62666235  1
  Ba  Ba27  1  0.00138387  0.15938412  0.36996117  1
  Ba  Ba28  1  0.33882705  0.18537187  0.12201028  1
  Ba  Ba29  1  0.99971913  0.83479332  0.12327764  1
  Ba  Ba30  1  0.65959401  0.49383459  0.37141973  1
  Ba  Ba31  1  0.49909471  0.67375487  0.62624048  1
  Ba  Ba32  1  0.33793339  0.17472578  0.62751528  1
  Ba  Ba33  1  0.83498998  0.33917035  0.62325721  1
  Ba  Ba34  1  0.65914092  0.49056864  0.87690352  1
  Ba  Ba35  1  0.66348431  0.17236473  0.62684643  1
  La  La36  1  0.16076911  0.34857216  0.62638236  1
  La  La37  1  0.66274886  0.81901551  0.87486761  1
  La  La38  1  0.34090809  0.84849949  0.12537794  1
  La  La39  1  0.67227014  0.85426302  0.62969071  1
  La  La40  1  0.16877427  0.31933799  0.37150867  1
  La  La41  1  0.67129729  0.84697665  0.12298474  1
  La  La42  1  0.50119087  0.31575406  0.37048021  1
  La  La43  1  0.33180392  0.81799134  0.87184575  1
  La  La44  1  0.33177567  0.15012355  0.87472349  1
  La  La45  1  0.83471297  0.01719971  0.12210552  1
  La  La46  1  0.00115765  0.15721919  0.86877144  1
  La  La47  1  0.84067932  0.66542855  0.12467297  1
  La  La48  1  0.48962021  0.35260505  0.12431129  1
  La  La49  1  -0.00688242  0.81780227  0.86853371  1
  La  La50  1  0.17471909  0.98027426  0.36931591  1
  La  La51  1  0.33583114  0.51518698  0.12585748  1
  La  La52  1  0.33346557  0.51188941  0.62652061  1
  La  La53  1  0.67010181  0.18192010  0.12620273  1
  La  La54  1  0.66346670  0.15720989  0.37695120  1
  La  La55  1  0.66521875  0.51140659  0.62455741  1
  La  La56  1  0.66956771  0.52238288  0.12270236  1
  La  La57  1  0.16553664  0.67680195  0.12946695  1
  La  La58  1  0.32748934  0.48822012  0.37454678  1
  La  La59  1  0.50483457  0.31429687  0.87822091  1
  La  La60  1  0.49153076  0.34363278  0.62931156  1
  La  La61  1  0.17247091  0.31750512  0.87802954  1
  La  La62  1  0.16673286  0.01190823  0.12681302  1
  La  La63  1  0.66425277  0.15876478  0.87292314  1
  La  La64  1  0.83909781  0.65387365  0.37952034  1
  La  La65  1  0.82936163  0.68257750  0.62963174  1
  La  La66  1  0.17192901  0.65266644  0.87326112  1
  La  La67  1  0.33511926  0.84674109  0.62513212  1
  La  La68  1  0.15821726  0.01312271  0.62188535  1
  La  La69  1  -0.00255744  0.48497682  0.37600660  1
  La  La70  1  -0.00322586  0.81842048  0.37700266  1
  La  La71  1  0.49502165  0.01919622  0.12601969  1
  In  In72  1  0.16566887  0.83583342  0.75082965  1
  In  In73  1  0.66003773  0.33520880  0.49936444  1
  In  In74  1  0.83114409  0.16678043  -0.00504000  1
  In  In75  1  0.49551245  0.49552653  0.75222994  1
  In  In76  1  0.83411861  0.83358164  -0.00279917  1
  In  In77  1  0.66689141  0.67473839  0.25202940  1
  In  In78  1  0.82920736  0.16667771  0.25304307  1
  In  In79  1  0.66261541  0.33581977  0.00458763  1
  In  In80  1  0.00108105  -0.00609502  0.24963768  1
  In  In81  1  0.33075463  0.33342120  0.50266621  1
  In  In82  1  0.00260726  0.66273812  0.50139849  1
  In  In83  1  0.00344360  -0.00009143  0.49451826  1
  In  In84  1  0.83106110  0.50023564  0.74925454  1
  In  In85  1  0.33159287  0.66549204  0.50130508  1
  In  In86  1  0.83285894  0.83354195  0.49905774  1
  In  In87  1  0.49930566  0.83397384  0.75288926  1
  In  In88  1  0.49850293  0.16938791  0.50211160  1
  In  In89  1  0.16936818  0.83271193  0.00000183  1
  In  In90  1  0.66875349  0.67150011  0.50123648  1
  In  In91  1  0.17134942  0.16497732  -0.00105086  1
  In  In92  1  0.00267097  0.33090264  0.74942888  1
  In  In93  1  0.83244392  0.50140720  0.50067478  1
  In  In94  1  0.00101797  0.33208327  0.25010177  1
  In  In95  1  0.83003209  0.50016814  0.25017884  1
  In  In96  1  0.66353305  0.00240500  0.24526640  1
  In  In97  1  0.16945590  0.16422943  0.24851466  1
  In  In98  1  0.00007328  -0.00416589  0.00011107  1
  In  In99  1  0.83297996  0.49832390  -0.00100871  1
  In  In100  1  0.33601219  0.66850692  0.00021080  1
  In  In101  1  0.66046100  0.33281250  0.74789631  1
  In  In102  1  0.66551021  0.66593627  0.74955519  1
  In  In103  1  0.50006186  0.83425706  0.50400468  1
  In  In104  1  0.00430144  0.32945979  -0.00416187  1
  In  In105  1  0.00637737  0.66420009  0.00009665  1
  In  In106  1  0.83298859  0.83337410  0.24808566  1
  In  In107  1  0.32983025  0.00133771  0.50243757  1
  Ir  Ir108  1  0.49936564  0.16422100  0.00068259  1
  Ir  Ir109  1  0.33400123  -0.00434431  0.24488655  1
  Ir  Ir110  1  0.50097292  0.83726729  0.00275233  1
  Ir  Ir111  1  0.16720975  0.49389521  0.49765843  1
  Ir  Ir112  1  0.00278183  0.00448999  0.74757311  1
  Ir  Ir113  1  0.00579628  0.33197536  0.49933524  1
  Ir  Ir114  1  0.32991996  0.33080875  0.75288140  1
  Ir  Ir115  1  0.33008308  0.66519198  0.75023502  1
  Ir  Ir116  1  0.49818929  0.16852871  0.24499918  1
  Ir  Ir117  1  0.66161233  0.67316664  0.00334509  1
  Ir  Ir118  1  0.65477188  0.33455542  0.24736805  1
  Ir  Ir119  1  0.17150141  0.16575831  0.74713297  1
  Ir  Ir120  1  0.49936706  0.49874670  0.00625426  1
  Ir  Ir121  1  0.66908596  0.00576588  0.50318012  1
  Ir  Ir122  1  0.33966204  0.33512339  -0.00303010  1
  Ir  Ir123  1  0.65962265  0.00033420  0.00018015  1
  Ir  Ir124  1  0.00297437  0.66820592  0.75096454  1
  Ir  Ir125  1  0.83210728  0.16899306  0.50124433  1
  Ir  Ir126  1  0.67049611  0.00311651  0.75556558  1
  Ir  Ir127  1  0.83375046  0.83713514  0.75045175  1
  Ir  Ir128  1  0.17119533  0.49931401  0.75226700  1
  Ir  Ir129  1  0.49572805  0.16502801  0.75608967  1
  Ir  Ir130  1  0.17389785  0.82876467  0.24843678  1
  Ir  Ir131  1  0.33019367  -0.00048075  0.75499726  1
  Ir  Ir132  1  0.16915871  0.16687473  0.50126130  1
  Ir  Ir133  1  0.33265207  0.66450948  0.24916697  1
  Ir  Ir134  1  0.33892503  -0.00287269  -0.00081775  1
  Ir  Ir135  1  0.16755609  0.83417460  0.49815741  1
  Ir  Ir136  1  0.33669396  0.33926424  0.24881064  1
  Ir  Ir137  1  0.83207878  0.16539386  0.74763851  1
  Ir  Ir138  1  0.17522039  0.49876230  0.00094584  1
  Ir  Ir139  1  0.49530395  0.49955033  0.25077740  1
  Ir  Ir140  1  0.49871396  0.83603571  0.24555211  1
  Ir  Ir141  1  0.00558511  0.66482342  0.25351986  1
  Ir  Ir142  1  0.49384199  0.49548619  0.49858815  1
  Ir  Ir143  1  0.17083717  0.50080321  0.25189088  1
  O  O144  1  0.31682531  0.34090359  0.12165091  1
  O  O145  1  0.29738049  0.32867883  0.63367539  1
  O  O146  1  0.30567076  0.65923135  0.12853386  1
  O  O147  1  0.30914693  0.65056794  0.63103102  1
  O  O148  1  0.30564374  0.98674092  0.12055230  1
  O  O149  1  0.29699608  0.99034434  0.63543212  1
  O  O150  1  0.62296433  0.31850089  0.13054797  1
  O  O151  1  0.62468371  0.32426954  0.62341531  1
  O  O152  1  0.64584262  0.66842987  0.12172469  1
  O  O153  1  0.64552755  0.64699397  0.62381933  1
  O  O154  1  0.63021199  0.98579759  0.11700526  1
  O  O155  1  0.64877525  0.99361623  0.63105900  1
  O  O156  1  0.98979525  0.33063255  0.12330451  1
  O  O157  1  0.98973721  0.33060473  0.61894736  1
  O  O158  1  0.97849843  0.66041502  0.13475380  1
  O  O159  1  0.97115453  0.66649999  0.63080179  1
  O  O160  1  0.96554300  0.98668454  0.12515833  1
  O  O161  1  0.98951803  1.00144620  0.62670512  1
  O  O162  1  0.19451918  0.15254099  0.12364784  1
  O  O163  1  0.19260030  0.14940477  0.62398164  1
  O  O164  1  0.20236791  0.49642349  0.12610828  1
  O  O165  1  0.19939118  0.48609771  0.62402771  1
  O  O166  1  0.20731472  0.81688298  0.13030765  1
  O  O167  1  0.19707048  0.83356687  0.61995963  1
  O  O168  1  0.53002987  0.16094323  0.12225532  1
  O  O169  1  0.51213405  0.16658860  0.63547222  1
  O  O170  1  0.52922979  0.48918837  0.12909571  1
  O  O171  1  0.52442944  0.48225705  0.61774514  1
  O  O172  1  0.53150536  0.83443652  0.12289311  1
  O  O173  1  0.53398238  0.83577757  0.63044424  1
  O  O174  1  0.83909936  0.15565401  0.12423726  1
  O  O175  1  0.85512703  0.16974555  0.62552350  1
  O  O176  1  0.85040882  0.51087651  0.12632802  1
  O  O177  1  0.85257780  0.49631885  0.62397831  1
  O  O178  1  0.84895593  0.80705010  0.12172441  1
  O  O179  1  0.85601996  0.83166331  0.63194373  1
  O  O180  1  0.15305972  0.17868427  0.38113104  1
  O  O181  1  0.14175403  0.17406599  0.86526053  1
  O  O182  1  0.13748018  0.49988332  0.37595742  1
  O  O183  1  0.15068058  0.51453733  0.87796152  1
  O  O184  1  0.13807937  0.84239515  0.37360108  1
  O  O185  1  0.13042810  0.83917190  0.87517340  1
  O  O186  1  0.47659889  0.17338636  0.36515937  1
  O  O187  1  0.46707892  0.17263389  0.87973459  1
  O  O188  1  0.46202306  0.50294429  0.37383275  1
  O  O189  1  0.48297291  0.50069887  0.88550128  1
  O  O190  1  0.48187431  0.84273303  0.36594089  1
  O  O191  1  0.46804326  0.83656947  0.88266086  1
  O  O192  1  0.80053730  0.16718159  0.38236178  1
  O  O193  1  0.80212941  0.16413566  0.86631877  1
  O  O194  1  0.80900259  0.51414105  0.37396654  1
  O  O195  1  0.80729670  0.50208635  0.87480662  1
  O  O196  1  0.81099698  0.83248201  0.37372933  1
  O  O197  1  0.80094237  0.83564346  0.86921212  1
  O  O198  1  0.04074097  0.00324859  0.37263365  1
  O  O199  1  0.01622626  0.01732576  0.86705138  1
  O  O200  1  0.03387607  0.34078576  0.38166109  1
  O  O201  1  0.03871791  0.32979888  0.86984264  1
  O  O202  1  0.02609064  0.68054180  0.37063039  1
  O  O203  1  0.03710718  0.67658564  0.87055035  1
  O  O204  1  0.34972500  -0.00342107  0.36584013  1
  O  O205  1  0.35843950  0.01154716  0.87719106  1
  O  O206  1  0.36313460  0.34592433  0.36947690  1
  O  O207  1  0.36785893  0.33369722  0.87438279  1
  O  O208  1  0.34980424  0.66091991  0.37029886  1
  O  O209  1  0.35648812  0.67573627  0.86904307  1
  O  O210  1  0.67999550  0.01421585  0.38000329  1
  O  O211  1  0.68600627  0.01958012  0.87918473  1
  O  O212  1  0.67792973  0.33953845  0.36488153  1
  O  O213  1  0.67477465  0.33180022  0.87626297  1
  O  O214  1  0.69913389  0.66814709  0.37584618  1
  O  O215  1  0.67895310  0.67388478  0.88318568  1
  O  O216  1  0.07626727  0.09042976  0.00941560  1
  O  O217  1  0.08216307  0.09532318  0.51655841  1
  O  O218  1  0.08668742  0.43227438  0.01126752  1
  O  O219  1  0.07624557  0.42301823  0.52225936  1
  O  O220  1  0.08810927  0.74783203  0.03187778  1
  O  O221  1  0.07682556  0.76411737  0.51102722  1
  O  O222  1  0.40660810  0.09229803  0.02212621  1
  O  O223  1  0.40854222  0.09127256  0.51047171  1
  O  O224  1  0.40355641  0.43287159  0.02764981  1
  O  O225  1  0.39756271  0.43393532  0.52541462  1
  O  O226  1  0.40547691  0.77160110  0.02363826  1
  O  O227  1  0.39984409  0.76137864  0.52827415  1
  O  O228  1  0.71901102  0.09523748  0.02227498  1
  O  O229  1  0.74136837  0.09797983  0.51869241  1
  O  O230  1  0.72758619  0.43546466  0.02944829  1
  O  O231  1  0.72747314  0.43360351  0.51906215  1
  O  O232  1  0.72236759  0.77154397  0.00918357  1
  O  O233  1  0.73797503  0.76799261  0.54027161  1
  O  O234  1  0.10880812  0.26559096  0.00542057  1
  O  O235  1  0.10636064  0.26656659  0.51973497  1
  O  O236  1  0.11290603  0.59398605  0.01926945  1
  O  O237  1  0.09866106  0.58370170  0.51837111  1
  O  O238  1  0.10530333  0.93086284  0.03014943  1
  O  O239  1  0.10451405  0.92833573  0.51936738  1
  O  O240  1  0.43947149  0.26887739  0.01665874  1
  O  O241  1  0.43191624  0.27058827  0.51883726  1
  O  O242  1  0.42797637  0.58841830  0.02279777  1
  O  O243  1  0.42498695  0.58458749  0.52245724  1
  O  O244  1  0.43315426  0.92998356  0.02991192  1
  O  O245  1  0.41481970  0.91892514  0.52723843  1
  O  O246  1  0.75181316  0.25600679  0.02276184  1
  O  O247  1  0.75876270  0.25658911  0.51366701  1
  O  O248  1  0.75496327  0.60773420  0.02622123  1
  O  O249  1  0.77617635  0.61044143  0.51938426  1
  O  O250  1  0.75537017  0.93578272  0.02368234  1
  O  O251  1  0.75353801  0.93080777  0.51894040  1
  O  O252  1  0.23926201  0.06065406  0.26762656  1
  O  O253  1  0.24352367  0.07698707  0.77766440  1
  O  O254  1  0.24135213  0.40709052  0.28017914  1
  O  O255  1  0.23452166  0.39857620  0.77508888  1
  O  O256  1  0.23961293  0.73191486  0.26706911  1
  O  O257  1  0.24106783  0.73770653  0.77545519  1
  O  O258  1  0.56248984  0.07490856  0.25769463  1
  O  O259  1  0.57898785  0.08078168  0.77919084  1
  O  O260  1  0.55567587  0.39976610  0.26974124  1
  O  O261  1  0.55053965  0.38979773  0.76667588  1
  O  O262  1  0.56354114  0.74519923  0.26506744  1
  O  O263  1  0.57914317  0.74721231  0.77607143  1
  O  O264  1  0.89980078  0.06667600  0.25891390  1
  O  O265  1  0.91042942  0.07849053  0.76973829  1
  O  O266  1  0.91452080  0.41544084  0.27399281  1
  O  O267  1  0.91194476  0.40757582  0.76305269  1
  O  O268  1  0.90908420  0.72687611  0.27219359  1
  O  O269  1  0.91029791  0.74444537  0.77385414  1
  O  O270  1  0.26508257  0.25055095  0.26710306  1
  O  O271  1  0.26321814  0.23582100  0.78083054  1
  O  O272  1  0.27069132  0.56380167  0.26713025  1
  O  O273  1  0.25800329  0.57627597  0.77449739  1
  O  O274  1  0.26577856  0.90085341  0.26719503  1
  O  O275  1  0.26826187  0.90339961  0.77693732  1
  O  O276  1  0.59160238  0.23536213  0.27502602  1
  O  O277  1  0.58569489  0.23242550  0.78038068  1
  O  O278  1  0.58579129  0.57169440  0.25814469  1
  O  O279  1  0.59169285  0.56710032  0.75750815  1
  O  O280  1  0.58908135  0.90494401  0.25971400  1
  O  O281  1  0.60362271  0.90981139  0.77522906  1
  O  O282  1  0.91928049  0.24375458  0.26553965  1
  O  O283  1  0.92655722  0.23095832  0.76912747  1
  O  O284  1  0.93876284  0.57595123  0.27925461  1
  O  O285  1  0.93277433  0.58360237  0.76979371  1
  O  O286  1  0.93963467  0.89080871  0.27409899  1
  O  O287  1  0.93413742  0.90742007  0.77186351  1
  O  O288  1  0.25799383  0.23707370  0.48332688  1
  O  O289  1  0.27430141  0.24102642  0.97016352  1
  O  O290  1  0.26293289  0.55901748  0.48224928  1
  O  O291  1  0.26509410  0.56795397  0.98892108  1
  O  O292  1  0.25357149  0.90671715  0.47837582  1
  O  O293  1  0.27816982  0.90022940  0.97882365  1
  O  O294  1  0.59042237  0.24056691  0.46447877  1
  O  O295  1  0.59090949  0.22862437  0.97577711  1
  O  O296  1  0.58555178  0.56255299  0.48721248  1
  O  O297  1  0.59804892  0.56794717  0.99882505  1
  O  O298  1  0.59436284  0.92073707  0.49281065  1
  O  O299  1  0.59883817  0.90012067  0.97452033  1
  O  O300  1  0.92922342  0.24227366  0.47895304  1
  O  O301  1  0.93452161  0.22804628  0.96850965  1
  O  O302  1  0.93417782  0.56894069  0.46746050  1
  O  O303  1  0.92701980  0.57729961  0.98788938  1
  O  O304  1  0.93403019  0.90203848  0.47709223  1
  O  O305  1  0.93458441  0.89843414  0.96771090  1
  O  O306  1  0.22997087  0.06945652  0.47899663  1
  O  O307  1  0.25176356  0.07064094  0.97934689  1
  O  O308  1  0.23447194  0.40321503  0.47121433  1
  O  O309  1  0.24064585  0.39868455  0.97601825  1
  O  O310  1  0.23623754  0.74369495  0.48403260  1
  O  O311  1  0.24398616  0.73979022  0.96483622  1
  O  O312  1  0.58482869  0.08228555  0.48780882  1
  O  O313  1  0.56043562  0.06444301  0.99063886  1
  O  O314  1  0.55200057  0.40030307  0.47420649  1
  O  O315  1  0.55602975  0.39904165  0.98859848  1
  O  O316  1  0.57161758  0.74137198  0.48220313  1
  O  O317  1  0.56862773  0.74558526  0.97840448  1
  O  O318  1  0.90700504  0.08227757  0.48480649  1
  O  O319  1  0.89663418  0.06505855  0.99463974  1
  O  O320  1  0.91821722  0.40456340  0.47795578  1
  O  O321  1  0.90857939  0.40306835  0.98445424  1
  O  O322  1  0.90568516  0.73465412  0.47777243  1
  O  O323  1  0.91625371  0.74380335  0.97662603  1
  O  O324  1  0.09969474  0.26142525  0.24883444  1
  O  O325  1  0.10741244  0.25882480  0.72344409  1
  O  O326  1  0.10410403  0.59728438  0.22723985  1
  O  O327  1  0.09954164  0.59783583  0.73780248  1
  O  O328  1  0.11337766  0.92372277  0.22731232  1
  O  O329  1  0.09633219  0.93707659  0.72729313  1
  O  O330  1  0.43441015  0.27198933  0.22859179  1
  O  O331  1  0.42799093  0.26405033  0.73321325  1
  O  O332  1  0.42205349  0.59014839  0.22361926  1
  O  O333  1  0.41531113  0.58738231  0.73037359  1
  O  O334  1  0.42854140  0.92752553  0.21628534  1
  O  O335  1  0.41615718  0.92498414  0.73027713  1
  O  O336  1  0.74381695  0.26606099  0.22808156  1
  O  O337  1  0.75901697  0.25283952  0.73301099  1
  O  O338  1  0.76273062  0.60260565  0.22422802  1
  O  O339  1  0.76747209  0.60451227  0.72694985  1
  O  O340  1  0.76351152  0.93728720  0.21838517  1
  O  O341  1  0.75894518  0.92711749  0.72705824  1
  O  O342  1  0.08069709  0.08384013  0.22175241  1
  O  O343  1  0.07806257  0.09463908  0.72511250  1
  O  O344  1  0.08076912  0.43378306  0.24194544  1
  O  O345  1  0.08766999  0.42489410  0.72939167  1
  O  O346  1  0.08191958  0.75610072  0.22784598  1
  O  O347  1  0.07177799  0.75803855  0.73245659  1
  O  O348  1  0.40604625  0.09054199  0.22043229  1
  O  O349  1  0.40042758  0.09410205  0.74072115  1
  O  O350  1  0.40116152  0.43404806  0.22558309  1
  O  O351  1  0.39403529  0.42316118  0.72139357  1
  O  O352  1  0.39877973  0.76496011  0.22607579  1
  O  O353  1  0.39483928  0.76109803  0.72882330  1
  O  O354  1  0.72114940  0.10751761  0.23664797  1
  O  O355  1  0.74005741  0.09412004  0.73318867  1
  O  O356  1  0.71973341  0.42828354  0.22281589  1
  O  O357  1  0.72537420  0.43267006  0.72468174  1
  O  O358  1  0.72611894  0.77592106  0.22683171  1
  O  O359  1  0.74120592  0.76928202  0.72864557  1
