# generated using pymatgen
data_BaLaInIrO6
_symmetry_space_group_name_H-M   'P 1'
_cell_length_a   17.55586014
_cell_length_b   17.58258016
_cell_length_c   16.49415958
_cell_angle_alpha   90.05415709
_cell_angle_beta   89.98895028
_cell_angle_gamma   90.02724616
_symmetry_Int_Tables_number   1
_chemical_formula_structural   BaLaInIrO6
_chemical_formula_sum   'Ba36 La36 In36 Ir36 O216'
_cell_volume   5091.36999952
_cell_formula_units_Z   36
loop_
 _symmetry_equiv_pos_site_id
 _symmetry_equiv_pos_as_xyz
  1  'x, y, z'
loop_
 _atom_site_type_symbol
 _atom_site_label
 _atom_site_symmetry_multiplicity
 _atom_site_fract_x
 _atom_site_fract_y
 _atom_site_fract_z
 _atom_site_occupancy
  Ba  Ba0  1  0.83320732  0.67587177  0.12699533  1
  Ba  Ba1  1  0.16785982  0.32119131  0.87232593  1
  Ba  Ba2  1  0.00107577  0.15693328  0.87593426  1
  Ba  Ba3  1  0.83282227  0.00989344  0.12888797  1
  Ba  Ba4  1  0.66414989  0.17337921  0.62400964  1
  Ba  Ba5  1  0.66855503  0.15757833  0.37672336  1
  Ba  Ba6  1  0.49838227  0.32664781  0.37721329  1
  Ba  Ba7  1  0.16573367  0.34091065  0.12185857  1
  Ba  Ba8  1  0.33137152  0.82668540  0.87635599  1
  Ba  Ba9  1  0.16885248  0.65711637  0.87512785  1
  Ba  Ba10  1  0.16424276  0.67013659  0.12539002  1
  Ba  Ba11  1  0.83167126  0.66272192  0.87494329  1
  Ba  Ba12  1  0.16484823  0.68009489  0.62321035  1
  Ba  Ba13  1  0.50208517  0.98857140  0.87443992  1
  Ba  Ba14  1  0.67058760  0.17459626  0.12334773  1
  Ba  Ba15  1  0.49852509  0.67735033  0.62417073  1
  Ba  Ba16  1  0.33625475  0.84027627  0.12760382  1
  Ba  Ba17  1  0.16975917  0.99363415  0.88088311  1
  Ba  Ba18  1  0.33827429  0.17314357  0.12073544  1
  Ba  Ba19  1  0.49796854  0.00465610  0.62329565  1
  Ba  Ba20  1  0.50224063  0.34182891  0.62358857  1
  Ba  Ba21  1  -0.00374207  0.82631791  0.37383651  1
  Ba  Ba22  1  0.16843398  0.00597388  0.12540124  1
  Ba  Ba23  1  0.83195795  0.34316680  0.62262687  1
  Ba  Ba24  1  0.49907276  0.34138231  0.12624185  1
  Ba  Ba25  1  0.83890062  0.32075638  0.87442751  1
  Ba  Ba26  1  0.66320292  0.49415083  0.37426649  1
  Ba  Ba27  1  0.33644847  0.84119884  0.62814280  1
  Ba  Ba28  1  0.67007084  0.84243567  0.13025133  1
  Ba  Ba29  1  -0.00209636  0.15818865  0.37247580  1
  Ba  Ba30  1  0.33336137  0.82331809  0.37459231  1
  Ba  Ba31  1  0.83441517  0.99275906  0.87905439  1
  Ba  Ba32  1  1.00468487  0.17429427  0.12412566  1
  Ba  Ba33  1  0.66664851  0.84474608  0.62528197  1
  Ba  Ba34  1  0.66508358  0.82407529  0.37529198  1
  Ba  Ba35  1  0.33036120  0.15588440  0.87306111  1
  La  La36  1  0.65954078  0.48875703  0.86858132  1
  La  La37  1  0.82757247  0.01403336  0.62276835  1
  La  La38  1  0.50508799  0.98835266  0.37144569  1
  La  La39  1  0.83379323  0.31670582  0.37155037  1
  La  La40  1  1.00118058  0.50528909  0.11856824  1
  La  La41  1  -0.00160916  0.82282978  0.87816227  1
  La  La42  1  1.00375094  0.18306262  0.62764282  1
  La  La43  1  0.33545547  0.51539234  0.62618781  1
  La  La44  1  0.16234046  0.35324683  0.62767676  1
  La  La45  1  0.16742617  0.64475984  0.37332090  1
  La  La46  1  0.33512801  0.49105866  0.37835849  1
  La  La47  1  0.83315918  0.65176556  0.37415404  1
  La  La48  1  1.00353651  0.85081664  0.62572746  1
  La  La49  1  0.49207047  0.01495525  0.12938421  1
  La  La50  1  0.16913918  0.98223180  0.37324397  1
  La  La51  1  0.66387580  0.14885399  0.87208912  1
  La  La52  1  0.50470078  0.65508152  0.37504868  1
  La  La53  1  0.50171856  0.65856996  0.87081722  1
  La  La54  1  0.32756272  0.14963875  0.37826808  1
  La  La55  1  -0.00743764  0.48793015  0.37186264  1
  La  La56  1  0.66269165  0.81820088  0.87410671  1
  La  La57  1  0.49610963  0.67703839  0.12752919  1
  La  La58  1  1.00696627  0.84599048  0.12091063  1
  La  La59  1  1.00521452  0.51643554  0.63040100  1
  La  La60  1  -0.00335622  0.48646833  0.87587377  1
  La  La61  1  0.33051638  0.50730801  0.12607888  1
  La  La62  1  0.83310450  0.98781002  0.37307637  1
  La  La63  1  0.16427452  0.01308612  0.62647387  1
  La  La64  1  0.33124636  0.49285520  0.87732453  1
  La  La65  1  0.67301028  0.51508191  0.12980362  1
  La  La66  1  0.50457582  0.31526751  0.87495816  1
  La  La67  1  0.34047625  0.18242903  0.62668095  1
  La  La68  1  0.82873187  0.68095521  0.62358808  1
  La  La69  1  0.82891288  0.34643124  0.12520347  1
  La  La70  1  0.66752145  0.50974355  0.62401606  1
  La  La71  1  0.17186374  0.31718799  0.37846175  1
  In  In72  1  0.16644601  0.16636702  0.25163298  1
  In  In73  1  0.32952317  0.66740656  0.49767226  1
  In  In74  1  0.50085656  0.16949450  0.25289827  1
  In  In75  1  0.50091924  0.50035410  0.24675852  1
  In  In76  1  0.00135496  0.00338143  0.50089236  1
  In  In77  1  0.66844229  0.33563241  0.49720310  1
  In  In78  1  0.49839893  0.16493897  0.49733257  1
  In  In79  1  0.00080685  -0.00059299  -0.00236629  1
  In  In80  1  0.16313219  0.83502572  0.75095313  1
  In  In81  1  0.66754674  0.66646276  0.49888170  1
  In  In82  1  0.66866017  0.33533171  -0.00214295  1
  In  In83  1  0.33033845  0.33471317  0.25151135  1
  In  In84  1  0.00014869  0.66943288  0.49969105  1
  In  In85  1  0.33215533  0.66747515  0.75289193  1
  In  In86  1  0.33554380  -0.00441640  -0.00042018  1
  In  In87  1  0.50459845  0.16570111  -0.00164539  1
  In  In88  1  0.00025308  0.33390285  0.75003873  1
  In  In89  1  -0.00052370  0.66594550  0.25169560  1
  In  In90  1  -0.00040292  0.66383684  -0.00163746  1
  In  In91  1  0.33276557  -0.00324839  0.25307691  1
  In  In92  1  0.49846164  0.83424381  0.49974089  1
  In  In93  1  0.83678670  0.16524367  0.49970695  1
  In  In94  1  0.83393361  0.83493871  0.74892580  1
  In  In95  1  0.83166286  0.83228912  0.00186588  1
  In  In96  1  0.83211525  0.50409406  0.74849738  1
  In  In97  1  0.49920966  0.16352288  0.74808404  1
  In  In98  1  -0.00069260  0.00005152  0.25133824  1
  In  In99  1  0.66563123  -0.00488399  0.00334710  1
  In  In100  1  0.33380201  0.33843023  0.74779872  1
  In  In101  1  0.67046642  0.33259973  0.75002296  1
  In  In102  1  0.00209276  0.33566365  0.49864290  1
  In  In103  1  0.33566452  0.33823578  -0.00100562  1
  In  In104  1  0.50077019  0.50195968  -0.00144124  1
  In  In105  1  0.33306572  0.66537001  0.25051903  1
  In  In106  1  0.82925256  0.50159287  -0.00287470  1
  In  In107  1  -0.00040222  0.33229717  0.00219318  1
  Ir  Ir108  1  0.66987093  -0.00239206  0.49929252  1
  Ir  Ir109  1  0.16168753  0.49583655  0.25470121  1
  Ir  Ir110  1  0.16988546  0.16693053  -0.00224459  1
  Ir  Ir111  1  0.50297887  0.82578443  0.00044519  1
  Ir  Ir112  1  0.67087560  0.33594530  0.24859652  1
  Ir  Ir113  1  0.66151245  0.66522392  -0.00162423  1
  Ir  Ir114  1  0.17094877  0.16823020  0.50578615  1
  Ir  Ir115  1  0.16380031  0.49811725  0.50117441  1
  Ir  Ir116  1  0.83138741  0.83193151  0.25662178  1
  Ir  Ir117  1  0.16568820  0.50228234  0.74979085  1
  Ir  Ir118  1  0.50510208  0.83326071  0.24751715  1
  Ir  Ir119  1  0.16779304  0.50151038  -0.00170667  1
  Ir  Ir120  1  -0.00128060  0.00035281  0.74679320  1
  Ir  Ir121  1  0.17051217  0.16293221  0.74400543  1
  Ir  Ir122  1  0.50257805  0.83364933  0.75480479  1
  Ir  Ir123  1  0.49711189  0.50367524  0.74818946  1
  Ir  Ir124  1  0.83335606  0.16823197  0.00149637  1
  Ir  Ir125  1  0.16643086  0.82858182  0.00533022  1
  Ir  Ir126  1  -0.00215221  0.33889329  0.25207185  1
  Ir  Ir127  1  0.32668589  0.00062392  0.50089842  1
  Ir  Ir128  1  0.66632177  -0.00141194  0.25432071  1
  Ir  Ir129  1  0.49577918  0.50028979  0.50409134  1
  Ir  Ir130  1  0.32577880  0.33600158  0.50190499  1
  Ir  Ir131  1  0.66745116  0.66691850  0.24936785  1
  Ir  Ir132  1  0.83728335  0.16024198  0.75138526  1
  Ir  Ir133  1  0.83679090  0.50221599  0.49703985  1
  Ir  Ir134  1  0.66567844  0.66578244  0.74908576  1
  Ir  Ir135  1  0.16426371  0.83632910  0.49811695  1
  Ir  Ir136  1  0.83541853  0.83180304  0.50013844  1
  Ir  Ir137  1  0.67159163  -0.00126642  0.74598079  1
  Ir  Ir138  1  -0.00095548  0.66732697  0.74848389  1
  Ir  Ir139  1  0.33675009  0.66681568  0.00188206  1
  Ir  Ir140  1  0.16291852  0.82894471  0.25090334  1
  Ir  Ir141  1  0.83328654  0.49822687  0.25457630  1
  Ir  Ir142  1  0.83244571  0.16966101  0.24749482  1
  Ir  Ir143  1  0.32887099  -0.00186366  0.74582606  1
  O  O144  1  0.31454222  0.34499911  0.12498234  1
  O  O145  1  0.29657886  0.32463847  0.62043038  1
  O  O146  1  0.31302460  0.65324062  0.12155571  1
  O  O147  1  0.31238988  0.65319361  0.62455680  1
  O  O148  1  0.31981199  0.99540312  0.12676257  1
  O  O149  1  0.29744703  0.99314316  0.62143489  1
  O  O150  1  0.64877036  0.33085456  0.13043816  1
  O  O151  1  0.65387033  0.33438835  0.62432864  1
  O  O152  1  0.63343998  0.65609923  0.12227758  1
  O  O153  1  0.64738046  0.65202425  0.62780778  1
  O  O154  1  0.63223196  0.99928244  0.13451656  1
  O  O155  1  0.64840172  1.00083353  0.62262594  1
  O  O156  1  0.96855161  0.33919618  0.13279540  1
  O  O157  1  0.98448280  0.32384881  0.62515074  1
  O  O158  1  0.98172373  0.64204356  0.12742862  1
  O  O159  1  0.96871108  0.65301729  0.62691366  1
  O  O160  1  0.98292717  0.98304273  0.12517989  1
  O  O161  1  0.96754721  0.99142960  0.62822332  1
  O  O162  1  0.18589212  0.17130094  0.11901137  1
  O  O163  1  0.20379112  0.15353137  0.62400544  1
  O  O164  1  0.19554466  0.49737999  0.12776240  1
  O  O165  1  0.19805046  0.49440524  0.62410812  1
  O  O166  1  0.18920032  0.82453387  0.12950622  1
  O  O167  1  0.18430840  0.83505675  0.61638535  1
  O  O168  1  0.52129454  0.15398851  0.12682745  1
  O  O169  1  0.51094575  0.16203557  0.62225496  1
  O  O170  1  0.53779123  0.49841252  0.12282487  1
  O  O171  1  0.53036824  0.49673986  0.62676028  1
  O  O172  1  0.52523790  0.81323795  0.12302062  1
  O  O173  1  0.51710492  0.83678620  0.63313694  1
  O  O174  1  0.85534005  0.16887150  0.12403966  1
  O  O175  1  0.86649258  0.15128283  0.63018834  1
  O  O176  1  0.86446609  0.49098518  0.13513539  1
  O  O177  1  0.86891670  0.49964517  0.61563743  1
  O  O178  1  0.86352636  0.82893660  0.13747010  1
  O  O179  1  0.86526886  0.81808363  0.62009401  1
  O  O180  1  0.14491252  0.17967365  0.38843597  1
  O  O181  1  0.14925701  0.16294692  0.86764805  1
  O  O182  1  0.12919642  0.50406458  0.37753595  1
  O  O183  1  0.13275479  0.50279976  0.87277893  1
  O  O184  1  0.14215705  0.84485550  0.37455713  1
  O  O185  1  0.13563303  0.83364646  0.88353806  1
  O  O186  1  0.46317714  0.16374812  0.37721593  1
  O  O187  1  0.47902403  0.17421242  0.87151231  1
  O  O188  1  0.47095352  0.51162550  0.38129856  1
  O  O189  1  0.46739954  0.51828930  0.86727402  1
  O  O190  1  0.48463843  0.84822924  0.36741843  1
  O  O191  1  0.48118603  0.82705094  0.87863089  1
  O  O192  1  0.81788653  0.17771217  0.36748338  1
  O  O193  1  0.80425583  0.16569897  0.87566802  1
  O  O194  1  0.80879969  0.51288638  0.37707154  1
  O  O195  1  0.79407478  0.51026532  0.87326466  1
  O  O196  1  0.81042057  0.84800500  0.38027909  1
  O  O197  1  0.80034315  0.83333919  0.87231345  1
  O  O198  1  0.03323023  -0.00066193  0.37705964  1
  O  O199  1  0.02079867  -0.00074679  0.86579947  1
  O  O200  1  0.03290515  0.34762734  0.37266898  1
  O  O201  1  0.01956998  0.34582828  0.87458415  1
  O  O202  1  0.03468303  0.67090684  0.37610087  1
  O  O203  1  0.02127124  0.68410403  0.86738477  1
  O  O204  1  0.36122608  0.00768024  0.38272388  1
  O  O205  1  0.34810815  -0.00044240  0.86717926  1
  O  O206  1  0.34678591  0.35395192  0.38408733  1
  O  O207  1  0.36637130  0.35544173  0.87133029  1
  O  O208  1  0.36720298  0.65761445  0.37403187  1
  O  O209  1  0.36325162  0.66625339  0.88147404  1
  O  O210  1  0.69911925  -0.00176924  0.37756569  1
  O  O211  1  0.68779984  0.00213838  0.86496187  1
  O  O212  1  0.70083112  0.34278261  0.36732641  1
  O  O213  1  0.69507987  0.35741811  0.87252577  1
  O  O214  1  0.69770770  0.66472144  0.37024663  1
  O  O215  1  0.68447168  0.67999941  0.87467834  1
  O  O216  1  0.08395590  0.08963672  0.01100264  1
  O  O217  1  0.07632489  0.10238048  0.53441920  1
  O  O218  1  0.07386888  0.43385717  0.01999293  1
  O  O219  1  0.07179063  0.43280738  0.53282161  1
  O  O220  1  0.07244543  0.76220577  0.02317401  1
  O  O221  1  0.06765413  0.77231401  0.52442144  1
  O  O222  1  0.41927664  0.08017268  0.01831532  1
  O  O223  1  0.38671011  0.09665126  0.52077207  1
  O  O224  1  0.39568945  0.44688243  0.01879814  1
  O  O225  1  0.39171527  0.43354497  0.52284597  1
  O  O226  1  0.40834511  0.75682272  0.02510804  1
  O  O227  1  0.40564220  0.75940222  0.51179093  1
  O  O228  1  0.74497909  0.09792192  0.00875730  1
  O  O229  1  0.74213565  0.08591290  0.51918440  1
  O  O230  1  0.73861480  0.42996874  0.03669692  1
  O  O231  1  0.74108174  0.44156657  0.52160081  1
  O  O232  1  0.73120465  0.75423001  0.01527910  1
  O  O233  1  0.74631578  0.76063825  0.52006744  1
  O  O234  1  0.09350540  0.25295779  0.00886425  1
  O  O235  1  0.11032081  0.26554064  0.52688004  1
  O  O236  1  0.09382743  0.58574324  0.01623595  1
  O  O237  1  0.09404775  0.58846526  0.52035505  1
  O  O238  1  0.09345164  0.91436179  0.02380266  1
  O  O239  1  0.09887589  0.93099254  0.52458057  1
  O  O240  1  0.43478382  0.26795035  0.00435032  1
  O  O241  1  0.41331694  0.26514457  0.51989520  1
  O  O242  1  0.43262060  0.60587467  0.02107795  1
  O  O243  1  0.42085245  0.58281080  0.52374845  1
  O  O244  1  0.44071991  0.91964846  0.02260583  1
  O  O245  1  0.41804947  0.93205063  0.51223548  1
  O  O246  1  0.77076175  0.26500941  0.02178257  1
  O  O247  1  0.76870251  0.26440167  0.50229682  1
  O  O248  1  0.74825320  0.59383161  0.02605258  1
  O  O249  1  0.77166654  0.59748093  0.52023186  1
  O  O250  1  0.75930903  0.92548992  0.02140613  1
  O  O251  1  0.77117170  0.93128496  0.52093139  1
  O  O252  1  0.23991777  0.07193514  0.28612234  1
  O  O253  1  0.23172594  0.06337575  0.75714756  1
  O  O254  1  0.22391752  0.40235959  0.27759747  1
  O  O255  1  0.23388869  0.41046398  0.76276243  1
  O  O256  1  0.22988823  0.73305157  0.27517699  1
  O  O257  1  0.23914366  0.74306651  0.76385891  1
  O  O258  1  0.57473360  0.06533454  0.27781913  1
  O  O259  1  0.58388043  0.07170959  0.76564072  1
  O  O260  1  0.57988725  0.40589265  0.26773905  1
  O  O261  1  0.56194454  0.41223017  0.77526504  1
  O  O262  1  0.57045134  0.73442157  0.27239943  1
  O  O263  1  0.57330466  0.73978262  0.77822116  1
  O  O264  1  0.89801608  0.07431056  0.27142616  1
  O  O265  1  0.90493400  0.06736008  0.76639635  1
  O  O266  1  0.90337812  0.40694612  0.28239537  1
  O  O267  1  0.91134207  0.41549885  0.76946469  1
  O  O268  1  0.89645244  0.73701099  0.27871583  1
  O  O269  1  0.90865876  0.73531855  0.76163890  1
  O  O270  1  0.25887688  0.23910715  0.28466296  1
  O  O271  1  0.25966588  0.23341040  0.75820961  1
  O  O272  1  0.25727462  0.56174757  0.27798127  1
  O  O273  1  0.26182858  0.56447997  0.77279458  1
  O  O274  1  0.25137791  0.90331615  0.27058300  1
  O  O275  1  0.25856498  0.91078591  0.76404994  1
  O  O276  1  0.60183136  0.24623644  0.26920429  1
  O  O277  1  0.59591898  0.24027313  0.77759397  1
  O  O278  1  0.59110121  0.58381914  0.27093790  1
  O  O279  1  0.59394307  0.57146371  0.77274188  1
  O  O280  1  0.59362082  0.91037224  0.27551419  1
  O  O281  1  0.60385762  0.90174270  0.77180999  1
  O  O282  1  0.92327769  0.24789869  0.27466623  1
  O  O283  1  0.92920072  0.23011340  0.76030179  1
  O  O284  1  0.92185124  0.57056572  0.28304586  1
  O  O285  1  0.93829267  0.57172427  0.77205851  1
  O  O286  1  0.91376755  0.91068106  0.27610395  1
  O  O287  1  0.93954126  0.90018613  0.76748125  1
  O  O288  1  0.26595481  0.23536186  0.47572776  1
  O  O289  1  0.25560853  0.24276132  0.98259172  1
  O  O290  1  0.25459754  0.56658977  0.47060830  1
  O  O291  1  0.26906161  0.57002026  0.97904345  1
  O  O292  1  0.25485081  0.90987121  0.47173744  1
  O  O293  1  0.25396993  0.90190123  0.98960683  1
  O  O294  1  0.58937659  0.24433975  0.48158062  1
  O  O295  1  0.60361849  0.23750192  0.96787029  1
  O  O296  1  0.58307222  0.57448308  0.48380293  1
  O  O297  1  0.59532614  0.57613098  0.96555528  1
  O  O298  1  0.59362305  0.91242847  0.48278211  1
  O  O299  1  0.59676711  0.88979797  0.97726604  1
  O  O300  1  0.93692479  0.23520453  0.49199900  1
  O  O301  1  0.92317802  0.23736084  0.98665705  1
  O  O302  1  0.92947096  0.56770578  0.47175058  1
  O  O303  1  0.93113994  0.56615482  0.97368469  1
  O  O304  1  0.92640044  0.89981374  0.49132664  1
  O  O305  1  0.93430774  0.89923876  0.97747492  1
  O  O306  1  0.23034692  0.06754436  0.47703687  1
  O  O307  1  0.24480317  0.08208646  0.98939846  1
  O  O308  1  0.22679955  0.40042999  0.48181936  1
  O  O309  1  0.23994236  0.41700612  0.97215353  1
  O  O310  1  0.22561571  0.73722459  0.47232442  1
  O  O311  1  0.24155151  0.73669223  0.98494176  1
  O  O312  1  0.57461734  0.06312746  0.47557832  1
  O  O313  1  0.58586443  0.07597491  0.97242945  1
  O  O314  1  0.57062957  0.41625751  0.48483123  1
  O  O315  1  0.56749971  0.40488761  0.96598393  1
  O  O316  1  0.57031554  0.73582629  0.47463721  1
  O  O317  1  0.56624273  0.72972855  0.97466535  1
  O  O318  1  0.89990807  0.06346721  0.47564284  1
  O  O319  1  0.90596978  0.07888469  0.98836523  1
  O  O320  1  0.90170235  0.40793647  0.46838433  1
  O  O321  1  0.90858334  0.41040464  0.98546641  1
  O  O322  1  0.89431342  0.73240469  0.47761735  1
  O  O323  1  0.91062618  0.74309223  0.98377555  1
  O  O324  1  0.08800798  0.26875612  0.23971421  1
  O  O325  1  0.10247604  0.25611288  0.72073493  1
  O  O326  1  0.09721690  0.58816588  0.24141799  1
  O  O327  1  0.09086434  0.59374926  0.72685313  1
  O  O328  1  0.09192592  0.91630577  0.23193117  1
  O  O329  1  0.08981464  0.93282860  0.71890371  1
  O  O330  1  0.42587584  0.26336552  0.23773636  1
  O  O331  1  0.42149007  0.25947865  0.72874900  1
  O  O332  1  0.42953416  0.59641276  0.22072950  1
  O  O333  1  0.42837282  0.59209564  0.72816797  1
  O  O334  1  0.44009961  0.92711792  0.23103499  1
  O  O335  1  0.42550563  0.92990219  0.73493632  1
  O  O336  1  0.77082750  0.27199101  0.23080452  1
  O  O337  1  0.76863218  0.24934752  0.73376801  1
  O  O338  1  0.75728929  0.58810200  0.22676319  1
  O  O339  1  0.75905748  0.60031310  0.71832660  1
  O  O340  1  0.76016886  0.92698037  0.23877544  1
  O  O341  1  0.76565520  0.93302142  0.72082026  1
  O  O342  1  0.07552232  0.09212741  0.23521296  1
  O  O343  1  0.06882858  0.09496217  0.71893893  1
  O  O344  1  0.05987771  0.43637846  0.22878394  1
  O  O345  1  0.07500121  0.43385269  0.72365770  1
  O  O346  1  0.06824514  0.76488351  0.22492120  1
  O  O347  1  0.06070315  0.76508244  0.72520675  1
  O  O348  1  0.41223770  0.08574808  0.23429692  1
  O  O349  1  0.39416144  0.09052061  0.72396970  1
  O  O350  1  0.39318243  0.44197678  0.24165141  1
  O  O351  1  0.40248486  0.44075700  0.72289619  1
  O  O352  1  0.41727750  0.75936071  0.23410883  1
  O  O353  1  0.41447302  0.76072283  0.74026934  1
  O  O354  1  0.74061354  0.09502536  0.23288701  1
  O  O355  1  0.74320737  0.09013285  0.72626969  1
  O  O356  1  0.74243521  0.42778336  0.22167579  1
  O  O357  1  0.72999566  0.44018438  0.72565474  1
  O  O358  1  0.74182622  0.75550163  0.23380099  1
  O  O359  1  0.73907576  0.75367454  0.72808947  1
