# generated using pymatgen
data_BaLaInIrO6
_symmetry_space_group_name_H-M   'P 1'
_cell_length_a   17.51712469
_cell_length_b   17.54035683
_cell_length_c   16.48210729
_cell_angle_alpha   89.98654552
_cell_angle_beta   90.00353046
_cell_angle_gamma   90.01894803
_symmetry_Int_Tables_number   1
_chemical_formula_structural   BaLaInIrO6
_chemical_formula_sum   'Ba36 La36 In36 Ir36 O216'
_cell_volume   5064.23611039
_cell_formula_units_Z   36
loop_
 _symmetry_equiv_pos_site_id
 _symmetry_equiv_pos_as_xyz
  1  'x, y, z'
loop_
 _atom_site_type_symbol
 _atom_site_label
 _atom_site_symmetry_multiplicity
 _atom_site_fract_x
 _atom_site_fract_y
 _atom_site_fract_z
 _atom_site_occupancy
  Ba  Ba0  1  0.66915881  0.17144135  0.12807630  1
  Ba  Ba1  1  0.49925484  0.32880539  0.87480188  1
  Ba  Ba2  1  0.66795305  0.50285095  0.12158590  1
  Ba  Ba3  1  0.32710269  0.15784553  0.87650998  1
  Ba  Ba4  1  1.00270998  0.17521216  0.12558328  1
  Ba  Ba5  1  0.83710533  0.32712298  0.37230308  1
  Ba  Ba6  1  0.83411461  0.32298633  0.87800960  1
  Ba  Ba7  1  0.16655704  0.67581364  0.12216548  1
  Ba  Ba8  1  0.00167360  0.49451035  0.37859133  1
  Ba  Ba9  1  0.83383070  0.99449724  0.37112750  1
  Ba  Ba10  1  1.00078277  0.84037114  0.62075032  1
  Ba  Ba11  1  0.50495989  0.99012873  0.37457125  1
  Ba  Ba12  1  1.00603490  0.50917760  0.13204507  1
  Ba  Ba13  1  0.16346564  0.00915780  0.62438802  1
  Ba  Ba14  1  0.83472465  0.33832826  0.12525233  1
  Ba  Ba15  1  0.49346675  0.67212766  0.12327680  1
  Ba  Ba16  1  -0.00083182  0.15498496  0.37220392  1
  Ba  Ba17  1  0.32943641  0.49303360  0.88011496  1
  Ba  Ba18  1  0.83565276  0.00365850  0.12487043  1
  Ba  Ba19  1  0.49944889  0.67957307  0.62961650  1
  Ba  Ba20  1  0.49801816  0.00618671  0.62722003  1
  Ba  Ba21  1  0.66323298  0.17444432  0.62092130  1
  Ba  Ba22  1  0.83210261  0.66190230  0.37388614  1
  Ba  Ba23  1  0.33468339  0.51293254  0.12412669  1
  Ba  Ba24  1  0.49984861  0.34270199  0.12294231  1
  Ba  Ba25  1  0.66916812  0.82686010  0.87216499  1
  Ba  Ba26  1  0.16866949  0.98685466  0.87154547  1
  Ba  Ba27  1  0.67004483  0.83527501  0.12348851  1
  Ba  Ba28  1  0.49567884  0.34437194  0.62691509  1
  Ba  Ba29  1  0.17141220  0.98922026  0.36957446  1
  Ba  Ba30  1  0.16424438  0.34834281  0.12885290  1
  Ba  Ba31  1  1.00679456  0.84146779  0.12467574  1
  Ba  Ba32  1  0.83160786  0.66937331  0.12869668  1
  Ba  Ba33  1  0.66619219  0.15915245  0.87847662  1
  Ba  Ba34  1  0.83022482  0.67449946  0.62406604  1
  Ba  Ba35  1  0.66935902  0.15544032  0.37311760  1
  La  La36  1  -0.00427010  0.81838819  0.86972615  1
  La  La37  1  0.32388022  0.48664347  0.37383993  1
  La  La38  1  0.83339376  0.65337334  0.87998282  1
  La  La39  1  0.50211352  0.65178306  0.37754561  1
  La  La40  1  1.00272905  0.18099338  0.62385303  1
  La  La41  1  0.32946889  0.81745487  0.37397300  1
  La  La42  1  0.67250815  0.84788984  0.62228239  1
  La  La43  1  0.33986171  0.52070130  0.62969325  1
  La  La44  1  0.66826731  0.51006545  0.62779778  1
  La  La45  1  1.00357582  0.51769018  0.62926831  1
  La  La46  1  -0.00285429  0.48652114  0.88252984  1
  La  La47  1  0.83530943  0.99043963  0.88008883  1
  La  La48  1  -0.00511062  0.14590325  0.87498086  1
  La  La49  1  0.34243109  0.17866175  0.62975453  1
  La  La50  1  0.50152150  0.64986061  0.87207651  1
  La  La51  1  0.00091420  0.82362570  0.37279436  1
  La  La52  1  0.82533375  0.34881801  0.61939754  1
  La  La53  1  0.66698624  0.49249156  0.37399807  1
  La  La54  1  0.16377177  0.34805927  0.63211980  1
  La  La55  1  0.83080055  0.01201585  0.62461985  1
  La  La56  1  0.66306361  0.48882157  0.87353209  1
  La  La57  1  0.50067260  0.98609130  0.87152191  1
  La  La58  1  0.33661431  0.18263160  0.12519198  1
  La  La59  1  0.33575063  0.84765852  0.12086467  1
  La  La60  1  0.17577191  0.31902916  0.88591878  1
  La  La61  1  0.17075858  0.65599661  0.37218557  1
  La  La62  1  0.16698426  0.65210051  0.87568483  1
  La  La63  1  0.49513767  0.01628930  0.11820985  1
  La  La64  1  0.15864132  0.01433608  0.11879525  1
  La  La65  1  0.16871294  0.31771920  0.37376764  1
  La  La66  1  0.32416509  0.15205569  0.37992660  1
  La  La67  1  0.16153657  0.68226558  0.62737983  1
  La  La68  1  0.32877203  0.81829196  0.86912647  1
  La  La69  1  0.67072405  0.82323729  0.37076165  1
  La  La70  1  0.33585464  0.84719858  0.62426827  1
  La  La71  1  0.50476443  0.32080729  0.37221383  1
  In  In72  1  0.49607774  0.83177642  -0.00300240  1
  In  In73  1  0.66382203  0.33578643  0.50012277  1
  In  In74  1  0.16837178  0.50034778  0.50483636  1
  In  In75  1  0.83491946  0.83462993  0.49944130  1
  In  In76  1  0.00132738  0.66700851  0.00144679  1
  In  In77  1  0.66522805  -0.00255859  -0.00191626  1
  In  In78  1  0.49819222  0.83167978  0.49799627  1
  In  In79  1  0.83824006  0.16734548  0.50092502  1
  In  In80  1  0.16698150  0.16691711  0.50384681  1
  In  In81  1  0.16449180  0.16714598  0.74926235  1
  In  In82  1  0.49517597  0.50033074  0.25287742  1
  In  In83  1  0.66316189  -0.00510555  0.24648169  1
  In  In84  1  0.33356555  -0.00248116  0.24712474  1
  In  In85  1  0.33166295  -0.00139626  0.75276290  1
  In  In86  1  0.33107156  0.33500199  0.50085790  1
  In  In87  1  0.16930999  0.83366531  0.49799989  1
  In  In88  1  0.66128403  0.66540723  0.24958107  1
  In  In89  1  0.83522714  0.16360361  0.00080783  1
  In  In90  1  0.83612423  0.50293814  0.50077038  1
  In  In91  1  0.83694415  0.83020733  -0.00126683  1
  In  In92  1  0.00116232  0.33290504  0.75288065  1
  In  In93  1  0.00276149  0.33632533  0.25206119  1
  In  In94  1  0.66747753  0.33305424  0.25243870  1
  In  In95  1  0.83615662  0.83272519  0.24855597  1
  In  In96  1  0.66598181  0.33110341  0.00027433  1
  In  In97  1  0.66260343  0.66527969  -0.00270241  1
  In  In98  1  0.49621045  0.16475267  0.49982106  1
  In  In99  1  0.33061954  0.66953341  -0.00134064  1
  In  In100  1  0.66220479  0.66819227  0.50251088  1
  In  In101  1  0.83681114  0.16625414  0.74730292  1
  In  In102  1  0.49541898  0.16539870  0.25057250  1
  In  In103  1  0.32906543  0.33815920  0.75333578  1
  In  In104  1  0.83716446  0.50172747  0.75289061  1
  In  In105  1  0.66701791  0.33305663  0.74767428  1
  In  In106  1  0.16938671  0.16758060  0.24879973  1
  In  In107  1  0.66714938  0.00222060  0.74868599  1
  Ir  Ir108  1  -0.00195668  -0.00754574  0.74668915  1
  Ir  Ir109  1  0.49215889  0.50304182  0.50155516  1
  Ir  Ir110  1  0.49636451  0.16603064  0.75440707  1
  Ir  Ir111  1  0.00784495  -0.00389319  -0.00461592  1
  Ir  Ir112  1  0.49723575  0.83064485  0.74907259  1
  Ir  Ir113  1  0.83575116  0.83113361  0.74711357  1
  Ir  Ir114  1  0.00005649  -0.00237440  0.49930746  1
  Ir  Ir115  1  0.83510813  0.50213967  0.24853436  1
  Ir  Ir116  1  0.16554238  0.82910079  0.75182590  1
  Ir  Ir117  1  0.32851638  -0.00052855  0.00087236  1
  Ir  Ir118  1  0.16592158  0.16619171  -0.00047402  1
  Ir  Ir119  1  0.16639308  0.50415153  0.75131847  1
  Ir  Ir120  1  0.66805742  -0.00374240  0.50117378  1
  Ir  Ir121  1  0.00703534  -0.00286623  0.24784779  1
  Ir  Ir122  1  0.66640220  0.66857181  0.75113294  1
  Ir  Ir123  1  0.32910919  0.66881984  0.74757625  1
  Ir  Ir124  1  0.49111371  0.16519104  -0.00480033  1
  Ir  Ir125  1  0.49977743  0.50596877  0.74752135  1
  Ir  Ir126  1  0.49774380  0.50015152  -0.00541546  1
  Ir  Ir127  1  0.83580853  0.49942326  -0.00024322  1
  Ir  Ir128  1  0.00362217  0.66828823  0.75098925  1
  Ir  Ir129  1  0.00091939  0.33576707  0.50807131  1
  Ir  Ir130  1  0.83803666  0.16375239  0.25007933  1
  Ir  Ir131  1  0.33123792  0.33407715  0.00457978  1
  Ir  Ir132  1  0.16935776  0.82996639  0.24760084  1
  Ir  Ir133  1  0.33266627  0.66639499  0.50022697  1
  Ir  Ir134  1  0.17077662  0.50492635  0.25324092  1
  Ir  Ir135  1  0.00844390  0.33383124  -0.00270275  1
  Ir  Ir136  1  0.33381114  -0.00250676  0.49960982  1
  Ir  Ir137  1  0.49326101  0.83122329  0.24963666  1
  Ir  Ir138  1  0.16411987  0.50086478  -0.00114050  1
  Ir  Ir139  1  0.33425257  0.33661645  0.25253942  1
  Ir  Ir140  1  0.00625934  0.66792426  0.25569539  1
  Ir  Ir141  1  0.00521566  0.66762176  0.50347062  1
  Ir  Ir142  1  0.16916954  0.83418392  -0.00496344  1
  Ir  Ir143  1  0.33391072  0.67206813  0.25438713  1
  O  O144  1  0.30911959  0.32219793  0.12964784  1
  O  O145  1  0.29793049  0.32313712  0.62802365  1
  O  O146  1  0.31718756  0.66956510  0.13170768  1
  O  O147  1  0.29701403  0.65760073  0.62277559  1
  O  O148  1  0.29486348  0.98591560  0.11873842  1
  O  O149  1  0.31343707  0.98388170  0.62076550  1
  O  O150  1  0.65116640  0.33560619  0.12659855  1
  O  O151  1  0.64203177  0.33673934  0.62456873  1
  O  O152  1  0.64312591  0.65851528  0.12354590  1
  O  O153  1  0.64557722  0.65332523  0.63290569  1
  O  O154  1  0.62776678  0.99106245  0.12117767  1
  O  O155  1  0.64736026  0.98634771  0.62093856  1
  O  O156  1  0.98939210  0.33482138  0.11774414  1
  O  O157  1  0.96349248  0.32694171  0.62508754  1
  O  O158  1  0.98591946  0.66710943  0.13297294  1
  O  O159  1  0.97914890  0.65688838  0.62718766  1
  O  O160  1  0.98767397  0.99477697  0.12231065  1
  O  O161  1  0.96817355  0.99008747  0.62304543  1
  O  O162  1  0.19859646  0.15765401  0.11978599  1
  O  O163  1  0.20595210  0.16629259  0.62469215  1
  O  O164  1  0.18792610  0.50116705  0.12311514  1
  O  O165  1  0.20307995  0.49177632  0.63269202  1
  O  O166  1  0.20079239  0.82929164  0.11910197  1
  O  O167  1  0.19860562  0.82100559  0.62931105  1
  O  O168  1  0.51329755  0.15936336  0.11351077  1
  O  O169  1  0.51178881  0.16346467  0.63456094  1
  O  O170  1  0.51271312  0.50439838  0.11774757  1
  O  O171  1  0.52906453  0.50248826  0.62370680  1
  O  O172  1  0.51560794  0.82509994  0.13021578  1
  O  O173  1  0.53064818  0.83108451  0.63050496  1
  O  O174  1  0.85441475  0.16503963  0.13033128  1
  O  O175  1  0.87156932  0.15026102  0.62420770  1
  O  O176  1  0.85904411  0.50074973  0.12298076  1
  O  O177  1  0.87013532  0.49319592  0.62836026  1
  O  O178  1  0.85941247  0.82500319  0.12375734  1
  O  O179  1  0.85234420  0.82639125  0.62830489  1
  O  O180  1  0.14834020  0.17448875  0.37730570  1
  O  O181  1  0.13039984  0.17551638  0.87951488  1
  O  O182  1  0.15379480  0.51649521  0.37382493  1
  O  O183  1  0.13388959  0.51291171  0.87398090  1
  O  O184  1  0.14049851  0.83059282  0.36839279  1
  O  O185  1  0.13356083  0.83467684  0.87396213  1
  O  O186  1  0.45814364  0.17177142  0.37502740  1
  O  O187  1  0.47354426  0.16993646  0.87500097  1
  O  O188  1  0.45760597  0.51281360  0.38486489  1
  O  O189  1  0.47528994  0.50993361  0.86902986  1
  O  O190  1  0.46294732  0.83809966  0.36887174  1
  O  O191  1  0.46291629  0.84069117  0.86636876  1
  O  O192  1  0.82526560  0.16336887  0.37127744  1
  O  O193  1  0.82492902  0.15270425  0.87302660  1
  O  O194  1  0.80877075  0.50129828  0.37033684  1
  O  O195  1  0.80563323  0.50868632  0.87983060  1
  O  O196  1  0.80577066  0.83415465  0.37592520  1
  O  O197  1  0.82138087  0.84613640  0.86493208  1
  O  O198  1  0.02726463  0.00136323  0.37538704  1
  O  O199  1  0.02430318  0.00804330  0.87030609  1
  O  O200  1  0.03333212  0.33942338  0.38817059  1
  O  O201  1  0.03913295  0.34425595  0.87891011  1
  O  O202  1  0.03692053  0.67573207  0.38079426  1
  O  O203  1  0.03427619  0.67807969  0.86912737  1
  O  O204  1  0.35476847  0.00907808  0.37886757  1
  O  O205  1  0.36291621  -0.00048685  0.88205690  1
  O  O206  1  0.36668024  0.34861629  0.37174565  1
  O  O207  1  0.34867594  0.33878608  0.88405592  1
  O  O208  1  0.36428611  0.68049772  0.37923637  1
  O  O209  1  0.36240609  0.67944503  0.86679501  1
  O  O210  1  0.68053809  -0.00744638  0.38160065  1
  O  O211  1  0.69867438  0.00227516  0.87054182  1
  O  O212  1  0.68833728  0.35706478  0.37727306  1
  O  O213  1  0.68105024  0.34904318  0.87314400  1
  O  O214  1  0.67847072  0.68383182  0.37669730  1
  O  O215  1  0.69613396  0.66894851  0.86760177  1
  O  O216  1  0.07718165  0.09107905  0.02083221  1
  O  O217  1  0.06476016  0.09462984  0.52707346  1
  O  O218  1  0.07108908  0.43288502  0.01226123  1
  O  O219  1  0.06758164  0.42994313  0.53639149  1
  O  O220  1  0.07847842  0.76596672  0.00989861  1
  O  O221  1  0.08208450  0.75090228  0.52277103  1
  O  O222  1  0.39395175  0.09541546  0.02552137  1
  O  O223  1  0.39496335  0.09298947  0.52380741  1
  O  O224  1  0.40503099  0.42451419  0.02073841  1
  O  O225  1  0.39588565  0.44083803  0.52700950  1
  O  O226  1  0.39026361  0.77357341  0.01199421  1
  O  O227  1  0.39136783  0.76431486  0.52278009  1
  O  O228  1  0.74085590  0.08925672  0.01873809  1
  O  O229  1  0.74093419  0.08612105  0.51768436  1
  O  O230  1  0.74981305  0.42773346  0.01096277  1
  O  O231  1  0.73920510  0.43160122  0.53111915  1
  O  O232  1  0.74499069  0.75148872  0.00626219  1
  O  O233  1  0.72980006  0.76971294  0.52078502  1
  O  O234  1  0.10218289  0.26479141  0.01694597  1
  O  O235  1  0.09531212  0.27097524  0.53190008  1
  O  O236  1  0.09530892  0.59256849  0.00873832  1
  O  O237  1  0.09593243  0.59531673  0.53030898  1
  O  O238  1  0.10513064  0.92978190  0.01989879  1
  O  O239  1  0.09158096  0.92794257  0.51180366  1
  O  O240  1  0.41653127  0.25495521  0.02678468  1
  O  O241  1  0.41656710  0.25430351  0.52791033  1
  O  O242  1  0.42612808  0.59187494  0.00093610  1
  O  O243  1  0.42479113  0.59697702  0.52638349  1
  O  O244  1  0.42162860  0.93519826  0.02651394  1
  O  O245  1  0.42239013  0.92553739  0.51815655  1
  O  O246  1  0.76013748  0.25708469  0.00793771  1
  O  O247  1  0.76633079  0.26393472  0.52154772  1
  O  O248  1  0.76481053  0.58798975  0.00992077  1
  O  O249  1  0.75144486  0.58828926  0.51932508  1
  O  O250  1  0.76454915  0.92530521  0.00491144  1
  O  O251  1  0.76197484  0.93167379  0.52641087  1
  O  O252  1  0.24929940  0.08018111  0.26943309  1
  O  O253  1  0.23885804  0.07271746  0.76532554  1
  O  O254  1  0.23876745  0.40650946  0.28083937  1
  O  O255  1  0.22622410  0.40909235  0.77677162  1
  O  O256  1  0.23718836  0.73596614  0.27806033  1
  O  O257  1  0.23394449  0.73474364  0.77655478  1
  O  O258  1  0.57288419  0.07332821  0.26056155  1
  O  O259  1  0.56455158  0.07217889  0.77467962  1
  O  O260  1  0.56941555  0.40997502  0.28072412  1
  O  O261  1  0.57532855  0.42320355  0.76854848  1
  O  O262  1  0.55324189  0.73657912  0.27505211  1
  O  O263  1  0.56797490  0.73528014  0.77523460  1
  O  O264  1  0.91451760  0.06938327  0.26300612  1
  O  O265  1  0.90322387  0.05104270  0.76697380  1
  O  O266  1  0.91200152  0.41767741  0.26319375  1
  O  O267  1  0.91811651  0.41465582  0.78293305  1
  O  O268  1  0.92312594  0.74400320  0.27992505  1
  O  O269  1  0.90554531  0.73467247  0.77736773  1
  O  O270  1  0.26903982  0.24451306  0.27561466  1
  O  O271  1  0.24811460  0.25083321  0.78133700  1
  O  O272  1  0.26740574  0.57576257  0.27852652  1
  O  O273  1  0.25651307  0.57853737  0.77527941  1
  O  O274  1  0.26548919  0.89274987  0.26719448  1
  O  O275  1  0.26106475  0.89370295  0.76926969  1
  O  O276  1  0.58325472  0.24641294  0.27512513  1
  O  O277  1  0.58648216  0.23694104  0.76714771  1
  O  O278  1  0.58914533  0.57177804  0.28671332  1
  O  O279  1  0.59713254  0.57452309  0.77561818  1
  O  O280  1  0.59017354  0.88921831  0.27334607  1
  O  O281  1  0.58306506  0.90699320  0.76908467  1
  O  O282  1  0.92416496  0.24131081  0.26201832  1
  O  O283  1  0.94306532  0.22594949  0.77150228  1
  O  O284  1  0.93052293  0.58055251  0.27210148  1
  O  O285  1  0.93475262  0.57883587  0.78088131  1
  O  O286  1  0.93973637  0.90600830  0.27273534  1
  O  O287  1  0.93501525  0.89297663  0.76740761  1
  O  O288  1  0.25918956  0.24222016  0.46436883  1
  O  O289  1  0.25650962  0.24243514  0.98189044  1
  O  O290  1  0.26956599  0.57174539  0.47843456  1
  O  O291  1  0.24967770  0.57848481  0.98117743  1
  O  O292  1  0.27052641  0.90000422  0.47733952  1
  O  O293  1  0.26775579  0.89865119  0.97442704  1
  O  O294  1  0.58335795  0.24668809  0.47260906  1
  O  O295  1  0.57986287  0.23776009  0.98277300  1
  O  O296  1  0.58805155  0.56406345  0.47552900  1
  O  O297  1  0.58870985  0.56871129  0.96460240  1
  O  O298  1  0.60408560  0.89734401  0.48392306  1
  O  O299  1  0.57958281  0.91264964  0.96687309  1
  O  O300  1  0.94040945  0.24049009  0.49007780  1
  O  O301  1  0.94333282  0.23877874  0.97702973  1
  O  O302  1  0.93232480  0.58023894  0.48971026  1
  O  O303  1  0.92417468  0.57246237  0.97227964  1
  O  O304  1  0.93649298  0.90376757  0.47314764  1
  O  O305  1  0.94026543  0.90553376  0.96842055  1
  O  O306  1  0.24563613  0.06888746  0.48168123  1
  O  O307  1  0.23282930  0.06902899  0.98308915  1
  O  O308  1  0.23180343  0.40291148  0.47263069  1
  O  O309  1  0.23477477  0.40510960  0.98138522  1
  O  O310  1  0.24024592  0.73225498  0.47291590  1
  O  O311  1  0.23350695  0.74186734  0.96484675  1
  O  O312  1  0.57768504  0.06975945  0.48886194  1
  O  O313  1  0.55466925  0.07034518  0.97514489  1
  O  O314  1  0.55547458  0.41135841  0.47286739  1
  O  O315  1  0.57490897  0.41692489  0.98137354  1
  O  O316  1  0.55753065  0.72998184  0.48100691  1
  O  O317  1  0.56018805  0.73134883  0.97087572  1
  O  O318  1  0.90940692  0.06320880  0.48870701  1
  O  O319  1  0.91521635  0.06440362  0.97611920  1
  O  O320  1  0.90942321  0.40190751  0.48786233  1
  O  O321  1  0.91707314  0.40954128  0.97482609  1
  O  O322  1  0.92073969  0.74362958  0.47973974  1
  O  O323  1  0.91096026  0.73760009  0.96244463  1
  O  O324  1  0.09824113  0.26419399  0.24439880  1
  O  O325  1  0.09365539  0.26270482  0.71374513  1
  O  O326  1  0.10413509  0.60069363  0.24024374  1
  O  O327  1  0.09918595  0.60003364  0.72381580  1
  O  O328  1  0.10499707  0.92815457  0.22375820  1
  O  O329  1  0.09560816  0.92178266  0.72897610  1
  O  O330  1  0.42051065  0.26504796  0.23074568  1
  O  O331  1  0.42028119  0.25385087  0.73484401  1
  O  O332  1  0.42542890  0.60406015  0.24502542  1
  O  O333  1  0.41950318  0.59535411  0.72688352  1
  O  O334  1  0.43214755  0.92749710  0.21940003  1
  O  O335  1  0.42325971  0.91724015  0.72874859  1
  O  O336  1  0.76195577  0.24884735  0.24138988  1
  O  O337  1  0.77164464  0.26844052  0.72532448  1
  O  O338  1  0.75811283  0.58413209  0.23929501  1
  O  O339  1  0.75641930  0.59726888  0.73478247  1
  O  O340  1  0.75621480  0.92274301  0.23224985  1
  O  O341  1  0.76580133  0.92078842  0.72223164  1
  O  O342  1  0.08120854  0.08344229  0.22645428  1
  O  O343  1  0.05849036  0.09252593  0.72902839  1
  O  O344  1  0.08230838  0.43309464  0.24408508  1
  O  O345  1  0.07588822  0.43606532  0.72260264  1
  O  O346  1  0.07665280  0.76055140  0.23638877  1
  O  O347  1  0.07640750  0.75726921  0.72524205  1
  O  O348  1  0.40473915  0.09154389  0.21210488  1
  O  O349  1  0.40487922  0.09616446  0.73267289  1
  O  O350  1  0.39622749  0.43024789  0.23678282  1
  O  O351  1  0.40385274  0.43749992  0.72740587  1
  O  O352  1  0.39058864  0.77368858  0.23249053  1
  O  O353  1  0.39636457  0.76406277  0.72403478  1
  O  O354  1  0.75071341  0.08925027  0.23984008  1
  O  O355  1  0.74635598  0.08822259  0.71684264  1
  O  O356  1  0.74920660  0.42879725  0.23496631  1
  O  O357  1  0.74033435  0.43376752  0.72326449  1
  O  O358  1  0.73979202  0.75626509  0.24081483  1
  O  O359  1  0.73354331  0.76558760  0.72603743  1
