# generated using pymatgen
data_BaLaInIrO6
_symmetry_space_group_name_H-M   'P 1'
_cell_length_a   17.51990805
_cell_length_b   17.54453669
_cell_length_c   16.47988275
_cell_angle_alpha   89.94539133
_cell_angle_beta   90.00869275
_cell_angle_gamma   89.99454746
_symmetry_Int_Tables_number   1
_chemical_formula_structural   BaLaInIrO6
_chemical_formula_sum   'Ba36 La36 In36 Ir36 O216'
_cell_volume   5065.56204977
_cell_formula_units_Z   36
loop_
 _symmetry_equiv_pos_site_id
 _symmetry_equiv_pos_as_xyz
  1  'x, y, z'
loop_
 _atom_site_type_symbol
 _atom_site_label
 _atom_site_symmetry_multiplicity
 _atom_site_fract_x
 _atom_site_fract_y
 _atom_site_fract_z
 _atom_site_occupancy
  Ba  Ba0  1  0.33426840  0.50599064  0.62541481  1
  Ba  Ba1  1  0.33545134  0.17157677  0.62962581  1
  Ba  Ba2  1  1.00191188  0.50578296  0.62589126  1
  Ba  Ba3  1  0.83375620  0.34924940  0.12139615  1
  Ba  Ba4  1  0.83464015  0.98444596  0.87405137  1
  Ba  Ba5  1  0.83440640  0.32603764  0.36962021  1
  Ba  Ba6  1  0.16365586  0.98384111  0.87223640  1
  Ba  Ba7  1  0.33634638  0.16942822  0.12286209  1
  Ba  Ba8  1  0.33097577  0.15834816  0.37607037  1
  Ba  Ba9  1  0.16426622  0.67862155  0.12214646  1
  Ba  Ba10  1  0.33569654  0.51053618  0.12828925  1
  Ba  Ba11  1  -0.00562310  0.15812627  0.37613351  1
  Ba  Ba12  1  0.32843820  0.82779046  0.87186114  1
  Ba  Ba13  1  0.66771353  0.50805798  0.12410353  1
  Ba  Ba14  1  0.49540233  0.99136999  0.37061996  1
  Ba  Ba15  1  0.16647990  0.00964980  0.62884309  1
  Ba  Ba16  1  0.32737068  0.82808788  0.37561534  1
  Ba  Ba17  1  0.33123753  0.84305843  0.12292816  1
  Ba  Ba18  1  0.17107749  0.32375187  0.37586297  1
  Ba  Ba19  1  0.50020614  0.32880548  0.87624271  1
  Ba  Ba20  1  0.66680583  0.82656389  0.87386858  1
  Ba  Ba21  1  -0.00182476  0.82306907  0.37680392  1
  Ba  Ba22  1  0.50129495  0.32543886  0.37441503  1
  Ba  Ba23  1  0.49915214  0.67537108  0.62531289  1
  Ba  Ba24  1  0.83412309  0.00769508  0.62928014  1
  Ba  Ba25  1  0.33386517  0.84137606  0.62492433  1
  Ba  Ba26  1  1.00247431  0.51015023  0.12156234  1
  Ba  Ba27  1  0.66452394  0.17657077  0.11962578  1
  Ba  Ba28  1  0.49883930  0.99063628  0.87773776  1
  Ba  Ba29  1  0.17291239  0.32143462  0.87593610  1
  Ba  Ba30  1  0.66329626  0.84099527  0.62819294  1
  Ba  Ba31  1  0.16886015  0.34341120  0.62692671  1
  Ba  Ba32  1  0.84180488  0.32135591  0.87636074  1
  Ba  Ba33  1  0.49442866  0.67948897  0.12359164  1
  Ba  Ba34  1  0.33468184  0.49206392  0.37594367  1
  Ba  Ba35  1  0.66292622  0.15920132  0.37219589  1
  La  La36  1  0.66467337  0.48805783  0.87862532  1
  La  La37  1  0.66121200  0.48201645  0.37203242  1
  La  La38  1  0.66055842  0.82213961  0.37556028  1
  La  La39  1  0.66642773  0.84637114  0.12324796  1
  La  La40  1  0.16990459  0.65462169  0.37450368  1
  La  La41  1  0.83824794  0.65502545  0.87841620  1
  La  La42  1  0.49598233  0.34576600  0.62396253  1
  La  La43  1  1.00882121  0.18128204  0.62481753  1
  La  La44  1  1.00563885  0.84866919  0.12087527  1
  La  La45  1  0.83822568  0.64913567  0.37465162  1
  La  La46  1  0.49702998  0.66119285  0.87797706  1
  La  La47  1  0.16708824  0.66020670  0.87347796  1
  La  La48  1  0.00259827  0.48652111  0.37214770  1
  La  La49  1  -0.00730154  0.81786592  0.87523360  1
  La  La50  1  0.66863750  0.15033279  0.87812320  1
  La  La51  1  0.32933219  0.49285599  0.87971029  1
  La  La52  1  0.83689992  0.98524009  0.37695155  1
  La  La53  1  0.82666441  0.01570763  0.12238783  1
  La  La54  1  0.49623889  0.34888978  0.13026098  1
  La  La55  1  0.32403405  0.13949559  0.87634331  1
  La  La56  1  0.49736686  0.00421599  0.12758384  1
  La  La57  1  -0.00326090  0.14680110  0.87255567  1
  La  La58  1  0.16248878  0.00912032  0.12449571  1
  La  La59  1  0.83475480  0.34655334  0.62295644  1
  La  La60  1  0.82645931  0.68469069  0.62545876  1
  La  La61  1  0.83324661  0.67345878  0.12559843  1
  La  La62  1  0.16603346  0.67703349  0.62311168  1
  La  La63  1  0.49618507  0.66063016  0.37297904  1
  La  La64  1  -0.00291069  0.48837696  0.87630363  1
  La  La65  1  0.66840606  0.17731563  0.63070702  1
  La  La66  1  0.49087614  0.00660361  0.62652520  1
  La  La67  1  1.00606089  0.18117924  0.12410714  1
  La  La68  1  0.67806665  0.51635337  0.61697306  1
  La  La69  1  0.17356053  0.98899753  0.37813172  1
  La  La70  1  0.16096191  0.35491042  0.12567829  1
  La  La71  1  1.00502810  0.84875433  0.62872980  1
  In  In72  1  -0.00123261  0.66498786  0.74865078  1
  In  In73  1  0.66845092  -0.00183529  0.24924438  1
  In  In74  1  0.50397356  0.50304200  0.75072420  1
  In  In75  1  0.50158679  0.16723312  0.75553150  1
  In  In76  1  0.50481278  0.50458782  0.50333656  1
  In  In77  1  0.49900883  0.16808849  -0.00223230  1
  In  In78  1  0.66665405  -0.00031387  0.50209613  1
  In  In79  1  0.83362307  0.83042029  0.24773622  1
  In  In80  1  0.50026254  0.50373519  -0.00076192  1
  In  In81  1  0.66763264  0.66698342  0.75416010  1
  In  In82  1  0.50047900  0.83235307  0.50022960  1
  In  In83  1  0.33709605  0.33120699  0.75180147  1
  In  In84  1  0.00306358  0.33066877  -0.00294803  1
  In  In85  1  0.33029410  0.33155857  0.24673676  1
  In  In86  1  0.83336853  0.16596141  0.24820368  1
  In  In87  1  0.49914451  0.16456024  0.24829185  1
  In  In88  1  0.83508322  0.83155311  0.00245230  1
  In  In89  1  -0.00124654  0.00020512  0.25142229  1
  In  In90  1  0.00288660  0.33255568  0.75213858  1
  In  In91  1  0.00198425  0.33280444  0.24765845  1
  In  In92  1  0.33025250  0.67267292  -0.00031156  1
  In  In93  1  0.66420720  -0.00198663  0.75003233  1
  In  In94  1  0.33353278  0.33050459  0.00271665  1
  In  In95  1  0.50120227  0.50503751  0.25178240  1
  In  In96  1  0.33207797  0.00074304  0.50111244  1
  In  In97  1  -0.00335047  0.66644523  0.50010664  1
  In  In98  1  0.83270241  0.50047502  0.75096678  1
  In  In99  1  0.66823580  0.33175418  0.50456749  1
  In  In100  1  0.33420320  0.33155705  0.50177109  1
  In  In101  1  0.00059726  0.00026271  0.49942536  1
  In  In102  1  0.16597299  0.50356897  0.50184363  1
  In  In103  1  0.16100627  0.83170595  0.24926133  1
  In  In104  1  0.66940384  0.33225609  0.24512303  1
  In  In105  1  -0.00063150  0.33392044  0.49960372  1
  In  In106  1  0.66779781  0.66866767  0.24890949  1
  In  In107  1  0.83259673  0.16537265  0.50405020  1
  Ir  Ir108  1  0.83643094  0.50684212  0.25018519  1
  Ir  Ir109  1  0.16620508  0.16271021  0.24581421  1
  Ir  Ir110  1  0.16115272  0.83165130  0.74830270  1
  Ir  Ir111  1  0.83656273  0.83061236  0.74957179  1
  Ir  Ir112  1  0.16441113  0.50847141  0.24618583  1
  Ir  Ir113  1  0.49528175  0.83046603  0.75437029  1
  Ir  Ir114  1  -0.00140897  -0.00158656  0.75246129  1
  Ir  Ir115  1  0.16890775  0.50854276  0.75516350  1
  Ir  Ir116  1  0.66621594  -0.00236429  0.00022653  1
  Ir  Ir117  1  0.32711328  -0.00307523  0.24706593  1
  Ir  Ir118  1  0.66905688  0.66945588  -0.00082612  1
  Ir  Ir119  1  -0.00042623  0.66701296  -0.00068768  1
  Ir  Ir120  1  -0.00245551  -0.00020183  -0.00056609  1
  Ir  Ir121  1  0.15824736  0.83519191  -0.00362960  1
  Ir  Ir122  1  0.33058233  -0.00459446  0.75193139  1
  Ir  Ir123  1  0.33079125  0.67120224  0.25418857  1
  Ir  Ir124  1  0.83023448  0.83085406  0.50027765  1
  Ir  Ir125  1  0.16423418  0.50663600  -0.00328119  1
  Ir  Ir126  1  0.67258641  0.33146973  0.75193370  1
  Ir  Ir127  1  0.16603099  0.16052320  0.00058943  1
  Ir  Ir128  1  0.83242480  0.50650888  -0.00016226  1
  Ir  Ir129  1  0.16283781  0.83189196  0.50453607  1
  Ir  Ir130  1  0.16419743  0.16498555  0.50158751  1
  Ir  Ir131  1  0.33097933  0.66903077  0.74933512  1
  Ir  Ir132  1  0.49756136  0.83083501  0.25008495  1
  Ir  Ir133  1  -0.00158815  0.66454985  0.24876199  1
  Ir  Ir134  1  0.50451074  0.16215163  0.50456500  1
  Ir  Ir135  1  0.50179487  0.83489913  0.00022355  1
  Ir  Ir136  1  0.32689916  -0.00590965  0.00127247  1
  Ir  Ir137  1  0.83351632  0.50239876  0.49630255  1
  Ir  Ir138  1  0.16497576  0.16222757  0.75290070  1
  Ir  Ir139  1  0.67297012  0.33399965  -0.00852012  1
  Ir  Ir140  1  0.33025120  0.67024408  0.49984773  1
  Ir  Ir141  1  0.83765799  0.16621070  0.75168081  1
  Ir  Ir142  1  0.67552401  0.66772018  0.49644253  1
  Ir  Ir143  1  0.83668053  0.16208398  -0.00487610  1
  O  O144  1  0.29035268  0.32874508  0.12263049  1
  O  O145  1  0.31383514  0.32752690  0.62833998  1
  O  O146  1  0.31378868  0.67024849  0.13197533  1
  O  O147  1  0.30017247  0.66605673  0.62373751  1
  O  O148  1  0.29875268  0.99859337  0.12316266  1
  O  O149  1  0.31872456  1.00224672  0.63168464  1
  O  O150  1  0.63911290  0.33608905  0.10913792  1
  O  O151  1  0.63564347  0.31931699  0.63641423  1
  O  O152  1  0.64450800  0.66321596  0.11706028  1
  O  O153  1  0.65324415  0.65632667  0.61842498  1
  O  O154  1  0.63424727  0.98733385  0.11757677  1
  O  O155  1  0.62772565  0.99361755  0.62751526  1
  O  O156  1  0.98809155  0.32783897  0.12055336  1
  O  O157  1  0.97419250  0.32983925  0.62855932  1
  O  O158  1  0.96769392  0.66113840  0.12372855  1
  O  O159  1  0.96132344  0.65800819  0.62494386  1
  O  O160  1  0.96632303  0.98880301  0.11750913  1
  O  O161  1  0.98215659  0.98843395  0.63140058  1
  O  O162  1  0.18924883  0.14536144  0.12457575  1
  O  O163  1  0.18672210  0.16312299  0.62638762  1
  O  O164  1  0.18726563  0.49683023  0.12108427  1
  O  O165  1  0.18454529  0.50939703  0.63497462  1
  O  O166  1  0.17760023  0.83322894  0.11633366  1
  O  O167  1  0.18581249  0.81533503  0.62626124  1
  O  O168  1  0.51234499  0.13874622  0.11940300  1
  O  O169  1  0.52954233  0.14569404  0.62608703  1
  O  O170  1  0.51902595  0.49864753  0.12464903  1
  O  O171  1  0.54232678  0.50684302  0.62738495  1
  O  O172  1  0.52853840  0.83799339  0.12412936  1
  O  O173  1  0.51282041  0.83160069  0.63334811  1
  O  O174  1  0.87019846  0.15200039  0.11278844  1
  O  O175  1  0.87232521  0.16259068  0.63674141  1
  O  O176  1  0.85617730  0.51419765  0.12665118  1
  O  O177  1  0.85219315  0.49420210  0.61707383  1
  O  O178  1  0.87288582  0.81186766  0.12338894  1
  O  O179  1  0.86610395  0.82126412  0.62425341  1
  O  O180  1  0.14301115  0.16568306  0.37515602  1
  O  O181  1  0.13470543  0.16503716  0.87679400  1
  O  O182  1  0.13680877  0.51702955  0.36681108  1
  O  O183  1  0.13376604  0.51810730  0.87623512  1
  O  O184  1  0.14689369  0.84683998  0.38188537  1
  O  O185  1  0.12859885  0.83131522  0.87158672  1
  O  O186  1  0.48396177  0.17047914  0.38418401  1
  O  O187  1  0.45861473  0.17321492  0.87756831  1
  O  O188  1  0.48425204  0.52126311  0.37908077  1
  O  O189  1  0.46648491  0.50934242  0.87415835  1
  O  O190  1  0.47809749  0.82822328  0.36937137  1
  O  O191  1  0.47706937  0.82514623  0.87616638  1
  O  O192  1  0.81269243  0.17366020  0.37663625  1
  O  O193  1  0.80431598  0.16693736  0.87283929  1
  O  O194  1  0.80258151  0.51010945  0.37344318  1
  O  O195  1  0.80117629  0.51392615  0.88056918  1
  O  O196  1  0.79878322  0.84210407  0.38055184  1
  O  O197  1  0.81963819  0.82865310  0.87202840  1
  O  O198  1  0.03922901  0.00016462  0.37602008  1
  O  O199  1  0.01915246  0.00978142  0.87580337  1
  O  O200  1  0.01600031  0.34498431  0.37208105  1
  O  O201  1  0.02281472  0.34833158  0.87581407  1
  O  O202  1  0.02985433  0.66847682  0.36869627  1
  O  O203  1  0.02924253  0.68010898  0.87911373  1
  O  O204  1  0.34079641  -0.00476258  0.36932598  1
  O  O205  1  0.34908411  -0.00545632  0.87669090  1
  O  O206  1  0.34575187  0.32810896  0.37428460  1
  O  O207  1  0.34772235  0.35231324  0.87682375  1
  O  O208  1  0.35972984  0.67333367  0.37779917  1
  O  O209  1  0.35864618  0.67243237  0.86798634  1
  O  O210  1  0.70229672  0.00104524  0.37541878  1
  O  O211  1  0.68838461  0.00195746  0.87983798  1
  O  O212  1  0.68626988  0.34009372  0.37690011  1
  O  O213  1  0.70058221  0.34800861  0.87111514  1
  O  O214  1  0.70494643  0.68532442  0.37838206  1
  O  O215  1  0.70359681  0.67414280  0.88177686  1
  O  O216  1  0.06572525  0.09556822  0.02470385  1
  O  O217  1  0.07016350  0.10039692  0.52541261  1
  O  O218  1  0.08270110  0.42774162  0.01540141  1
  O  O219  1  0.06603401  0.43515967  0.50351625  1
  O  O220  1  0.05950759  0.76996293  0.01731331  1
  O  O221  1  0.07025843  0.76458390  0.52738445  1
  O  O222  1  0.39858370  0.08171228  0.00748857  1
  O  O223  1  0.41297517  0.09350944  0.51811756  1
  O  O224  1  0.41215629  0.42279158  0.02351275  1
  O  O225  1  0.41984123  0.41944811  0.52404682  1
  O  O226  1  0.41047815  0.76757772  0.01306278  1
  O  O227  1  0.40381316  0.75534817  0.51401711  1
  O  O228  1  0.74397585  0.08782914  0.01961656  1
  O  O229  1  0.73295460  0.09913949  0.53463924  1
  O  O230  1  0.74130606  0.43256475  0.01359601  1
  O  O231  1  0.74003614  0.43793339  0.52097698  1
  O  O232  1  0.73602041  0.76054865  0.02882416  1
  O  O233  1  0.74014652  0.76048649  0.52363257  1
  O  O234  1  0.10393203  0.25543713  0.02615595  1
  O  O235  1  0.09571033  0.25604387  0.52157510  1
  O  O236  1  0.09330545  0.59964341  0.01276165  1
  O  O237  1  0.10010857  0.60552841  0.51891826  1
  O  O238  1  0.09090098  0.93145253  0.02512302  1
  O  O239  1  0.09068954  0.91856088  0.52667354  1
  O  O240  1  0.43721437  0.26788265  0.03075534  1
  O  O241  1  0.44093607  0.25560269  0.52753179  1
  O  O242  1  0.42633475  0.60162935  0.00507005  1
  O  O243  1  0.42027771  0.59956333  0.51570996  1
  O  O244  1  0.43008985  0.93014269  0.02319094  1
  O  O245  1  0.42929138  0.92967363  0.51990831  1
  O  O246  1  0.76693855  0.25702850  0.01421264  1
  O  O247  1  0.76395068  0.26551349  0.53951844  1
  O  O248  1  0.76851817  0.60647058  0.01880984  1
  O  O249  1  0.77391508  0.60299478  0.51932849  1
  O  O250  1  0.75792000  0.92599094  0.02710918  1
  O  O251  1  0.76504820  0.92119707  0.52197655  1
  O  O252  1  0.22665717  0.06096066  0.26602400  1
  O  O253  1  0.24142330  0.07223144  0.77535373  1
  O  O254  1  0.23367739  0.41843454  0.25937044  1
  O  O255  1  0.24358630  0.42367277  0.77373950  1
  O  O256  1  0.23419940  0.73613859  0.27372430  1
  O  O257  1  0.22928297  0.73454868  0.76887095  1
  O  O258  1  0.56969949  0.06499631  0.25905646  1
  O  O259  1  0.58266236  0.08253472  0.78100720  1
  O  O260  1  0.58288553  0.41484822  0.26780021  1
  O  O261  1  0.58861814  0.40659800  0.77386628  1
  O  O262  1  0.56518781  0.73856505  0.27443561  1
  O  O263  1  0.56539437  0.73780852  0.77213690  1
  O  O264  1  0.89856925  0.06247423  0.27282867  1
  O  O265  1  0.90820539  0.07401343  0.77807992  1
  O  O266  1  0.90922667  0.41883413  0.26448239  1
  O  O267  1  0.91119749  0.41247325  0.76759744  1
  O  O268  1  0.90156526  0.72486264  0.27215364  1
  O  O269  1  0.90361325  0.73894205  0.77462969  1
  O  O270  1  0.25510152  0.22916799  0.26209986  1
  O  O271  1  0.26109171  0.22763204  0.77678701  1
  O  O272  1  0.25572833  0.58241709  0.27587002  1
  O  O273  1  0.26168596  0.57883200  0.78241743  1
  O  O274  1  0.25250415  0.91180461  0.26302271  1
  O  O275  1  0.25352949  0.90392079  0.76112559  1
  O  O276  1  0.59002986  0.24239370  0.25632695  1
  O  O277  1  0.61142934  0.23796862  0.77857741  1
  O  O278  1  0.60010247  0.57707070  0.28159413  1
  O  O279  1  0.59448076  0.57719362  0.78881617  1
  O  O280  1  0.59605595  0.89122097  0.26582824  1
  O  O281  1  0.58268682  0.90264090  0.76948571  1
  O  O282  1  0.93693883  0.23195389  0.24873807  1
  O  O283  1  0.93212644  0.22973734  0.77567191  1
  O  O284  1  0.93341349  0.57098684  0.27742957  1
  O  O285  1  0.92801210  0.57364052  0.78717222  1
  O  O286  1  0.92226842  0.90569112  0.27432544  1
  O  O287  1  0.93559706  0.89683687  0.76930807  1
  O  O288  1  0.25446561  0.23216788  0.48958158  1
  O  O289  1  0.26246558  0.22348164  0.97482377  1
  O  O290  1  0.25768025  0.58552867  0.47641236  1
  O  O291  1  0.25264424  0.57872818  0.97019825  1
  O  O292  1  0.24896210  0.90732492  0.48960285  1
  O  O293  1  0.25369152  0.90245389  0.98337073  1
  O  O294  1  0.59750808  0.22804503  0.49906397  1
  O  O295  1  0.60657726  0.24138978  0.96871759  1
  O  O296  1  0.61618418  0.57219243  0.47735665  1
  O  O297  1  0.60186770  0.57854321  0.97090172  1
  O  O298  1  0.60048908  0.89694938  0.47444750  1
  O  O299  1  0.59714469  0.90303285  0.98543762  1
  O  O300  1  0.93205384  0.23469204  0.49755079  1
  O  O301  1  0.93295743  0.22743619  0.97634065  1
  O  O302  1  0.92817748  0.56608337  0.46599272  1
  O  O303  1  0.93010247  0.57397482  0.97123227  1
  O  O304  1  0.92030888  0.90049624  0.48435662  1
  O  O305  1  0.93774113  0.90027465  0.97804415  1
  O  O306  1  0.23074811  0.06992347  0.48090706  1
  O  O307  1  0.23277505  0.06394399  0.98110776  1
  O  O308  1  0.24252942  0.41370408  0.48847955  1
  O  O309  1  0.23884476  0.42149142  0.98096278  1
  O  O310  1  0.23004228  0.73673957  0.47983495  1
  O  O311  1  0.22728557  0.74189762  0.97407608  1
  O  O312  1  0.56617685  0.07008898  0.48308301  1
  O  O313  1  0.58433459  0.07663084  0.97629287  1
  O  O314  1  0.58140934  0.41135261  0.48425647  1
  O  O315  1  0.58848500  0.41182879  0.97199271  1
  O  O316  1  0.57856978  0.73118602  0.47361281  1
  O  O317  1  0.57066818  0.73467013  0.97587674  1
  O  O318  1  0.89880154  0.06143819  0.47744435  1
  O  O319  1  0.90610094  0.07049879  0.97379560  1
  O  O320  1  0.89620511  0.40844274  0.48548764  1
  O  O321  1  0.90943314  0.42017679  0.98015176  1
  O  O322  1  0.89458085  0.73530388  0.47623736  1
  O  O323  1  0.90595799  0.73018060  0.97487912  1
  O  O324  1  0.10481607  0.25880748  0.21999050  1
  O  O325  1  0.09416160  0.25091295  0.73096017  1
  O  O326  1  0.09358618  0.60016685  0.23069713  1
  O  O327  1  0.10405622  0.60381167  0.73502712  1
  O  O328  1  0.08967721  0.92640260  0.21729433  1
  O  O329  1  0.08768685  0.92267354  0.72619069  1
  O  O330  1  0.42850455  0.26111505  0.22052241  1
  O  O331  1  0.43967000  0.26384603  0.72363042  1
  O  O332  1  0.42332525  0.60447461  0.24321518  1
  O  O333  1  0.41993497  0.59977787  0.73418199  1
  O  O334  1  0.42676359  0.92842738  0.22540466  1
  O  O335  1  0.42686330  0.92678442  0.73035717  1
  O  O336  1  0.76374128  0.26244895  0.22337872  1
  O  O337  1  0.76962033  0.26163581  0.72339982  1
  O  O338  1  0.77495809  0.60426959  0.23606066  1
  O  O339  1  0.76321742  0.59491916  0.72247716  1
  O  O340  1  0.76009875  0.92401201  0.21065437  1
  O  O341  1  0.76179078  0.91874586  0.73517883  1
  O  O342  1  0.07203725  0.09783444  0.21909835  1
  O  O343  1  0.06344297  0.09752878  0.73273445  1
  O  O344  1  0.07919433  0.43128139  0.23160401  1
  O  O345  1  0.08024419  0.43618685  0.74200895  1
  O  O346  1  0.05923216  0.76159393  0.22461111  1
  O  O347  1  0.06830347  0.76544583  0.72679781  1
  O  O348  1  0.40168238  0.08131984  0.23592082  1
  O  O349  1  0.40784382  0.08002563  0.74135418  1
  O  O350  1  0.41299058  0.42178408  0.23131667  1
  O  O351  1  0.42121227  0.42066412  0.72421710  1
  O  O352  1  0.40125844  0.76403000  0.23533665  1
  O  O353  1  0.40227983  0.75857905  0.73111549  1
  O  O354  1  0.74521201  0.08700491  0.21456214  1
  O  O355  1  0.74268184  0.10141076  0.73141586  1
  O  O356  1  0.74639527  0.43852705  0.23838398  1
  O  O357  1  0.73934162  0.42215418  0.71746416  1
  O  O358  1  0.73322814  0.76582509  0.22193037  1
  O  O359  1  0.74790482  0.75808080  0.72905533  1
