# generated using pymatgen
data_BaLaInIrO6
_symmetry_space_group_name_H-M   'P 1'
_cell_length_a   17.53576837
_cell_length_b   17.54830819
_cell_length_c   16.49061639
_cell_angle_alpha   89.99483021
_cell_angle_beta   89.99955597
_cell_angle_gamma   90.01698560
_symmetry_Int_Tables_number   1
_chemical_formula_structural   BaLaInIrO6
_chemical_formula_sum   'Ba36 La36 In36 Ir36 O216'
_cell_volume   5074.54281911
_cell_formula_units_Z   36
loop_
 _symmetry_equiv_pos_site_id
 _symmetry_equiv_pos_as_xyz
  1  'x, y, z'
loop_
 _atom_site_type_symbol
 _atom_site_label
 _atom_site_symmetry_multiplicity
 _atom_site_fract_x
 _atom_site_fract_y
 _atom_site_fract_z
 _atom_site_occupancy
  Ba  Ba0  1  -0.00544143  0.49115531  0.37618313  1
  Ba  Ba1  1  0.83563256  0.32415054  0.37482644  1
  Ba  Ba2  1  0.83142632  0.00547517  0.62448507  1
  Ba  Ba3  1  0.49984987  0.01419241  0.12616752  1
  Ba  Ba4  1  0.33684521  0.84242712  0.62128726  1
  Ba  Ba5  1  0.33831289  0.16444116  0.87516437  1
  Ba  Ba6  1  0.66183948  0.49164656  0.87505251  1
  Ba  Ba7  1  0.66525295  0.17501369  0.12469855  1
  Ba  Ba8  1  0.49701575  0.67279636  0.62813147  1
  Ba  Ba9  1  0.66351014  0.15739375  0.87388664  1
  Ba  Ba10  1  0.16480625  0.00774378  0.62857045  1
  Ba  Ba11  1  0.83076519  0.33771166  0.62376634  1
  Ba  Ba12  1  0.50375368  0.32744001  0.87301980  1
  Ba  Ba13  1  0.49401785  0.34251104  0.12278901  1
  Ba  Ba14  1  0.66368606  0.49105390  0.37048220  1
  Ba  Ba15  1  0.83230841  0.67783495  0.12605525  1
  Ba  Ba16  1  0.83407030  0.65869199  0.37820900  1
  Ba  Ba17  1  0.49810016  0.99526003  0.37515820  1
  Ba  Ba18  1  1.00465803  0.17759150  0.62539054  1
  Ba  Ba19  1  0.33060964  0.17306540  0.62744340  1
  Ba  Ba20  1  0.33604100  0.17651400  0.12068729  1
  Ba  Ba21  1  0.16840598  0.32694272  0.87514318  1
  Ba  Ba22  1  0.50051998  0.34267372  0.62647267  1
  Ba  Ba23  1  0.16914231  0.67330987  0.62086510  1
  Ba  Ba24  1  0.16839415  0.32211150  0.37751142  1
  Ba  Ba25  1  0.50326988  0.65769925  0.37754227  1
  Ba  Ba26  1  0.16798240  0.01144926  0.12375227  1
  Ba  Ba27  1  0.50406651  0.99616441  0.88034942  1
  Ba  Ba28  1  0.16953567  0.99497298  0.87327483  1
  Ba  Ba29  1  0.17029108  0.34122484  0.12351725  1
  Ba  Ba30  1  0.33061420  0.49475599  0.86900291  1
  Ba  Ba31  1  0.33109750  0.49223258  0.37905371  1
  Ba  Ba32  1  0.33201768  0.50682999  0.62532095  1
  Ba  Ba33  1  0.66666237  0.84108131  0.62569743  1
  Ba  Ba34  1  0.00020200  0.15655108  0.37542363  1
  Ba  Ba35  1  0.66465972  0.82379002  0.87695588  1
  La  La36  1  0.66784694  0.51552393  0.62272309  1
  La  La37  1  -0.00939240  0.48666921  0.87723180  1
  La  La38  1  0.50223165  0.65104209  0.87425076  1
  La  La39  1  -0.00675202  0.14327362  0.88035200  1
  La  La40  1  0.66902186  0.83906502  0.12714959  1
  La  La41  1  0.50334388  0.32049909  0.37320019  1
  La  La42  1  0.17705464  0.99046862  0.38078260  1
  La  La43  1  0.00083436  0.82111460  0.37203389  1
  La  La44  1  0.33351572  0.83077402  0.87081791  1
  La  La45  1  1.00254909  0.50948342  0.62067168  1
  La  La46  1  0.34064091  0.85017025  0.12558216  1
  La  La47  1  0.33719859  0.50717490  0.12897492  1
  La  La48  1  1.00536287  0.84429369  0.12397367  1
  La  La49  1  0.82967485  0.00840325  0.12692568  1
  La  La50  1  0.83962140  0.98284955  0.37325356  1
  La  La51  1  1.00937079  0.18367078  0.12750707  1
  La  La52  1  0.16225153  0.34781173  0.62645786  1
  La  La53  1  0.16803893  0.65726542  0.87350132  1
  La  La54  1  0.33161067  0.15546649  0.37472216  1
  La  La55  1  0.49755651  0.01101497  0.62913957  1
  La  La56  1  -0.00390914  0.82141476  0.86844243  1
  La  La57  1  0.66503825  0.15649275  0.37720355  1
  La  La58  1  0.17313843  0.65200248  0.37258655  1
  La  La59  1  0.99829474  0.51604919  0.12821668  1
  La  La60  1  0.66818025  0.82209533  0.38253297  1
  La  La61  1  0.83493680  0.31142165  0.87662974  1
  La  La62  1  0.67272195  0.17609984  0.62530138  1
  La  La63  1  0.66784706  0.51877026  0.12191283  1
  La  La64  1  0.82794992  0.68255377  0.62537155  1
  La  La65  1  0.83268110  0.65124233  0.87663954  1
  La  La66  1  0.49952132  0.67966123  0.12588139  1
  La  La67  1  0.82350057  0.35121388  0.12563060  1
  La  La68  1  1.00540196  0.84453718  0.61977927  1
  La  La69  1  0.16513400  0.67419075  0.12295821  1
  La  La70  1  0.33182095  0.81633618  0.37562439  1
  La  La71  1  0.83221014  0.97871865  0.87338448  1
  In  In72  1  0.83275927  0.50001002  0.50357461  1
  In  In73  1  0.83532790  0.16258429  0.00532448  1
  In  In74  1  0.33381434  0.66965742  -0.00014276  1
  In  In75  1  0.33482293  0.33250240  0.50213105  1
  In  In76  1  0.66662943  0.66943765  0.25081355  1
  In  In77  1  0.50268804  0.16746135  0.74928558  1
  In  In78  1  -0.00102202  0.66899099  -0.00285984  1
  In  In79  1  0.50188326  0.16516324  0.50020551  1
  In  In80  1  0.33408387  0.33353123  0.25385517  1
  In  In81  1  0.16725855  0.16517952  0.25153916  1
  In  In82  1  0.00145904  -0.00107008  0.24852899  1
  In  In83  1  0.33316118  0.33860192  -0.00282196  1
  In  In84  1  0.66879443  -0.00330675  0.25332946  1
  In  In85  1  0.00039740  0.66867345  0.49971569  1
  In  In86  1  0.83382882  0.16137555  0.75259993  1
  In  In87  1  0.83503774  0.16245204  0.49830337  1
  In  In88  1  0.66581844  0.66937845  0.75273109  1
  In  In89  1  0.33358039  0.66577529  0.49990693  1
  In  In90  1  -0.00391341  0.33602822  0.00215257  1
  In  In91  1  0.17037091  0.83367819  0.24652538  1
  In  In92  1  0.66600307  0.33433729  0.49752491  1
  In  In93  1  0.33553503  -0.00047624  -0.00206721  1
  In  In94  1  -0.00105224  0.33275709  0.75148556  1
  In  In95  1  0.50067862  0.83439045  0.25257653  1
  In  In96  1  0.16435000  0.49839919  0.24884348  1
  In  In97  1  0.16381567  0.50439199  -0.00129747  1
  In  In98  1  0.67054777  0.33660809  0.75077754  1
  In  In99  1  0.83197352  0.50217842  0.24882310  1
  In  In100  1  0.16428851  0.16956113  0.75093635  1
  In  In101  1  0.66828406  -0.00401283  0.00157780  1
  In  In102  1  0.16508026  0.83136212  0.74895616  1
  In  In103  1  -0.00246875  -0.00336438  0.74740836  1
  In  In104  1  0.83357782  0.16470168  0.24836628  1
  In  In105  1  0.49984479  0.83691893  0.50108245  1
  In  In106  1  0.16564078  0.16813915  -0.00135074  1
  In  In107  1  0.33356550  0.67006425  0.75337305  1
  Ir  Ir108  1  0.15634090  0.50538624  0.74630862  1
  Ir  Ir109  1  0.50054787  0.50154096  0.24857721  1
  Ir  Ir110  1  0.33371813  0.00029566  0.50260095  1
  Ir  Ir111  1  0.49997841  0.50025976  0.74999877  1
  Ir  Ir112  1  0.00245003  0.66989430  0.24690744  1
  Ir  Ir113  1  0.82848963  0.50009657  -0.00356107  1
  Ir  Ir114  1  -0.00512989  0.66489344  0.74954517  1
  Ir  Ir115  1  0.00418657  -0.00529802  0.49422372  1
  Ir  Ir116  1  -0.00381335  -0.01054949  0.00035020  1
  Ir  Ir117  1  0.00215575  0.33271977  0.49820570  1
  Ir  Ir118  1  0.33576814  -0.00135163  0.25537115  1
  Ir  Ir119  1  0.16229155  0.49969004  0.50121262  1
  Ir  Ir120  1  0.50280014  0.50061284  0.49827308  1
  Ir  Ir121  1  0.66863186  0.66839259  0.50312406  1
  Ir  Ir122  1  0.83515438  0.82888056  0.75187523  1
  Ir  Ir123  1  0.67012444  -0.00185960  0.49990439  1
  Ir  Ir124  1  0.16528630  0.83264970  -0.00040344  1
  Ir  Ir125  1  0.50444918  0.17038277  0.00258178  1
  Ir  Ir126  1  0.33741184  -0.00231693  0.74783731  1
  Ir  Ir127  1  -0.00571427  0.33396668  0.24876014  1
  Ir  Ir128  1  0.66548381  0.66901720  0.00012584  1
  Ir  Ir129  1  0.83568602  0.83453569  0.49750692  1
  Ir  Ir130  1  0.33200528  0.66561228  0.24622663  1
  Ir  Ir131  1  0.49903066  0.83724775  0.75445876  1
  Ir  Ir132  1  0.50400701  0.50499676  0.00497387  1
  Ir  Ir133  1  0.66736092  0.33884582  0.00635646  1
  Ir  Ir134  1  0.16473978  0.83611082  0.49502522  1
  Ir  Ir135  1  0.66553658  -0.00567353  0.74594912  1
  Ir  Ir136  1  0.83429972  0.50286783  0.75234341  1
  Ir  Ir137  1  0.83887813  0.83166473  0.24933070  1
  Ir  Ir138  1  0.16548029  0.16221442  0.49947920  1
  Ir  Ir139  1  0.49936926  0.16762453  0.25192132  1
  Ir  Ir140  1  0.83658148  0.82908325  0.00102934  1
  Ir  Ir141  1  0.33113141  0.33732763  0.74857541  1
  Ir  Ir142  1  0.66261886  0.33482722  0.24434926  1
  Ir  Ir143  1  0.50014129  0.82976576  0.00064145  1
  O  O144  1  0.32488167  0.34102849  0.12624826  1
  O  O145  1  0.30140137  0.33538947  0.62875771  1
  O  O146  1  0.30292319  0.65342090  0.12690922  1
  O  O147  1  0.32012007  0.67011502  0.62718917  1
  O  O148  1  0.31782105  0.98745285  0.13264116  1
  O  O149  1  0.31380039  0.99735846  0.62445967  1
  O  O150  1  0.64102845  0.33396279  0.12540752  1
  O  O151  1  0.65105683  0.31517336  0.62434523  1
  O  O152  1  0.63744975  0.66848078  0.11934272  1
  O  O153  1  0.64814202  0.65977970  0.62453441  1
  O  O154  1  0.64789047  0.97251705  0.12739183  1
  O  O155  1  0.63487785  0.99216174  0.62129934  1
  O  O156  1  0.96211241  0.32436436  0.12994455  1
  O  O157  1  0.98316806  0.33579164  0.61827339  1
  O  O158  1  0.97946283  0.65929190  0.12684324  1
  O  O159  1  0.96326287  0.65727386  0.63124585  1
  O  O160  1  0.96530331  0.98026405  0.11911235  1
  O  O161  1  0.97905282  0.98312294  0.61454541  1
  O  O162  1  0.18204700  0.16612495  0.12640672  1
  O  O163  1  0.18034920  0.16453523  0.61864642  1
  O  O164  1  0.19899463  0.51061454  0.12512188  1
  O  O165  1  0.18283615  0.48912729  0.62471265  1
  O  O166  1  0.20299006  0.81872210  0.11879955  1
  O  O167  1  0.18531339  0.82881799  0.61558437  1
  O  O168  1  0.51635624  0.17417441  0.12813760  1
  O  O169  1  0.53611539  0.15206399  0.62340669  1
  O  O170  1  0.53280723  0.50133806  0.12688142  1
  O  O171  1  0.53222620  0.49984090  0.62204874  1
  O  O172  1  0.53082272  0.82048994  0.12065016  1
  O  O173  1  0.51641102  0.83195741  0.63283440  1
  O  O174  1  0.87556689  0.14799736  0.12606052  1
  O  O175  1  0.85225350  0.16164842  0.62560489  1
  O  O176  1  0.86146052  0.49266012  0.11696460  1
  O  O177  1  0.86700042  0.49752892  0.63554348  1
  O  O178  1  0.86950738  0.82740675  0.12526768  1
  O  O179  1  0.86760736  0.82243838  0.62593799  1
  O  O180  1  0.14959091  0.15428882  0.38092860  1
  O  O181  1  0.12790983  0.16743572  0.87572393  1
  O  O182  1  0.14345214  0.51478697  0.37922490  1
  O  O183  1  0.12550893  0.51865210  0.86584584  1
  O  O184  1  0.13754076  0.84613485  0.37494543  1
  O  O185  1  0.13095728  0.83799626  0.88117450  1
  O  O186  1  0.47118665  0.16713504  0.37063142  1
  O  O187  1  0.49345861  0.16263450  0.88123432  1
  O  O188  1  0.47761776  0.50379245  0.37256914  1
  O  O189  1  0.48010559  0.51403363  0.87962567  1
  O  O190  1  0.46570196  0.83890526  0.37482163  1
  O  O191  1  0.46909451  0.83995755  0.87925402  1
  O  O192  1  0.80119598  0.16629349  0.37311161  1
  O  O193  1  0.81107325  0.17126169  0.88040200  1
  O  O194  1  0.81643490  0.50106524  0.37486365  1
  O  O195  1  0.80710156  0.51593638  0.87356362  1
  O  O196  1  0.80402792  0.84130145  0.37345735  1
  O  O197  1  0.81138549  0.84056398  0.87699244  1
  O  O198  1  0.03793652  -0.00399848  0.37742756  1
  O  O199  1  0.01913329  -0.00780169  0.88215996  1
  O  O200  1  0.02123164  0.33832234  0.37282729  1
  O  O201  1  0.01962707  0.35629616  0.87643247  1
  O  O202  1  0.03432735  0.67970780  0.36877567  1
  O  O203  1  0.02949660  0.67948604  0.86890139  1
  O  O204  1  0.35035860  0.01589185  0.38033677  1
  O  O205  1  0.35485780  -0.01248686  0.86758506  1
  O  O206  1  0.36650438  0.33736943  0.37815861  1
  O  O207  1  0.35375691  0.34209151  0.86671746  1
  O  O208  1  0.35223335  0.67595763  0.36664482  1
  O  O209  1  0.36958892  0.68480842  0.87770154  1
  O  O210  1  0.70330444  0.00948941  0.38146138  1
  O  O211  1  0.69431522  -0.00361982  0.86909139  1
  O  O212  1  0.68458544  0.33737609  0.36207901  1
  O  O213  1  0.69775587  0.34019902  0.88690666  1
  O  O214  1  0.68621287  0.67951122  0.38082396  1
  O  O215  1  0.69584063  0.66676996  0.87969545  1
  O  O216  1  0.05358263  0.08849298  0.01932323  1
  O  O217  1  0.07128813  0.08873512  0.51988814  1
  O  O218  1  0.05599607  0.44356477  0.02131211  1
  O  O219  1  0.07306620  0.42557381  0.52621616  1
  O  O220  1  0.07321630  0.76627092  0.02565399  1
  O  O221  1  0.06895231  0.76984424  0.51651885  1
  O  O222  1  0.41806774  0.09328888  0.01282906  1
  O  O223  1  0.40648065  0.08770583  0.52030212  1
  O  O224  1  0.40781427  0.44388792  0.02216800  1
  O  O225  1  0.41341892  0.43213178  0.51663611  1
  O  O226  1  0.40813612  0.76402987  0.03161757  1
  O  O227  1  0.40307412  0.76326708  0.50318078  1
  O  O228  1  0.74881074  0.08177201  0.03023625  1
  O  O229  1  0.73151608  0.09090267  0.52494662  1
  O  O230  1  0.73475833  0.43322691  0.03144126  1
  O  O231  1  0.73226039  0.43489633  0.52576818  1
  O  O232  1  0.73406006  0.76622744  0.02419468  1
  O  O233  1  0.74647596  0.75800334  0.52443221  1
  O  O234  1  0.08399322  0.25781293  0.02775738  1
  O  O235  1  0.10101472  0.26333422  0.51922252  1
  O  O236  1  0.09599138  0.60385641  0.02444932  1
  O  O237  1  0.08813778  0.58612658  0.52131851  1
  O  O238  1  0.09067176  0.92087718  0.02877771  1
  O  O239  1  0.09514360  0.92530429  0.52018455  1
  O  O240  1  0.42981132  0.25679633  0.00517942  1
  O  O241  1  0.42659084  0.25694791  0.51820686  1
  O  O242  1  0.43726527  0.59893089  0.02471472  1
  O  O243  1  0.43093381  0.58900033  0.51266022  1
  O  O244  1  0.42727740  0.91756864  0.02469198  1
  O  O245  1  0.43069009  0.93747638  0.52331809  1
  O  O246  1  0.76295975  0.27158689  0.02450620  1
  O  O247  1  0.75303236  0.25106309  0.51396987  1
  O  O248  1  0.75903689  0.59658861  0.02046550  1
  O  O249  1  0.75893443  0.59913397  0.53090027  1
  O  O250  1  0.77250103  0.92200831  0.02229836  1
  O  O251  1  0.76179033  0.92378848  0.51564853  1
  O  O252  1  0.24037781  0.06221526  0.27571517  1
  O  O253  1  0.25130969  0.07331908  0.76317398  1
  O  O254  1  0.23861620  0.40800165  0.26880443  1
  O  O255  1  0.23142880  0.41382858  0.76311446  1
  O  O256  1  0.23884747  0.73391301  0.27246953  1
  O  O257  1  0.23815147  0.74318584  0.78453791  1
  O  O258  1  0.57645934  0.08155796  0.26962554  1
  O  O259  1  0.57521408  0.06101794  0.75846157  1
  O  O260  1  0.56352884  0.40242431  0.27158075  1
  O  O261  1  0.57500492  0.41534412  0.76135880  1
  O  O262  1  0.56961712  0.73725552  0.26103267  1
  O  O263  1  0.56386532  0.74038407  0.77650971  1
  O  O264  1  0.89983539  0.05881971  0.27506868  1
  O  O265  1  0.90040589  0.06169273  0.78071557  1
  O  O266  1  0.90276944  0.40183270  0.25712158  1
  O  O267  1  0.89602128  0.40848059  0.77986586  1
  O  O268  1  0.91326489  0.74184428  0.27536002  1
  O  O269  1  0.90224690  0.73292970  0.77980470  1
  O  O270  1  0.26682900  0.23140093  0.27618051  1
  O  O271  1  0.26099034  0.24862756  0.76644022  1
  O  O272  1  0.26025234  0.58090573  0.27115589  1
  O  O273  1  0.24227950  0.58202690  0.76753011  1
  O  O274  1  0.27076157  0.90243872  0.27532470  1
  O  O275  1  0.26580957  0.90543372  0.76711995  1
  O  O276  1  0.59461851  0.23705638  0.27673746  1
  O  O277  1  0.59455313  0.24171774  0.76273651  1
  O  O278  1  0.59121200  0.57012357  0.25861519  1
  O  O279  1  0.58685649  0.57641592  0.76523132  1
  O  O280  1  0.60523678  0.89654083  0.27926588  1
  O  O281  1  0.59471242  0.90211706  0.76652531  1
  O  O282  1  0.93022322  0.24030046  0.26617514  1
  O  O283  1  0.93508625  0.23276776  0.78147098  1
  O  O284  1  0.93223382  0.57891190  0.25980923  1
  O  O285  1  0.92676386  0.57262075  0.78314228  1
  O  O286  1  0.93127701  0.89643659  0.27625002  1
  O  O287  1  0.92552944  0.89714300  0.77401867  1
  O  O288  1  0.25942665  0.22781425  0.47765536  1
  O  O289  1  0.25824137  0.24510182  0.98257164  1
  O  O290  1  0.24603571  0.58079721  0.48198712  1
  O  O291  1  0.25209515  0.58700203  0.96573521  1
  O  O292  1  0.26182099  0.90419217  0.46935791  1
  O  O293  1  0.26169667  0.89529337  0.98104633  1
  O  O294  1  0.59169544  0.23999640  0.46286421  1
  O  O295  1  0.59721359  0.24625247  0.98342992  1
  O  O296  1  0.60003855  0.57284851  0.48607015  1
  O  O297  1  0.59804143  0.57463265  0.98451920  1
  O  O298  1  0.60330590  0.90598946  0.47424283  1
  O  O299  1  0.59020447  0.89973118  0.98597339  1
  O  O300  1  0.93216285  0.24321811  0.48320402  1
  O  O301  1  0.92918037  0.23464624  0.97171582  1
  O  O302  1  0.92516751  0.57698692  0.48893356  1
  O  O303  1  0.92327571  0.56876342  0.97457753  1
  O  O304  1  0.93311615  0.90172111  0.46719293  1
  O  O305  1  0.93640681  0.88808252  0.97773765  1
  O  O306  1  0.23403556  0.06657458  0.48111434  1
  O  O307  1  0.24276338  0.07228571  0.98598153  1
  O  O308  1  0.23567754  0.41127354  0.48812540  1
  O  O309  1  0.23911080  0.41477457  0.98152433  1
  O  O310  1  0.23214678  0.74440713  0.46667722  1
  O  O311  1  0.23089202  0.74237083  0.97300095  1
  O  O312  1  0.58499635  0.07158637  0.47593021  1
  O  O313  1  0.58034408  0.08336659  0.99761268  1
  O  O314  1  0.56562277  0.40644132  0.47591725  1
  O  O315  1  0.57286466  0.40999239  0.98524463  1
  O  O316  1  0.58389981  0.74587321  0.48293448  1
  O  O317  1  0.56505778  0.73150260  0.97672121  1
  O  O318  1  0.90852828  0.05921167  0.47295542  1
  O  O319  1  0.90370785  0.05278783  0.97302385  1
  O  O320  1  0.91294007  0.40377899  0.48691197  1
  O  O321  1  0.88891572  0.40383382  0.97533053  1
  O  O322  1  0.90928776  0.74973190  0.47755827  1
  O  O323  1  0.89969719  0.73534203  0.97153571  1
  O  O324  1  0.08487308  0.26457665  0.23447602  1
  O  O325  1  0.10115585  0.27204541  0.72504261  1
  O  O326  1  0.09482954  0.60139269  0.22445602  1
  O  O327  1  0.08239657  0.59250822  0.71772962  1
  O  O328  1  0.08927042  0.91843711  0.22127295  1
  O  O329  1  0.08308751  0.91409463  0.72712389  1
  O  O330  1  0.43504703  0.26045525  0.24398536  1
  O  O331  1  0.41757817  0.26203093  0.73484327  1
  O  O332  1  0.42870310  0.59698117  0.21803047  1
  O  O333  1  0.42650866  0.58914802  0.74428780  1
  O  O334  1  0.42412915  0.92714163  0.23020767  1
  O  O335  1  0.43402727  0.93196894  0.72767115  1
  O  O336  1  0.75853199  0.26926822  0.22248098  1
  O  O337  1  0.76823244  0.26521954  0.74868918  1
  O  O338  1  0.75149075  0.58931039  0.22410610  1
  O  O339  1  0.77013909  0.59778413  0.72838565  1
  O  O340  1  0.77458441  0.92481735  0.22927219  1
  O  O341  1  0.76582650  0.92447425  0.73615518  1
  O  O342  1  0.06636949  0.09783540  0.22513705  1
  O  O343  1  0.07013593  0.09107717  0.74169170  1
  O  O344  1  0.05944159  0.43119055  0.22315384  1
  O  O345  1  0.06504320  0.43745941  0.72664278  1
  O  O346  1  0.07274849  0.75827163  0.22174926  1
  O  O347  1  0.06009686  0.75718825  0.72270755  1
  O  O348  1  0.40197149  0.09820945  0.23783613  1
  O  O349  1  0.41257345  0.08516507  0.72911936  1
  O  O350  1  0.40614156  0.43990828  0.23104557  1
  O  O351  1  0.40760896  0.42640020  0.72967389  1
  O  O352  1  0.39942391  0.75814155  0.22036912  1
  O  O353  1  0.40582030  0.77372070  0.74389930  1
  O  O354  1  0.74385642  0.08594375  0.22291313  1
  O  O355  1  0.72875856  0.08974976  0.72546731  1
  O  O356  1  0.73024666  0.42759932  0.21703028  1
  O  O357  1  0.73942167  0.44159373  0.72460762  1
  O  O358  1  0.74057911  0.76961627  0.23071298  1
  O  O359  1  0.74807060  0.75688295  0.72854495  1
