# generated using pymatgen
data_BaLaInIrO6
_symmetry_space_group_name_H-M   'P 1'
_cell_length_a   17.52051447
_cell_length_b   17.54976064
_cell_length_c   16.51007039
_cell_angle_alpha   90.01404238
_cell_angle_beta   89.97466623
_cell_angle_gamma   89.99965691
_symmetry_Int_Tables_number   1
_chemical_formula_structural   BaLaInIrO6
_chemical_formula_sum   'Ba36 La36 In36 Ir36 O216'
_cell_volume   5076.52958475
_cell_formula_units_Z   36
loop_
 _symmetry_equiv_pos_site_id
 _symmetry_equiv_pos_as_xyz
  1  'x, y, z'
loop_
 _atom_site_type_symbol
 _atom_site_label
 _atom_site_symmetry_multiplicity
 _atom_site_fract_x
 _atom_site_fract_y
 _atom_site_fract_z
 _atom_site_occupancy
  Ba  Ba0  1  0.33509792  0.17042676  0.62431922  1
  Ba  Ba1  1  0.33158422  0.50915114  0.62088299  1
  Ba  Ba2  1  0.16272940  0.32707447  0.37584536  1
  Ba  Ba3  1  -0.00405491  0.15225733  0.37470757  1
  Ba  Ba4  1  0.50273100  0.67049856  0.62193713  1
  Ba  Ba5  1  0.50498448  0.99241995  0.87403952  1
  Ba  Ba6  1  0.84004801  0.31719864  0.37294448  1
  Ba  Ba7  1  0.66592407  0.82793998  0.37514858  1
  Ba  Ba8  1  0.66564187  0.48956141  0.36921368  1
  Ba  Ba9  1  0.16552381  0.00537658  0.62385730  1
  Ba  Ba10  1  0.15909195  0.67915056  0.61784404  1
  Ba  Ba11  1  0.66542117  0.17346640  0.62764910  1
  Ba  Ba12  1  0.32846342  0.82737802  0.37180992  1
  Ba  Ba13  1  0.50049826  0.99440119  0.37562028  1
  Ba  Ba14  1  0.16450933  0.01057768  0.12787222  1
  Ba  Ba15  1  0.33252714  0.82198218  0.87537678  1
  Ba  Ba16  1  0.50053435  0.33709724  0.61993490  1
  Ba  Ba17  1  0.83553937  0.34500494  0.12882910  1
  Ba  Ba18  1  0.65890096  0.82311375  0.87613903  1
  Ba  Ba19  1  1.00443103  0.50930156  0.13181533  1
  Ba  Ba20  1  0.33038444  0.83944436  0.62072224  1
  Ba  Ba21  1  0.83428592  0.99106270  0.87483185  1
  Ba  Ba22  1  -0.00198990  0.48471684  0.37441673  1
  Ba  Ba23  1  0.99995609  0.84876816  0.12448257  1
  Ba  Ba24  1  0.66348078  0.48570509  0.87641907  1
  Ba  Ba25  1  0.49558353  0.33025605  0.87563872  1
  Ba  Ba26  1  0.32937951  0.49568413  0.38016280  1
  Ba  Ba27  1  0.67044669  0.15733115  0.37956729  1
  Ba  Ba28  1  0.33348412  0.16172029  0.38033268  1
  Ba  Ba29  1  0.50054974  0.66154934  0.87096331  1
  Ba  Ba30  1  0.16248372  0.34270759  0.13241121  1
  Ba  Ba31  1  0.16715724  0.99233968  0.37217829  1
  Ba  Ba32  1  0.32964537  0.51214726  0.12891458  1
  Ba  Ba33  1  1.00030336  0.51125732  0.61652793  1
  Ba  Ba34  1  0.82814711  0.34279176  0.62356687  1
  Ba  Ba35  1  1.00344604  0.84751129  0.62389735  1
  La  La36  1  0.83970815  0.64671503  0.37229841  1
  La  La37  1  -0.00603515  0.82225431  0.37514992  1
  La  La38  1  0.66784607  0.50549899  0.63053643  1
  La  La39  1  0.33777118  0.17962352  0.13196390  1
  La  La40  1  0.16997590  0.98349816  0.87573921  1
  La  La41  1  0.67147364  0.85143555  0.62742435  1
  La  La42  1  0.49933861  -0.00066076  0.61626949  1
  La  La43  1  1.00628202  0.17438237  0.62246534  1
  La  La44  1  0.83663446  0.65239450  0.87499221  1
  La  La45  1  0.82489949  0.67928252  0.61996943  1
  La  La46  1  0.15796481  0.68080629  0.12873749  1
  La  La47  1  0.49541076  0.68471484  0.12994762  1
  La  La48  1  0.67239241  0.18341958  0.12761591  1
  La  La49  1  0.16382378  0.65630924  0.37614841  1
  La  La50  1  0.33209669  0.14978650  0.87342609  1
  La  La51  1  0.33953894  0.49633455  0.86951513  1
  La  La52  1  0.49950768  0.34913220  0.12386679  1
  La  La53  1  0.83191559  0.02055229  0.12606276  1
  La  La54  1  0.32759992  0.84560496  0.12563446  1
  La  La55  1  0.17683001  0.32124315  0.87539299  1
  La  La56  1  0.83684004  0.31448604  0.87803390  1
  La  La57  1  0.66636834  0.15915328  0.87638554  1
  La  La58  1  1.00539138  0.17978808  0.13159419  1
  La  La59  1  -0.00278052  0.48168166  0.87452416  1
  La  La60  1  0.17309108  0.64682943  0.87273376  1
  La  La61  1  0.50715666  0.31535864  0.37290963  1
  La  La62  1  0.16553381  0.34430171  0.61909704  1
  La  La63  1  0.83996616  0.99049479  0.37471394  1
  La  La64  1  0.67447481  0.51581229  0.12508542  1
  La  La65  1  0.49600565  0.65450818  0.37780231  1
  La  La66  1  0.67095340  0.85455183  0.12580139  1
  La  La67  1  -0.00205299  0.14941027  0.88186999  1
  La  La68  1  0.83057239  0.68027874  0.12593371  1
  La  La69  1  0.49746888  0.01212709  0.12669793  1
  La  La70  1  0.83288459  0.01449143  0.62472139  1
  La  La71  1  -0.00168386  0.81718116  0.87321637  1
  In  In72  1  0.33361470  0.33273896  0.50027260  1
  In  In73  1  0.33419087  0.33676518  0.25137547  1
  In  In74  1  0.50009166  0.83582809  0.00400698  1
  In  In75  1  0.50175001  0.50584124  0.00436158  1
  In  In76  1  0.50224739  0.49815896  0.74654647  1
  In  In77  1  0.67155099  0.66608912  0.74938706  1
  In  In78  1  0.33069445  0.66696189  0.00383365  1
  In  In79  1  0.66569188  0.67159209  0.25068662  1
  In  In80  1  0.16397692  0.83037126  0.75002610  1
  In  In81  1  0.83347115  0.49745565  -0.00079213  1
  In  In82  1  0.33260526  0.33333484  0.00247926  1
  In  In83  1  0.33189586  0.66682711  0.74567031  1
  In  In84  1  0.00107566  0.66383279  0.74882470  1
  In  In85  1  0.50254438  0.17050307  0.00338407  1
  In  In86  1  0.50088292  0.50211634  0.24641622  1
  In  In87  1  0.50122049  0.49574161  0.49437477  1
  In  In88  1  0.33390723  0.00089434  0.25239005  1
  In  In89  1  0.33446459  -0.00142198  0.75074279  1
  In  In90  1  0.83446521  0.83362532  0.75029652  1
  In  In91  1  0.50252899  0.16285719  0.50190526  1
  In  In92  1  0.16395554  0.16664574  0.75203549  1
  In  In93  1  0.66815104  0.66632909  0.49285297  1
  In  In94  1  0.33247520  0.00173222  0.00390027  1
  In  In95  1  0.00203023  0.66385127  -0.00146361  1
  In  In96  1  0.67073919  0.33320005  0.49667791  1
  In  In97  1  0.16629307  0.16585658  0.00117011  1
  In  In98  1  0.16464395  0.49836008  0.00091820  1
  In  In99  1  0.50167335  0.83383602  0.74624085  1
  In  In100  1  0.00184072  0.33141776  -0.00138018  1
  In  In101  1  0.83220575  0.83533857  0.24947669  1
  In  In102  1  0.83682419  0.49920167  0.75096715  1
  In  In103  1  0.49987298  0.83143050  0.49468268  1
  In  In104  1  0.83868657  0.16914043  0.74994451  1
  In  In105  1  0.66928372  0.00440369  0.75090502  1
  In  In106  1  0.83301709  0.83439202  -0.00154301  1
  In  In107  1  -0.00304406  0.33047800  0.50343306  1
  Ir  Ir108  1  0.16670413  0.16625521  0.25404213  1
  Ir  Ir109  1  0.32646147  0.67073481  0.49398671  1
  Ir  Ir110  1  0.32646232  0.67364969  0.24958804  1
  Ir  Ir111  1  -0.00058360  0.00096404  0.00130772  1
  Ir  Ir112  1  0.16068955  0.83376159  0.00132075  1
  Ir  Ir113  1  0.16007195  0.83096840  0.24973313  1
  Ir  Ir114  1  0.83413384  0.83511810  0.49947495  1
  Ir  Ir115  1  -0.00574681  0.67001656  0.49406276  1
  Ir  Ir116  1  0.00513080  0.33086880  0.75155004  1
  Ir  Ir117  1  0.49797825  0.17049552  0.75547461  1
  Ir  Ir118  1  0.67051346  0.32954945  0.00208027  1
  Ir  Ir119  1  0.32915517  0.33216384  0.75122251  1
  Ir  Ir120  1  0.83661523  0.15870770  0.49940577  1
  Ir  Ir121  1  0.00113719  0.00280186  0.75331006  1
  Ir  Ir122  1  0.83494733  0.50365527  0.49774506  1
  Ir  Ir123  1  -0.00117122  0.32975151  0.25189288  1
  Ir  Ir124  1  0.66829779  0.32968134  0.24620788  1
  Ir  Ir125  1  0.83399982  0.16296383  0.24838311  1
  Ir  Ir126  1  0.66738461  0.66820142  0.00552071  1
  Ir  Ir127  1  -0.00276758  0.66770050  0.25231369  1
  Ir  Ir128  1  0.16514289  0.50547500  0.25552458  1
  Ir  Ir129  1  0.50109569  0.83451304  0.24754253  1
  Ir  Ir130  1  -0.00236737  -0.00273698  0.49975755  1
  Ir  Ir131  1  0.66809348  0.00265661  0.24816336  1
  Ir  Ir132  1  0.50942544  0.16507125  0.24580901  1
  Ir  Ir133  1  0.33008582  -0.00123644  0.50053756  1
  Ir  Ir134  1  0.83527983  0.50094596  0.24781676  1
  Ir  Ir135  1  0.16475749  0.16366257  0.50069102  1
  Ir  Ir136  1  0.16343306  0.50272913  0.50054811  1
  Ir  Ir137  1  0.15948621  0.83569696  0.49336640  1
  Ir  Ir138  1  0.16196861  0.49278498  0.74746028  1
  Ir  Ir139  1  -0.00169249  -0.00141702  0.25008454  1
  Ir  Ir140  1  0.83334641  0.16514777  0.00298453  1
  Ir  Ir141  1  0.66955055  0.33240787  0.75373605  1
  Ir  Ir142  1  0.67301284  -0.00071603  0.49789403  1
  Ir  Ir143  1  0.66804979  0.00595310  0.00775653  1
  O  O144  1  0.31063604  0.31314285  0.12921201  1
  O  O145  1  0.30144531  0.32354985  0.63202447  1
  O  O146  1  0.29319899  0.67213342  0.13205247  1
  O  O147  1  0.30639358  0.66870623  0.61336534  1
  O  O148  1  0.31240547  0.98728921  0.12933280  1
  O  O149  1  0.31542517  1.00433221  0.61968195  1
  O  O150  1  0.63873930  0.32025980  0.12371065  1
  O  O151  1  0.65550571  0.33355198  0.63192280  1
  O  O152  1  0.63600770  0.65647637  0.12299276  1
  O  O153  1  0.66122262  0.64165326  0.61792023  1
  O  O154  1  0.63530781  0.99695440  0.12852185  1
  O  O155  1  0.64157208  0.99696051  0.61721608  1
  O  O156  1  0.98433726  0.32512291  0.13093976  1
  O  O157  1  0.97684961  0.31710492  0.63379352  1
  O  O158  1  0.96828256  0.66477548  0.13178911  1
  O  O159  1  0.96509365  0.66687262  0.61498085  1
  O  O160  1  0.96777922  1.00042938  0.12605479  1
  O  O161  1  0.96963038  1.00202060  0.62755308  1
  O  O162  1  0.19670159  0.16587463  0.13355360  1
  O  O163  1  0.18114987  0.16143336  0.62014953  1
  O  O164  1  0.17851631  0.50327827  0.13615838  1
  O  O165  1  0.18342173  0.48320850  0.62457269  1
  O  O166  1  0.19011184  0.81985740  0.12572905  1
  O  O167  1  0.17655769  0.83529172  0.61481248  1
  O  O168  1  0.53837066  0.15234109  0.12897115  1
  O  O169  1  0.51456945  0.14984331  0.63531227  1
  O  O170  1  0.54132028  0.48619653  0.12516617  1
  O  O171  1  0.53461556  0.49383049  0.62020836  1
  O  O172  1  0.53459652  0.82285490  0.13103392  1
  O  O173  1  0.53356262  0.83970424  0.61699401  1
  O  O174  1  0.86477920  0.16029560  0.12639236  1
  O  O175  1  0.86553588  0.15627726  0.62101426  1
  O  O176  1  0.85380836  0.50155943  0.12836109  1
  O  O177  1  0.84775218  0.50481979  0.61848349  1
  O  O178  1  0.85458918  0.81967080  0.12403841  1
  O  O179  1  0.85866874  0.82002401  0.61621756  1
  O  O180  1  0.14254964  0.16576303  0.37792900  1
  O  O181  1  0.12776374  0.18528296  0.87521221  1
  O  O182  1  0.14383876  0.51572588  0.37770583  1
  O  O183  1  0.13431535  0.50298500  0.86624231  1
  O  O184  1  0.12941128  0.83512218  0.37031038  1
  O  O185  1  0.13379066  0.84714334  0.88257010  1
  O  O186  1  0.48767735  0.17348212  0.36553509  1
  O  O187  1  0.47130311  0.17605577  0.87558153  1
  O  O188  1  0.47580823  0.51651853  0.36836810  1
  O  O189  1  0.47698517  0.50177647  0.87664070  1
  O  O190  1  0.47903725  0.84210704  0.36523761  1
  O  O191  1  0.48573341  0.83646580  0.87801658  1
  O  O192  1  0.81825984  0.15161343  0.37320223  1
  O  O193  1  0.80558342  0.17047689  0.88208816  1
  O  O194  1  0.81509150  0.50645165  0.37205777  1
  O  O195  1  0.80949973  0.51397561  0.87593125  1
  O  O196  1  0.81471999  0.85137457  0.37954180  1
  O  O197  1  0.80610769  0.84067515  0.87585336  1
  O  O198  1  0.01948529  -0.00398387  0.37507340  1
  O  O199  1  0.03173914  0.01383411  0.87709259  1
  O  O200  1  0.01075958  0.32576489  0.37349782  1
  O  O201  1  0.03819300  0.34066667  0.86796132  1
  O  O202  1  0.02625098  0.67919387  0.37281226  1
  O  O203  1  0.04036108  0.67828811  0.87486640  1
  O  O204  1  0.34731936  -0.00365713  0.37945163  1
  O  O205  1  0.35494615  0.00771571  0.87901849  1
  O  O206  1  0.36806450  0.33176588  0.37243615  1
  O  O207  1  0.34342585  0.35378317  0.87014793  1
  O  O208  1  0.35748854  0.67230891  0.37030603  1
  O  O209  1  0.34668962  0.66182516  0.87667375  1
  O  O210  1  0.70382241  0.00077570  0.37319855  1
  O  O211  1  0.68701077  0.01744789  0.88641052  1
  O  O212  1  0.69252230  0.33026975  0.36456199  1
  O  O213  1  0.70063729  0.32968967  0.87986591  1
  O  O214  1  0.70736049  0.67563018  0.37083734  1
  O  O215  1  0.70053422  0.67281429  0.88639943  1
  O  O216  1  0.05867245  0.09797254  0.02192748  1
  O  O217  1  0.06557545  0.09395416  0.52304215  1
  O  O218  1  0.06091694  0.43625841  0.00650697  1
  O  O219  1  0.08123027  0.42031453  0.51629362  1
  O  O220  1  0.06960001  0.76925552  0.01685788  1
  O  O221  1  0.06232014  0.76782833  0.50515145  1
  O  O222  1  0.40208821  0.10252832  0.03111582  1
  O  O223  1  0.41285452  0.07808112  0.51459541  1
  O  O224  1  0.40812345  0.42781295  0.01959827  1
  O  O225  1  0.40642227  0.42541575  0.51895776  1
  O  O226  1  0.40008502  0.76606059  0.03378511  1
  O  O227  1  0.40040325  0.75527758  0.50781389  1
  O  O228  1  0.73683640  0.10024791  0.03171266  1
  O  O229  1  0.74791667  0.08542906  0.52517597  1
  O  O230  1  0.73169848  0.42714647  0.02611319  1
  O  O231  1  0.73933739  0.43793715  0.51768500  1
  O  O232  1  0.73130739  0.76093303  0.03286810  1
  O  O233  1  0.74041430  0.77022931  0.52433560  1
  O  O234  1  0.08839116  0.25373484  0.02837681  1
  O  O235  1  0.09250631  0.25234740  0.52615186  1
  O  O236  1  0.10604546  0.60540469  0.02164173  1
  O  O237  1  0.08869678  0.59846585  0.51093041  1
  O  O238  1  0.09853017  0.93710895  0.01238075  1
  O  O239  1  0.09155204  0.93046936  0.51196944  1
  O  O240  1  0.43523759  0.26593509  0.03007564  1
  O  O241  1  0.42143987  0.24994034  0.51153189  1
  O  O242  1  0.43310249  0.60340409  0.03438842  1
  O  O243  1  0.41435224  0.59927264  0.50577317  1
  O  O244  1  0.43189915  0.93248578  0.03236034  1
  O  O245  1  0.42207165  0.92791128  0.51873250  1
  O  O246  1  0.76811559  0.26250467  0.01736797  1
  O  O247  1  0.76525632  0.24949413  0.51286166  1
  O  O248  1  0.76303644  0.60307602  0.02882346  1
  O  O249  1  0.77716347  0.60159587  0.50654348  1
  O  O250  1  0.76076218  0.93739577  0.03356835  1
  O  O251  1  0.76829829  0.92959317  0.52759416  1
  O  O252  1  0.24185507  0.08279810  0.26686919  1
  O  O253  1  0.23682475  0.07417026  0.78048108  1
  O  O254  1  0.23889434  0.41775908  0.27029898  1
  O  O255  1  0.22520658  0.39190584  0.76266686  1
  O  O256  1  0.22653914  0.73679185  0.27296857  1
  O  O257  1  0.22883862  0.72931835  0.77211520  1
  O  O258  1  0.57599181  0.07124993  0.26825133  1
  O  O259  1  0.57655773  0.08889548  0.77634034  1
  O  O260  1  0.57168789  0.38977136  0.26722530  1
  O  O261  1  0.57779358  0.39710030  0.76402604  1
  O  O262  1  0.55758808  0.73524951  0.27005752  1
  O  O263  1  0.57643139  0.73773705  0.75886222  1
  O  O264  1  0.89807440  0.06197726  0.26523261  1
  O  O265  1  0.91254001  0.07266152  0.77089637  1
  O  O266  1  0.90690259  0.40420303  0.26780306  1
  O  O267  1  0.91008687  0.39620922  0.77969399  1
  O  O268  1  0.90410752  0.73563273  0.27601633  1
  O  O269  1  0.90421648  0.73597374  0.78149748  1
  O  O270  1  0.25364525  0.23911144  0.27127609  1
  O  O271  1  0.26441715  0.23885392  0.78134008  1
  O  O272  1  0.25304782  0.58332673  0.27833982  1
  O  O273  1  0.25508066  0.55666716  0.77361965  1
  O  O274  1  0.25251022  0.89974887  0.25667025  1
  O  O275  1  0.25378579  0.90829766  0.76997434  1
  O  O276  1  0.60353358  0.23318157  0.26508955  1
  O  O277  1  0.60211681  0.23665378  0.77503317  1
  O  O278  1  0.59549289  0.57566363  0.26195082  1
  O  O279  1  0.60518333  0.56429465  0.75753875  1
  O  O280  1  0.60053928  0.90213943  0.25995117  1
  O  O281  1  0.60115453  0.90924859  0.75738318  1
  O  O282  1  0.93100797  0.23084375  0.25977584  1
  O  O283  1  0.93793833  0.23847377  0.78252824  1
  O  O284  1  0.92651463  0.57569048  0.27516762  1
  O  O285  1  0.93924014  0.56340112  0.77530119  1
  O  O286  1  0.92992339  0.90760444  0.27474786  1
  O  O287  1  0.93844523  0.90651187  0.77482244  1
  O  O288  1  0.24849458  0.24029940  0.48610705  1
  O  O289  1  0.26718969  0.23225370  0.97053978  1
  O  O290  1  0.24690976  0.58630188  0.47536200  1
  O  O291  1  0.26439701  0.56389524  0.97376790  1
  O  O292  1  0.25281356  0.90649944  0.48070208  1
  O  O293  1  0.25454705  0.89892385  0.99019656  1
  O  O294  1  0.59084597  0.24263652  0.48644614  1
  O  O295  1  0.61139454  0.23092511  0.98391817  1
  O  O296  1  0.58679733  0.57895415  0.47015448  1
  O  O297  1  0.60607515  0.57401092  0.98780894  1
  O  O298  1  0.59979568  0.91476477  0.48239240  1
  O  O299  1  0.60430817  0.91140251  0.99683088  1
  O  O300  1  0.92653008  0.22917276  0.49103961  1
  O  O301  1  0.92645589  0.23109270  0.97413025  1
  O  O302  1  0.92694472  0.57706397  0.47180878  1
  O  O303  1  0.93236099  0.56746806  0.97004864  1
  O  O304  1  0.92977357  0.90298256  0.47297457  1
  O  O305  1  0.93799185  0.90532704  0.97554511  1
  O  O306  1  0.23957400  0.07447267  0.48089357  1
  O  O307  1  0.23147267  0.06824870  0.97285763  1
  O  O308  1  0.23534887  0.41266501  0.48896832  1
  O  O309  1  0.22770950  0.39593910  0.98420184  1
  O  O310  1  0.22844425  0.74178950  0.47116723  1
  O  O311  1  0.22207879  0.73718342  0.98137891  1
  O  O312  1  0.58346104  0.07054267  0.48387798  1
  O  O313  1  0.57685103  0.07268754  0.98732535  1
  O  O314  1  0.57060004  0.39747170  0.46595805  1
  O  O315  1  0.57803918  0.39331180  0.99034046  1
  O  O316  1  0.56846048  0.73593348  0.46953594  1
  O  O317  1  0.57376531  0.73307515  0.99163642  1
  O  O318  1  0.89930256  0.05829601  0.48424651  1
  O  O319  1  0.89969700  0.06734225  0.98888647  1
  O  O320  1  0.90352636  0.41059538  0.49000771  1
  O  O321  1  0.90122138  0.39668936  0.97110414  1
  O  O322  1  0.90053289  0.74006197  0.46676977  1
  O  O323  1  0.90302436  0.73390032  0.97476361  1
  O  O324  1  0.08795193  0.25073348  0.23091948  1
  O  O325  1  0.09794146  0.26779622  0.72202371  1
  O  O326  1  0.09610621  0.60343552  0.23485861  1
  O  O327  1  0.10225945  0.58846965  0.73122055  1
  O  O328  1  0.09128550  0.92799386  0.23190917  1
  O  O329  1  0.09297797  0.93840559  0.74476946  1
  O  O330  1  0.44024973  0.25383332  0.22172627  1
  O  O331  1  0.42486938  0.26458171  0.73421001  1
  O  O332  1  0.42178522  0.60895726  0.22705036  1
  O  O333  1  0.42143787  0.58706043  0.73172826  1
  O  O334  1  0.43615655  0.92808168  0.22370937  1
  O  O335  1  0.43586115  0.93835944  0.72207865  1
  O  O336  1  0.76216749  0.25453820  0.22419908  1
  O  O337  1  0.76509177  0.26782293  0.74629642  1
  O  O338  1  0.76834592  0.59515405  0.22471689  1
  O  O339  1  0.78117799  0.60883979  0.73698346  1
  O  O340  1  0.76169205  0.93718874  0.22384683  1
  O  O341  1  0.76705385  0.93194499  0.71744091  1
  O  O342  1  0.06818538  0.09514202  0.22815238  1
  O  O343  1  0.06060054  0.10047154  0.73207680  1
  O  O344  1  0.07273209  0.42480460  0.24026882  1
  O  O345  1  0.06867456  0.42407539  0.72357541  1
  O  O346  1  0.06799920  0.75897847  0.22963156  1
  O  O347  1  0.06377348  0.76683294  0.73754841  1
  O  O348  1  0.41573503  0.09643375  0.22337425  1
  O  O349  1  0.40462242  0.10526607  0.74835706  1
  O  O350  1  0.41531602  0.42151949  0.21716278  1
  O  O351  1  0.39706403  0.42310725  0.73515318  1
  O  O352  1  0.40098850  0.76959598  0.22158880  1
  O  O353  1  0.40396720  0.76260185  0.73144684  1
  O  O354  1  0.73773869  0.09606931  0.22156785  1
  O  O355  1  0.74759283  0.09332560  0.73214977  1
  O  O356  1  0.73492679  0.43095676  0.22419249  1
  O  O357  1  0.73545971  0.42845140  0.73252172  1
  O  O358  1  0.73458837  0.76707573  0.22052564  1
  O  O359  1  0.73873139  0.76532082  0.71363671  1
