# generated using pymatgen
data_BaLaInIrO6
_symmetry_space_group_name_H-M   'P 1'
_cell_length_a   17.50985631
_cell_length_b   17.53004905
_cell_length_c   16.47633021
_cell_angle_alpha   89.99360514
_cell_angle_beta   90.01633156
_cell_angle_gamma   89.99979681
_symmetry_Int_Tables_number   1
_chemical_formula_structural   BaLaInIrO6
_chemical_formula_sum   'Ba36 La36 In36 Ir36 O216'
_cell_volume   5057.38691212
_cell_formula_units_Z   36
loop_
 _symmetry_equiv_pos_site_id
 _symmetry_equiv_pos_as_xyz
  1  'x, y, z'
loop_
 _atom_site_type_symbol
 _atom_site_label
 _atom_site_symmetry_multiplicity
 _atom_site_fract_x
 _atom_site_fract_y
 _atom_site_fract_z
 _atom_site_occupancy
  Ba  Ba0  1  1.00092044  0.51481617  0.12743269  1
  Ba  Ba1  1  0.16880556  0.32593519  0.37354197  1
  Ba  Ba2  1  0.83119012  0.34494413  0.62002468  1
  Ba  Ba3  1  1.00855117  0.17655182  0.12446608  1
  Ba  Ba4  1  0.50128288  0.32729847  0.87638272  1
  Ba  Ba5  1  0.33597731  0.17726739  0.12446359  1
  Ba  Ba6  1  0.49860907  0.01110495  0.62571460  1
  Ba  Ba7  1  1.00273538  0.17822232  0.62342902  1
  Ba  Ba8  1  0.33253589  0.84085591  0.62809808  1
  Ba  Ba9  1  0.33229166  0.49819721  0.87577061  1
  Ba  Ba10  1  0.83456832  0.67516891  0.62721234  1
  Ba  Ba11  1  0.16908245  0.66082228  0.87578505  1
  Ba  Ba12  1  0.16768859  0.00569448  0.12556018  1
  Ba  Ba13  1  0.50024535  0.67324460  0.12395107  1
  Ba  Ba14  1  0.33545782  0.17803267  0.62421762  1
  Ba  Ba15  1  0.82817226  0.67175703  0.12257323  1
  Ba  Ba16  1  0.66745477  0.84140966  0.62568161  1
  Ba  Ba17  1  0.49891366  0.99452091  0.87296571  1
  Ba  Ba18  1  0.16221666  0.34501310  0.62310623  1
  Ba  Ba19  1  0.33437139  0.15837597  0.37552012  1
  Ba  Ba20  1  0.66639547  0.49427613  0.87414177  1
  Ba  Ba21  1  0.50450093  0.32320337  0.37498832  1
  Ba  Ba22  1  0.66777870  0.83858004  0.12230041  1
  Ba  Ba23  1  0.83800074  0.34099093  0.12089204  1
  Ba  Ba24  1  0.17234433  0.32785507  0.87366037  1
  Ba  Ba25  1  0.67034261  0.50489216  0.12211986  1
  Ba  Ba26  1  0.67191449  0.17258388  0.12224899  1
  Ba  Ba27  1  0.83570911  0.32361841  0.37239193  1
  Ba  Ba28  1  0.16537079  0.67024175  0.62699449  1
  Ba  Ba29  1  0.32994894  0.15935352  0.87277447  1
  Ba  Ba30  1  0.00304421  0.15556187  0.87176245  1
  Ba  Ba31  1  0.33320296  0.82473248  0.87541791  1
  Ba  Ba32  1  0.49842733  0.66048951  0.87717426  1
  Ba  Ba33  1  1.00191743  0.51717229  0.62070888  1
  Ba  Ba34  1  0.66826632  0.17252510  0.62525924  1
  Ba  Ba35  1  0.33170881  0.82557188  0.37857418  1
  La  La36  1  0.83926318  0.31571716  0.87704512  1
  La  La37  1  -0.00911295  0.48662336  0.86850368  1
  La  La38  1  0.49874114  0.34407744  0.62933742  1
  La  La39  1  1.00811963  0.83801747  0.62610154  1
  La  La40  1  0.66351584  0.15037614  0.37560805  1
  La  La41  1  0.49802260  0.35770907  0.12424734  1
  La  La42  1  0.83031968  0.00895667  0.12391528  1
  La  La43  1  0.32862054  0.50762718  0.62887810  1
  La  La44  1  0.99842586  0.84190497  0.12651766  1
  La  La45  1  0.16878240  0.98839908  0.37775385  1
  La  La46  1  0.33816111  0.84476435  0.12188323  1
  La  La47  1  0.65983426  0.81801104  0.87353237  1
  La  La48  1  0.16085589  0.35162905  0.12586415  1
  La  La49  1  0.83453540  0.64942387  0.37527661  1
  La  La50  1  0.50250374  0.65215166  0.37686268  1
  La  La51  1  -0.00380036  0.48522221  0.37909268  1
  La  La52  1  -0.00442912  0.14952835  0.38025776  1
  La  La53  1  0.83670281  0.98148863  0.87463682  1
  La  La54  1  0.15951461  0.68275000  0.12750465  1
  La  La55  1  0.66697342  0.48261587  0.37331301  1
  La  La56  1  0.66379722  0.15568940  0.87233069  1
  La  La57  1  0.33302583  0.51111731  0.12375445  1
  La  La58  1  0.49088838  0.01128984  0.12434234  1
  La  La59  1  0.16361271  0.01043757  0.62403878  1
  La  La60  1  0.17475599  0.99039991  0.87623013  1
  La  La61  1  0.66930077  0.51626014  0.62288993  1
  La  La62  1  0.50452227  0.98624781  0.37526961  1
  La  La63  1  0.83393039  0.65353775  0.87563866  1
  La  La64  1  0.66375840  0.81522844  0.37480518  1
  La  La65  1  0.32821136  0.48807075  0.37491614  1
  La  La66  1  0.00116847  0.82084215  0.88048517  1
  La  La67  1  0.83319810  0.98617790  0.37573052  1
  La  La68  1  0.17010825  0.64886187  0.37921689  1
  La  La69  1  0.49164199  0.67630801  0.63104204  1
  La  La70  1  -0.00437436  0.81404799  0.37488824  1
  La  La71  1  0.82664288  0.01587558  0.62754102  1
  In  In72  1  0.33316245  0.33685342  0.00283990  1
  In  In73  1  0.83814580  0.16055980  -0.00222845  1
  In  In74  1  0.66814386  0.33330294  0.74759224  1
  In  In75  1  -0.00151690  -0.00437429  0.74978637  1
  In  In76  1  0.33432848  0.33443827  0.24829858  1
  In  In77  1  -0.00455003  -0.00534016  0.50237190  1
  In  In78  1  0.50299171  0.16672299  0.24846364  1
  In  In79  1  0.33350804  0.33639701  0.74984784  1
  In  In80  1  0.83531569  0.49940593  -0.00234252  1
  In  In81  1  0.33305618  -0.00143606  0.25305192  1
  In  In82  1  0.16549927  0.82901121  0.49847162  1
  In  In83  1  0.83805310  0.16503189  0.25001947  1
  In  In84  1  0.66716665  -0.00424130  0.24601300  1
  In  In85  1  0.50297439  0.16867982  -0.00074802  1
  In  In86  1  0.50123442  0.49960112  0.49996625  1
  In  In87  1  0.50067843  0.83454273  0.00056978  1
  In  In88  1  0.00568501  0.33269975  -0.00188502  1
  In  In89  1  0.16650280  0.16670167  0.74840883  1
  In  In90  1  0.16568092  0.16548775  0.25164965  1
  In  In91  1  0.16029386  0.50297128  0.75437759  1
  In  In92  1  0.83500025  0.49976362  0.25009414  1
  In  In93  1  0.50076996  0.82976843  0.50072212  1
  In  In94  1  0.16464279  0.16728636  0.49661682  1
  In  In95  1  0.83216796  0.83080649  0.24974181  1
  In  In96  1  0.00250013  -0.00399738  -0.00033689  1
  In  In97  1  0.83435726  0.83128202  0.50316950  1
  In  In98  1  0.33494440  -0.00028371  0.50094675  1
  In  In99  1  0.66940040  0.33154303  -0.00222710  1
  In  In100  1  0.66818577  0.32887796  0.24720642  1
  In  In101  1  0.32976094  0.67095216  0.25237064  1
  In  In102  1  0.66943539  -0.00291892  0.50024288  1
  In  In103  1  0.66839933  -0.00395948  0.75251398  1
  In  In104  1  0.50192929  0.50124778  0.75049962  1
  In  In105  1  0.83059122  0.49975812  0.74527262  1
  In  In106  1  0.66479905  0.66466422  0.24993631  1
  In  In107  1  0.16574150  0.83309208  0.75108011  1
  Ir  Ir108  1  0.32497717  0.66751588  0.00336311  1
  Ir  Ir109  1  0.50129180  0.16621860  0.74919158  1
  Ir  Ir110  1  0.66588953  0.33127801  0.49990246  1
  Ir  Ir111  1  0.00075989  0.66949406  0.00083436  1
  Ir  Ir112  1  0.16986763  0.16512993  0.00114414  1
  Ir  Ir113  1  0.33064620  -0.00244230  -0.00044739  1
  Ir  Ir114  1  -0.00369627  0.33447533  0.74748040  1
  Ir  Ir115  1  0.33459615  0.33926450  0.50023711  1
  Ir  Ir116  1  0.66651547  0.66428697  0.49930753  1
  Ir  Ir117  1  0.16638318  0.50207149  0.49530024  1
  Ir  Ir118  1  -0.00144729  0.33695280  0.49866337  1
  Ir  Ir119  1  0.83355984  0.16666794  0.74814236  1
  Ir  Ir120  1  0.49885682  0.83195736  0.25050821  1
  Ir  Ir121  1  0.49993262  0.83066230  0.75154655  1
  Ir  Ir122  1  0.83241737  0.82865652  -0.00502473  1
  Ir  Ir123  1  0.66788227  0.66885559  -0.00503399  1
  Ir  Ir124  1  0.33374925  0.66648862  0.74972761  1
  Ir  Ir125  1  0.16581562  0.50470028  0.25174275  1
  Ir  Ir126  1  0.00265202  0.66711668  0.25265814  1
  Ir  Ir127  1  0.33576649  0.66200524  0.50135507  1
  Ir  Ir128  1  0.49843491  0.50802913  0.00462270  1
  Ir  Ir129  1  0.16591857  0.83190177  0.00706169  1
  Ir  Ir130  1  -0.00082221  0.66564706  0.49556043  1
  Ir  Ir131  1  0.83562921  0.83003729  0.75490228  1
  Ir  Ir132  1  -0.00374150  0.67134791  0.75457054  1
  Ir  Ir133  1  0.16341610  0.50702737  0.00514008  1
  Ir  Ir134  1  0.83124413  0.16831580  0.49849784  1
  Ir  Ir135  1  0.49574687  0.50492757  0.25081918  1
  Ir  Ir136  1  0.33265170  -0.00175194  0.75400145  1
  Ir  Ir137  1  0.50148026  0.17042521  0.50126765  1
  Ir  Ir138  1  0.00066999  -0.00684392  0.25322142  1
  Ir  Ir139  1  0.00654598  0.33509257  0.25283181  1
  Ir  Ir140  1  0.16065644  0.83187647  0.24978329  1
  Ir  Ir141  1  0.82998640  0.50203275  0.49984934  1
  Ir  Ir142  1  0.66578903  0.67199938  0.74659801  1
  Ir  Ir143  1  0.67045437  -0.00473897  -0.00230628  1
  O  O144  1  0.29826373  0.34960347  0.12502498  1
  O  O145  1  0.31420612  0.33941241  0.61707892  1
  O  O146  1  0.29711452  0.65826437  0.12433928  1
  O  O147  1  0.31354955  0.65065403  0.62446064  1
  O  O148  1  0.31707435  0.98532738  0.12068805  1
  O  O149  1  0.30355438  0.99841742  0.63394133  1
  O  O150  1  0.63056580  0.32899497  0.12388598  1
  O  O151  1  0.63582095  0.32545807  0.61791046  1
  O  O152  1  0.65305974  0.66426063  0.11758396  1
  O  O153  1  0.63226850  0.65927650  0.62324714  1
  O  O154  1  0.63231803  0.99135873  0.11584360  1
  O  O155  1  0.65232930  0.99859078  0.62678170  1
  O  O156  1  0.98958760  0.33482440  0.13215403  1
  O  O157  1  0.97739387  0.33406973  0.62194638  1
  O  O158  1  0.97678463  0.67171319  0.12683492  1
  O  O159  1  0.98228836  0.67789814  0.62659205  1
  O  O160  1  0.96743122  0.98379872  0.13106832  1
  O  O161  1  0.95703742  0.97762090  0.62671340  1
  O  O162  1  0.18398974  0.16025094  0.12048951  1
  O  O163  1  0.18427041  0.15013187  0.62148316  1
  O  O164  1  0.19602481  0.49976030  0.12855120  1
  O  O165  1  0.19012726  0.50272921  0.61665837  1
  O  O166  1  0.19968363  0.81989466  0.12891542  1
  O  O167  1  0.18104382  0.81936527  0.62467716  1
  O  O168  1  0.52465334  0.14226206  0.12191817  1
  O  O169  1  0.51976437  0.17280272  0.62353068  1
  O  O170  1  0.52167613  0.50445607  0.12927868  1
  O  O171  1  0.53459356  0.49545495  0.62245874  1
  O  O172  1  0.51703803  0.83019037  0.13072325  1
  O  O173  1  0.51982551  0.81757705  0.63089860  1
  O  O174  1  0.86302740  0.14347830  0.12480349  1
  O  O175  1  0.85620811  0.15437743  0.62317919  1
  O  O176  1  0.85114052  0.50670686  0.12414527  1
  O  O177  1  0.85333700  0.50575837  0.61844493  1
  O  O178  1  0.86190907  0.82413942  0.11682558  1
  O  O179  1  0.87040818  0.82551817  0.63476793  1
  O  O180  1  0.12756231  0.17134152  0.37357420  1
  O  O181  1  0.15360657  0.16439253  0.88170051  1
  O  O182  1  0.13402685  0.51026547  0.37216112  1
  O  O183  1  0.12854720  0.50759713  0.88584368  1
  O  O184  1  0.12951991  0.84474711  0.36842726  1
  O  O185  1  0.13802730  0.84283945  0.88429546  1
  O  O186  1  0.48286077  0.17099416  0.38347772  1
  O  O187  1  0.47988786  0.16445012  0.86804136  1
  O  O188  1  0.46634272  0.51007378  0.37200583  1
  O  O189  1  0.48209324  0.50548390  0.88289664  1
  O  O190  1  0.47960609  0.83920975  0.36892630  1
  O  O191  1  0.48302748  0.83103640  0.87200391  1
  O  O192  1  0.80375305  0.16915028  0.38000824  1
  O  O193  1  0.80465348  0.17527036  0.86704301  1
  O  O194  1  0.80356192  0.50823459  0.38128025  1
  O  O195  1  0.81973934  0.51525989  0.87034273  1
  O  O196  1  0.79802307  0.84759640  0.37674012  1
  O  O197  1  0.79840681  0.84030427  0.87468970  1
  O  O198  1  0.03248738  0.00231896  0.37075466  1
  O  O199  1  0.03625740  -0.01338280  0.87538528  1
  O  O200  1  0.02182784  0.34875546  0.37672322  1
  O  O201  1  0.02044163  0.34333337  0.86612283  1
  O  O202  1  0.03395411  0.67161915  0.37421714  1
  O  O203  1  0.02220703  0.68221122  0.87759650  1
  O  O204  1  0.37058178  -0.00318601  0.37517481  1
  O  O205  1  0.35084034  -0.00180427  0.87760646  1
  O  O206  1  0.35509310  0.34995453  0.37905914  1
  O  O207  1  0.35036022  0.34221454  0.87801315  1
  O  O208  1  0.36498729  0.66639281  0.38101067  1
  O  O209  1  0.35102025  0.66904044  0.87519205  1
  O  O210  1  0.69916104  0.00800045  0.37548714  1
  O  O211  1  0.70268716  0.00599975  0.87806912  1
  O  O212  1  0.68420158  0.34469152  0.38111326  1
  O  O213  1  0.70418883  0.33884778  0.87018736  1
  O  O214  1  0.69685100  0.67472057  0.38232667  1
  O  O215  1  0.69571248  0.68055051  0.86933608  1
  O  O216  1  0.07860028  0.09239949  0.01286548  1
  O  O217  1  0.06652879  0.09059612  0.51204942  1
  O  O218  1  0.08090891  0.43017880  0.02524899  1
  O  O219  1  0.06625388  0.43606074  0.50943740  1
  O  O220  1  0.07145333  0.76194104  0.03132644  1
  O  O221  1  0.05858665  0.76452169  0.51018532  1
  O  O222  1  0.40889042  0.08140151  0.01731822  1
  O  O223  1  0.41181675  0.09985399  0.51732976  1
  O  O224  1  0.40930592  0.43792859  0.03110577  1
  O  O225  1  0.39975387  0.43380117  0.52214334  1
  O  O226  1  0.39689381  0.75936040  0.02423273  1
  O  O227  1  0.40752063  0.74918133  0.52367250  1
  O  O228  1  0.74367852  0.07846703  0.02075925  1
  O  O229  1  0.74401261  0.09789204  0.51533272  1
  O  O230  1  0.74341036  0.42485988  0.01462973  1
  O  O231  1  0.72976526  0.43557441  0.51871655  1
  O  O232  1  0.73704335  0.76319484  0.00757174  1
  O  O233  1  0.73487485  0.75620197  0.51730550  1
  O  O234  1  0.10654862  0.26264564  0.02030478  1
  O  O235  1  0.08748425  0.26682904  0.51377881  1
  O  O236  1  0.09679091  0.60407798  0.02860853  1
  O  O237  1  0.09776331  0.59840174  0.50887935  1
  O  O238  1  0.08782407  0.91221472  0.03244086  1
  O  O239  1  0.09311449  0.92646000  0.53021729  1
  O  O240  1  0.43517586  0.26894393  0.02889825  1
  O  O241  1  0.43283684  0.27233432  0.52312978  1
  O  O242  1  0.41232551  0.59284329  0.02759159  1
  O  O243  1  0.43011440  0.59797339  0.52594992  1
  O  O244  1  0.42262889  0.92579207  0.02339435  1
  O  O245  1  0.42740269  0.92289116  0.51801520  1
  O  O246  1  0.76528187  0.25510917  0.01173624  1
  O  O247  1  0.76069822  0.26198308  0.51592434  1
  O  O248  1  0.75946992  0.60103480  -0.00047697  1
  O  O249  1  0.75639536  0.59276093  0.52399244  1
  O  O250  1  0.76841971  0.92588928  0.01975382  1
  O  O251  1  0.77411067  0.93489601  0.52496988  1
  O  O252  1  0.23283970  0.06447731  0.27650421  1
  O  O253  1  0.24004960  0.06367304  0.77279355  1
  O  O254  1  0.24076265  0.41995276  0.27169481  1
  O  O255  1  0.24091503  0.41752227  0.76026387  1
  O  O256  1  0.22416037  0.73698227  0.27551103  1
  O  O257  1  0.24680510  0.74146217  0.76564940  1
  O  O258  1  0.57103883  0.06384258  0.28083738  1
  O  O259  1  0.57725524  0.07927071  0.76867077  1
  O  O260  1  0.56727599  0.41654027  0.26595659  1
  O  O261  1  0.56817552  0.40102184  0.75920243  1
  O  O262  1  0.56270732  0.73525386  0.27734611  1
  O  O263  1  0.57542104  0.74288994  0.77130229  1
  O  O264  1  0.91147733  0.06311114  0.28434134  1
  O  O265  1  0.89854072  0.06973181  0.77257407  1
  O  O266  1  0.91839602  0.40980244  0.27081604  1
  O  O267  1  0.90391945  0.40208702  0.77242254  1
  O  O268  1  0.90833734  0.73364204  0.28176870  1
  O  O269  1  0.89943344  0.73551690  0.78138024  1
  O  O270  1  0.26200790  0.23990966  0.26416569  1
  O  O271  1  0.25788541  0.24292453  0.75951870  1
  O  O272  1  0.25582142  0.57425916  0.28165553  1
  O  O273  1  0.26052473  0.57931581  0.75949507  1
  O  O274  1  0.25103521  0.90158267  0.26721606  1
  O  O275  1  0.25670729  0.91418172  0.77436854  1
  O  O276  1  0.60484872  0.22874578  0.27673786  1
  O  O277  1  0.59491189  0.23124122  0.77168877  1
  O  O278  1  0.58776734  0.57256583  0.28317684  1
  O  O279  1  0.59541709  0.58289453  0.76220806  1
  O  O280  1  0.59537415  0.89484515  0.27588703  1
  O  O281  1  0.59361524  0.89911821  0.77326510  1
  O  O282  1  0.94346982  0.23834146  0.27527898  1
  O  O283  1  0.92212910  0.24284943  0.77198504  1
  O  O284  1  0.93551739  0.57571364  0.28214684  1
  O  O285  1  0.92998958  0.57743593  0.77169361  1
  O  O286  1  0.93498460  0.89950988  0.27488139  1
  O  O287  1  0.92625621  0.89512972  0.78634291  1
  O  O288  1  0.26416038  0.24864795  0.48266049  1
  O  O289  1  0.25990394  0.23579285  0.98959250  1
  O  O290  1  0.26532423  0.56771485  0.47395279  1
  O  O291  1  0.25503759  0.57532007  0.98547898  1
  O  O292  1  0.25135519  0.91043403  0.47604122  1
  O  O293  1  0.25275439  0.90864517  0.98011871  1
  O  O294  1  0.60342235  0.23458639  0.47639841  1
  O  O295  1  0.60108270  0.23386131  0.96759302  1
  O  O296  1  0.59900611  0.57260773  0.46987454  1
  O  O297  1  0.59407966  0.57903801  0.98174874  1
  O  O298  1  0.59794410  0.90072730  0.47221615  1
  O  O299  1  0.60186634  0.90547722  0.97242514  1
  O  O300  1  0.93074641  0.23652500  0.47701769  1
  O  O301  1  0.92849590  0.24184736  0.97840736  1
  O  O302  1  0.92649315  0.57134945  0.47056305  1
  O  O303  1  0.93594047  0.57814106  0.97087920  1
  O  O304  1  0.93003381  0.89901391  0.46324273  1
  O  O305  1  0.92492801  0.89461164  0.97645612  1
  O  O306  1  0.23569534  0.06836356  0.47400347  1
  O  O307  1  0.23526956  0.06624672  0.97853576  1
  O  O308  1  0.24304943  0.41387968  0.47359938  1
  O  O309  1  0.23355890  0.41968587  0.98692725  1
  O  O310  1  0.23925843  0.72676005  0.47580974  1
  O  O311  1  0.23749763  0.74250487  0.98606575  1
  O  O312  1  0.56978333  0.07650023  0.47634425  1
  O  O313  1  0.58825460  0.07100145  0.97308787  1
  O  O314  1  0.57800832  0.40396609  0.48253088  1
  O  O315  1  0.56752784  0.41727990  0.99341097  1
  O  O316  1  0.57359039  0.73101139  0.47226176  1
  O  O317  1  0.58034541  0.74291732  0.98286712  1
  O  O318  1  0.89800887  0.07431136  0.47486047  1
  O  O319  1  0.90364625  0.05985227  0.97093115  1
  O  O320  1  0.90605283  0.41466832  0.47515162  1
  O  O321  1  0.91300927  0.40830129  0.96858191  1
  O  O322  1  0.90510453  0.73105344  0.47032577  1
  O  O323  1  0.90324818  0.73590965  0.96970341  1
  O  O324  1  0.09931357  0.27082053  0.22755266  1
  O  O325  1  0.08517101  0.26306882  0.73560539  1
  O  O326  1  0.10056834  0.60294897  0.22960453  1
  O  O327  1  0.08639205  0.60051517  0.73925169  1
  O  O328  1  0.08705958  0.91866235  0.22113056  1
  O  O329  1  0.09311898  0.92470276  0.71479397  1
  O  O330  1  0.43752097  0.27081511  0.22399894  1
  O  O331  1  0.43673366  0.26196466  0.72919343  1
  O  O332  1  0.42308737  0.59278202  0.23312452  1
  O  O333  1  0.42312964  0.59389769  0.72609568  1
  O  O334  1  0.43473858  0.92563422  0.22710224  1
  O  O335  1  0.42673602  0.92295518  0.73275629  1
  O  O336  1  0.76893853  0.26209194  0.23105729  1
  O  O337  1  0.76654940  0.25675556  0.72996698  1
  O  O338  1  0.76646236  0.60042931  0.24966368  1
  O  O339  1  0.75229358  0.59906509  0.73215757  1
  O  O340  1  0.77146328  0.93295304  0.22458551  1
  O  O341  1  0.77563914  0.92777292  0.73398076  1
  O  O342  1  0.06554643  0.08432112  0.23485710  1
  O  O343  1  0.07743761  0.08540967  0.72871846  1
  O  O344  1  0.07842938  0.42949484  0.22897957  1
  O  O345  1  0.06134475  0.42925978  0.73564677  1
  O  O346  1  0.06746289  0.76309527  0.22382922  1
  O  O347  1  0.05716300  0.76934413  0.74341574  1
  O  O348  1  0.41064070  0.08829754  0.22822365  1
  O  O349  1  0.40715391  0.09043244  0.73228148  1
  O  O350  1  0.40427043  0.43779466  0.22427409  1
  O  O351  1  0.40742612  0.42965459  0.71642989  1
  O  O352  1  0.39913270  0.77007515  0.22656791  1
  O  O353  1  0.41230834  0.75225517  0.72741178  1
  O  O354  1  0.74506427  0.08796834  0.23049976  1
  O  O355  1  0.74808125  0.09216631  0.73357949  1
  O  O356  1  0.73452757  0.43108878  0.24780281  1
  O  O357  1  0.73154783  0.43550474  0.71731057  1
  O  O358  1  0.73083718  0.76545806  0.24481607  1
  O  O359  1  0.73915475  0.76537846  0.73435059  1
